MODEL 1
REMARK VINA RESULT:      -8.0      0.000      0.000
REMARK  Name = NuBBE_2489
REMARK  7 active torsions:
REMARK  status: ('A' for Active; 'I' for Inactive)
REMARK    1  A    between atoms: C_1  and  C_2
REMARK    2  A    between atoms: C_5  and  C_6
REMARK    3  A    between atoms: C_6  and  C_7
REMARK    4  A    between atoms: C_8  and  C_11
REMARK    5  A    between atoms: C_11  and  O_13
REMARK    6  A    between atoms: C_18  and  C_19
REMARK    7  A    between atoms: C_18  and  C_20
REMARK                            x       y       z     vdW  Elec       q    Type
REMARK                         _______ _______ _______ _____ _____    ______ ____
ROOT
ATOM      1  C   LIG A   1      -9.297  -1.096 126.072  0.00  0.00    +0.016 C 
ATOM      2  C   LIG A   1      -8.067  -1.978 125.703  0.00  0.00    -0.004 C 
ATOM      3  C   LIG A   1      -7.518  -2.501 127.062  0.00  0.00    -0.038 A 
ATOM      4  C   LIG A   1      -6.250  -2.133 127.577  0.00  0.00    -0.040 A 
ATOM      5  C   LIG A   1      -5.841  -2.551 128.888  0.00  0.00    -0.030 A 
ATOM      6  C   LIG A   1      -6.697  -3.393 129.639  0.00  0.00    +0.062 A 
ATOM      7  C   LIG A   1      -7.936  -3.768 129.110  0.00  0.00    +0.015 A 
ATOM      8  C   LIG A   1      -8.338  -3.326 127.854  0.00  0.00    +0.005 A 
ATOM      9  C   LIG A   1      -5.364  -1.233 126.748  0.00  0.00    +0.036 C 
ATOM     10  C   LIG A   1      -5.597  -1.421 125.261  0.00  0.00    +0.009 C 
ATOM     11  C   LIG A   1      -7.049  -1.096 124.881  0.00  0.00    +0.005 C 
ATOM     12  C   LIG A   1      -7.247  -1.095 123.306  0.00  0.00    -0.031 C 
ATOM     13  C   LIG A   1      -6.288  -2.044 122.545  0.00  0.00    +0.011 C 
ATOM     14  C   LIG A   1      -6.967   0.333 122.776  0.00  0.00    +0.011 C 
ATOM     15  C   LIG A   1      -8.689  -1.466 122.911  0.00  0.00    +0.007 C 
ATOM     16  C   LIG A   1      -9.160  -2.791 123.496  0.00  0.00    +0.001 C 
ATOM     17  C   LIG A   1      -8.507  -3.175 124.823  0.00  0.00    +0.012 C 
ENDROOT
BRANCH   5  18
ATOM     18  C   LIG A   1      -4.493  -2.119 129.443  0.00  0.00    +0.033 C 
ATOM     19  C   LIG A   1      -3.404  -3.159 129.216  0.00  0.00    +0.009 C 
ENDBRANCH   5  18
BRANCH   6  20
ATOM     20  C   LIG A   1      -6.371  -3.881 131.012  0.00  0.00    +0.337 C 
ATOM     21  O   LIG A   1      -6.605  -3.345 132.079  0.00  0.00    -0.245 OA
BRANCH  20  22
ATOM     22  O   LIG A   1      -5.738  -5.071 130.983  0.00  0.00    -0.477 OA
ATOM     23  H   LIG A   1      -4.837  -4.841 130.670  0.00  0.00    +0.295 HD
ENDBRANCH  20  22
ENDBRANCH   6  20
TORSDOF 3
ENDMDL
MODEL 2
REMARK VINA RESULT:      -7.4      2.823      6.422
REMARK  Name = NuBBE_2489
REMARK  7 active torsions:
REMARK  status: ('A' for Active; 'I' for Inactive)
REMARK    1  A    between atoms: C_1  and  C_2
REMARK    2  A    between atoms: C_5  and  C_6
REMARK    3  A    between atoms: C_6  and  C_7
REMARK    4  A    between atoms: C_8  and  C_11
REMARK    5  A    between atoms: C_11  and  O_13
REMARK    6  A    between atoms: C_18  and  C_19
REMARK    7  A    between atoms: C_18  and  C_20
REMARK                            x       y       z     vdW  Elec       q    Type
REMARK                         _______ _______ _______ _____ _____    ______ ____
ROOT
ATOM      1  C   LIG A   1      -6.029  -4.572 130.398  0.00  0.00    +0.016 C 
ATOM      2  C   LIG A   1      -6.418  -3.068 130.278  0.00  0.00    -0.004 C 
ATOM      3  C   LIG A   1      -7.059  -2.924 128.868  0.00  0.00    -0.038 A 
ATOM      4  C   LIG A   1      -6.475  -2.162 127.826  0.00  0.00    -0.040 A 
ATOM      5  C   LIG A   1      -7.048  -2.157 126.509  0.00  0.00    -0.030 A 
ATOM      6  C   LIG A   1      -8.247  -2.876 126.279  0.00  0.00    +0.062 A 
ATOM      7  C   LIG A   1      -8.826  -3.606 127.322  0.00  0.00    +0.015 A 
ATOM      8  C   LIG A   1      -8.241  -3.633 128.584  0.00  0.00    +0.005 A 
ATOM      9  C   LIG A   1      -5.197  -1.409 128.108  0.00  0.00    +0.036 C 
ATOM     10  C   LIG A   1      -5.098  -0.982 129.561  0.00  0.00    +0.009 C 
ATOM     11  C   LIG A   1      -5.119  -2.198 130.498  0.00  0.00    +0.005 C 
ATOM     12  C   LIG A   1      -4.814  -1.775 131.998  0.00  0.00    -0.031 C 
ATOM     13  C   LIG A   1      -5.253  -0.332 132.352  0.00  0.00    +0.011 C 
ATOM     14  C   LIG A   1      -3.284  -1.840 132.226  0.00  0.00    +0.011 C 
ATOM     15  C   LIG A   1      -5.479  -2.731 133.007  0.00  0.00    +0.007 C 
ATOM     16  C   LIG A   1      -6.980  -2.887 132.803  0.00  0.00    +0.001 C 
ATOM     17  C   LIG A   1      -7.456  -2.691 131.364  0.00  0.00    +0.012 C 
ENDROOT
BRANCH   5  18
ATOM     18  C   LIG A   1      -6.390  -1.364 125.392  0.00  0.00    +0.033 C 
ATOM     19  C   LIG A   1      -5.447  -2.212 124.548  0.00  0.00    +0.009 C 
ENDBRANCH   5  18
BRANCH   6  20
ATOM     20  C   LIG A   1      -8.923  -2.941 124.950  0.00  0.00    +0.337 C 
ATOM     21  O   LIG A   1      -9.731  -2.164 124.475  0.00  0.00    -0.245 OA
BRANCH  20  22
ATOM     22  O   LIG A   1      -8.539  -4.024 124.245  0.00  0.00    -0.477 OA
ATOM     23  H   LIG A   1      -7.560  -3.976 124.271  0.00  0.00    +0.295 HD
ENDBRANCH  20  22
ENDBRANCH   6  20
TORSDOF 3
ENDMDL
MODEL 3
REMARK VINA RESULT:      -7.3      2.970      6.776
REMARK  Name = NuBBE_2489
REMARK  7 active torsions:
REMARK  status: ('A' for Active; 'I' for Inactive)
REMARK    1  A    between atoms: C_1  and  C_2
REMARK    2  A    between atoms: C_5  and  C_6
REMARK    3  A    between atoms: C_6  and  C_7
REMARK    4  A    between atoms: C_8  and  C_11
REMARK    5  A    between atoms: C_11  and  O_13
REMARK    6  A    between atoms: C_18  and  C_19
REMARK    7  A    between atoms: C_18  and  C_20
REMARK                            x       y       z     vdW  Elec       q    Type
REMARK                         _______ _______ _______ _____ _____    ______ ____
ROOT
ATOM      1  C   LIG A   1      -5.279  -0.667 129.426  0.00  0.00    +0.016 C 
ATOM      2  C   LIG A   1      -5.505  -2.122 128.918  0.00  0.00    -0.004 C 
ATOM      3  C   LIG A   1      -6.062  -1.966 127.473  0.00  0.00    -0.038 A 
ATOM      4  C   LIG A   1      -7.375  -2.350 127.104  0.00  0.00    -0.040 A 
ATOM      5  C   LIG A   1      -7.877  -2.079 125.786  0.00  0.00    -0.030 A 
ATOM      6  C   LIG A   1      -7.018  -1.476 124.835  0.00  0.00    +0.062 A 
ATOM      7  C   LIG A   1      -5.716  -1.122 125.205  0.00  0.00    +0.015 A 
ATOM      8  C   LIG A   1      -5.254  -1.357 126.496  0.00  0.00    +0.005 A 
ATOM      9  C   LIG A   1      -8.263  -2.991 128.145  0.00  0.00    +0.036 C 
ATOM     10  C   LIG A   1      -7.462  -3.769 129.173  0.00  0.00    +0.009 C 
ATOM     11  C   LIG A   1      -6.480  -2.855 129.919  0.00  0.00    +0.005 C 
ATOM     12  C   LIG A   1      -5.788  -3.617 131.128  0.00  0.00    -0.031 C 
ATOM     13  C   LIG A   1      -5.642  -5.145 130.915  0.00  0.00    +0.011 C 
ATOM     14  C   LIG A   1      -6.660  -3.428 132.392  0.00  0.00    +0.011 C 
ATOM     15  C   LIG A   1      -4.389  -3.049 131.435  0.00  0.00    +0.007 C 
ATOM     16  C   LIG A   1      -3.459  -3.028 130.229  0.00  0.00    +0.001 C 
ATOM     17  C   LIG A   1      -4.163  -2.894 128.879  0.00  0.00    +0.012 C 
ENDROOT
BRANCH   5  18
ATOM     18  C   LIG A   1      -9.300  -2.464 125.415  0.00  0.00    +0.033 C 
ATOM     19  C   LIG A   1      -9.362  -3.719 124.555  0.00  0.00    +0.009 C 
ENDBRANCH   5  18
BRANCH   6  20
ATOM     20  C   LIG A   1      -7.439  -1.146 123.441  0.00  0.00    +0.337 C 
ATOM     21  O   LIG A   1      -7.352  -1.837 122.443  0.00  0.00    -0.245 OA
BRANCH  20  22
ATOM     22  O   LIG A   1      -7.974   0.088 123.359  0.00  0.00    -0.477 OA
ATOM     23  H   LIG A   1      -8.333   0.241 124.258  0.00  0.00    +0.295 HD
ENDBRANCH  20  22
ENDBRANCH   6  20
TORSDOF 3
ENDMDL
MODEL 4
REMARK VINA RESULT:      -7.0      1.977      2.517
REMARK  Name = NuBBE_2489
REMARK  7 active torsions:
REMARK  status: ('A' for Active; 'I' for Inactive)
REMARK    1  A    between atoms: C_1  and  C_2
REMARK    2  A    between atoms: C_5  and  C_6
REMARK    3  A    between atoms: C_6  and  C_7
REMARK    4  A    between atoms: C_8  and  C_11
REMARK    5  A    between atoms: C_11  and  O_13
REMARK    6  A    between atoms: C_18  and  C_19
REMARK    7  A    between atoms: C_18  and  C_20
REMARK                            x       y       z     vdW  Elec       q    Type
REMARK                         _______ _______ _______ _____ _____    ______ ____
ROOT
ATOM      1  C   LIG A   1      -9.785  -2.981 126.151  0.00  0.00    +0.016 C 
ATOM      2  C   LIG A   1      -8.402  -2.263 126.144  0.00  0.00    -0.004 C 
ATOM      3  C   LIG A   1      -7.985  -2.166 127.640  0.00  0.00    -0.038 A 
ATOM      4  C   LIG A   1      -7.866  -0.936 128.332  0.00  0.00    -0.040 A 
ATOM      5  C   LIG A   1      -7.591  -0.910 129.741  0.00  0.00    -0.030 A 
ATOM      6  C   LIG A   1      -7.377  -2.133 130.422  0.00  0.00    +0.062 A 
ATOM      7  C   LIG A   1      -7.475  -3.340 129.722  0.00  0.00    +0.015 A 
ATOM      8  C   LIG A   1      -7.779  -3.354 128.365  0.00  0.00    +0.005 A 
ATOM      9  C   LIG A   1      -8.101   0.349 127.573  0.00  0.00    +0.036 C 
ATOM     10  C   LIG A   1      -7.731   0.218 126.107  0.00  0.00    +0.009 C 
ATOM     11  C   LIG A   1      -8.567  -0.870 125.419  0.00  0.00    +0.005 C 
ATOM     12  C   LIG A   1      -8.329  -0.873 123.849  0.00  0.00    -0.031 C 
ATOM     13  C   LIG A   1      -6.924  -0.382 123.419  0.00  0.00    +0.011 C 
ATOM     14  C   LIG A   1      -9.352   0.087 123.196  0.00  0.00    +0.011 C 
ATOM     15  C   LIG A   1      -8.546  -2.272 123.241  0.00  0.00    +0.007 C 
ATOM     16  C   LIG A   1      -7.707  -3.360 123.899  0.00  0.00    +0.001 C 
ATOM     17  C   LIG A   1      -7.361  -3.106 125.365  0.00  0.00    +0.012 C 
ENDROOT
BRANCH   5  18
ATOM     18  C   LIG A   1      -7.501   0.417 130.479  0.00  0.00    +0.033 C 
ATOM     19  C   LIG A   1      -8.815   0.807 131.143  0.00  0.00    +0.009 C 
ENDBRANCH   5  18
BRANCH   6  20
ATOM     20  C   LIG A   1      -7.090  -2.219 131.884  0.00  0.00    +0.337 C 
ATOM     21  O   LIG A   1      -7.881  -2.226 132.810  0.00  0.00    -0.245 OA
BRANCH  20  22
ATOM     22  O   LIG A   1      -5.767  -2.296 132.132  0.00  0.00    -0.477 OA
ATOM     23  H   LIG A   1      -5.612  -3.258 132.243  0.00  0.00    +0.295 HD
ENDBRANCH  20  22
ENDBRANCH   6  20
TORSDOF 3
ENDMDL
MODEL 5
REMARK VINA RESULT:      -7.0      3.368      6.798
REMARK  Name = NuBBE_2489
REMARK  7 active torsions:
REMARK  status: ('A' for Active; 'I' for Inactive)
REMARK    1  A    between atoms: C_1  and  C_2
REMARK    2  A    between atoms: C_5  and  C_6
REMARK    3  A    between atoms: C_6  and  C_7
REMARK    4  A    between atoms: C_8  and  C_11
REMARK    5  A    between atoms: C_11  and  O_13
REMARK    6  A    between atoms: C_18  and  C_19
REMARK    7  A    between atoms: C_18  and  C_20
REMARK                            x       y       z     vdW  Elec       q    Type
REMARK                         _______ _______ _______ _____ _____    ______ ____
ROOT
ATOM      1  C   LIG A   1      -8.229   0.135 130.376  0.00  0.00    +0.016 C 
ATOM      2  C   LIG A   1      -7.269  -0.916 129.743  0.00  0.00    -0.004 C 
ATOM      3  C   LIG A   1      -7.612  -0.921 128.226  0.00  0.00    -0.038 A 
ATOM      4  C   LIG A   1      -8.183  -2.036 127.564  0.00  0.00    -0.040 A 
ATOM      5  C   LIG A   1      -8.586  -1.948 126.189  0.00  0.00    -0.030 A 
ATOM      6  C   LIG A   1      -8.349  -0.745 125.480  0.00  0.00    +0.062 A 
ATOM      7  C   LIG A   1      -7.764   0.342 126.138  0.00  0.00    +0.015 A 
ATOM      8  C   LIG A   1      -7.411   0.256 127.481  0.00  0.00    +0.005 A 
ATOM      9  C   LIG A   1      -8.421  -3.302 128.353  0.00  0.00    +0.036 C 
ATOM     10  C   LIG A   1      -7.416  -3.469 129.478  0.00  0.00    +0.009 C 
ATOM     11  C   LIG A   1      -7.495  -2.299 130.470  0.00  0.00    +0.005 C 
ATOM     12  C   LIG A   1      -6.593  -2.566 131.749  0.00  0.00    -0.031 C 
ATOM     13  C   LIG A   1      -5.358  -3.462 131.479  0.00  0.00    +0.011 C 
ATOM     14  C   LIG A   1      -7.449  -3.301 132.809  0.00  0.00    +0.011 C 
ATOM     15  C   LIG A   1      -6.093  -1.253 132.379  0.00  0.00    +0.007 C 
ATOM     16  C   LIG A   1      -5.357  -0.347 131.401  0.00  0.00    +0.001 C 
ATOM     17  C   LIG A   1      -5.793  -0.488 129.943  0.00  0.00    +0.012 C 
ENDROOT
BRANCH   5  18
ATOM     18  C   LIG A   1      -9.231  -3.141 125.503  0.00  0.00    +0.033 C 
ATOM     19  C   LIG A   1      -8.227  -3.980 124.721  0.00  0.00    +0.009 C 
ENDBRANCH   5  18
BRANCH   6  20
ATOM     20  C   LIG A   1      -8.733  -0.545 124.051  0.00  0.00    +0.337 C 
ATOM     21  O   LIG A   1      -9.815  -0.215 123.600  0.00  0.00    -0.245 OA
BRANCH  20  22
ATOM     22  O   LIG A   1      -7.701  -0.780 123.217  0.00  0.00    -0.477 OA
ATOM     23  H   LIG A   1      -7.772  -1.740 123.033  0.00  0.00    +0.295 HD
ENDBRANCH  20  22
ENDBRANCH   6  20
TORSDOF 3
ENDMDL
MODEL 6
REMARK VINA RESULT:      -7.0      3.472      6.465
REMARK  Name = NuBBE_2489
REMARK  7 active torsions:
REMARK  status: ('A' for Active; 'I' for Inactive)
REMARK    1  A    between atoms: C_1  and  C_2
REMARK    2  A    between atoms: C_5  and  C_6
REMARK    3  A    between atoms: C_6  and  C_7
REMARK    4  A    between atoms: C_8  and  C_11
REMARK    5  A    between atoms: C_11  and  O_13
REMARK    6  A    between atoms: C_18  and  C_19
REMARK    7  A    between atoms: C_18  and  C_20
REMARK                            x       y       z     vdW  Elec       q    Type
REMARK                         _______ _______ _______ _____ _____    ______ ____
ROOT
ATOM      1  C   LIG A   1      -5.753  -2.516 128.847  0.00  0.00    +0.016 C 
ATOM      2  C   LIG A   1      -7.199  -1.945 128.942  0.00  0.00    -0.004 C 
ATOM      3  C   LIG A   1      -7.773  -2.046 127.499  0.00  0.00    -0.038 A 
ATOM      4  C   LIG A   1      -8.098  -0.912 126.714  0.00  0.00    -0.040 A 
ATOM      5  C   LIG A   1      -8.515  -1.059 125.348  0.00  0.00    -0.030 A 
ATOM      6  C   LIG A   1      -8.657  -2.361 124.810  0.00  0.00    +0.062 A 
ATOM      7  C   LIG A   1      -8.355  -3.474 125.602  0.00  0.00    +0.015 A 
ATOM      8  C   LIG A   1      -7.917  -3.317 126.913  0.00  0.00    +0.005 A 
ATOM      9  C   LIG A   1      -7.933   0.461 127.321  0.00  0.00    +0.036 C 
ATOM     10  C   LIG A   1      -8.137   0.446 128.825  0.00  0.00    +0.009 C 
ATOM     11  C   LIG A   1      -7.120  -0.475 129.513  0.00  0.00    +0.005 C 
ATOM     12  C   LIG A   1      -7.197  -0.341 131.093  0.00  0.00    -0.031 C 
ATOM     13  C   LIG A   1      -8.597   0.047 131.630  0.00  0.00    +0.011 C 
ATOM     14  C   LIG A   1      -6.227   0.781 131.538  0.00  0.00    +0.011 C 
ATOM     15  C   LIG A   1      -6.764  -1.640 131.799  0.00  0.00    +0.007 C 
ATOM     16  C   LIG A   1      -7.538  -2.870 131.341  0.00  0.00    +0.001 C 
ATOM     17  C   LIG A   1      -8.056  -2.804 129.905  0.00  0.00    +0.012 C 
ENDROOT
BRANCH   5  18
ATOM     18  C   LIG A   1      -8.826   0.169 124.506  0.00  0.00    +0.033 C 
ATOM     19  C   LIG A   1      -7.593   0.729 123.809  0.00  0.00    +0.009 C 
ENDBRANCH   5  18
BRANCH   6  20
ATOM     20  C   LIG A   1      -9.078  -2.626 123.402  0.00  0.00    +0.337 C 
ATOM     21  O   LIG A   1      -8.516  -2.303 122.373  0.00  0.00    -0.245 OA
BRANCH  20  22
ATOM     22  O   LIG A   1     -10.237  -3.314 123.347  0.00  0.00    -0.477 OA
ATOM     23  H   LIG A   1     -10.832  -2.716 122.848  0.00  0.00    +0.295 HD
ENDBRANCH  20  22
ENDBRANCH   6  20
TORSDOF 3
ENDMDL
MODEL 7
REMARK VINA RESULT:      -7.0      2.599      3.540
REMARK  Name = NuBBE_2489
REMARK  7 active torsions:
REMARK  status: ('A' for Active; 'I' for Inactive)
REMARK    1  A    between atoms: C_1  and  C_2
REMARK    2  A    between atoms: C_5  and  C_6
REMARK    3  A    between atoms: C_6  and  C_7
REMARK    4  A    between atoms: C_8  and  C_11
REMARK    5  A    between atoms: C_11  and  O_13
REMARK    6  A    between atoms: C_18  and  C_19
REMARK    7  A    between atoms: C_18  and  C_20
REMARK                            x       y       z     vdW  Elec       q    Type
REMARK                         _______ _______ _______ _____ _____    ______ ____
ROOT
ATOM      1  C   LIG A   1      -5.725   0.622 126.101  0.00  0.00    +0.016 C 
ATOM      2  C   LIG A   1      -7.009  -0.258 126.163  0.00  0.00    -0.004 C 
ATOM      3  C   LIG A   1      -7.482  -0.185 127.644  0.00  0.00    -0.038 A 
ATOM      4  C   LIG A   1      -7.485  -1.305 128.512  0.00  0.00    -0.040 A 
ATOM      5  C   LIG A   1      -7.821  -1.158 129.900  0.00  0.00    -0.030 A 
ATOM      6  C   LIG A   1      -8.213   0.116 130.380  0.00  0.00    +0.062 A 
ATOM      7  C   LIG A   1      -8.227   1.209 129.508  0.00  0.00    +0.015 A 
ATOM      8  C   LIG A   1      -7.864   1.061 128.174  0.00  0.00    +0.005 A 
ATOM      9  C   LIG A   1      -7.061  -2.648 127.964  0.00  0.00    +0.036 C 
ATOM     10  C   LIG A   1      -7.374  -2.782 126.485  0.00  0.00    +0.009 C 
ATOM     11  C   LIG A   1      -6.644  -1.711 125.664  0.00  0.00    +0.005 C 
ATOM     12  C   LIG A   1      -6.805  -1.969 124.105  0.00  0.00    -0.031 C 
ATOM     13  C   LIG A   1      -8.119  -2.691 123.715  0.00  0.00    +0.011 C 
ATOM     14  C   LIG A   1      -5.644  -2.878 123.636  0.00  0.00    +0.011 C 
ATOM     15  C   LIG A   1      -6.729  -0.659 123.298  0.00  0.00    +0.007 C 
ATOM     16  C   LIG A   1      -7.723   0.400 123.758  0.00  0.00    +0.001 C 
ATOM     17  C   LIG A   1      -8.105   0.323 125.236  0.00  0.00    +0.012 C 
ENDROOT
BRANCH   5  18
ATOM     18  C   LIG A   1      -7.786  -2.362 130.827  0.00  0.00    +0.033 C 
ATOM     19  C   LIG A   1      -6.430  -2.544 131.498  0.00  0.00    +0.009 C 
ENDBRANCH   5  18
BRANCH   6  20
ATOM     20  C   LIG A   1      -8.577   0.380 131.803  0.00  0.00    +0.337 C 
ATOM     21  O   LIG A   1      -7.837   0.508 132.761  0.00  0.00    -0.245 OA
BRANCH  20  22
ATOM     22  O   LIG A   1      -9.912   0.473 131.970  0.00  0.00    -0.477 OA
ATOM     23  H   LIG A   1     -10.113   1.389 131.682  0.00  0.00    +0.295 HD
ENDBRANCH  20  22
ENDBRANCH   6  20
TORSDOF 3
ENDMDL
MODEL 8
REMARK VINA RESULT:      -6.9      3.200      6.364
REMARK  Name = NuBBE_2489
REMARK  7 active torsions:
REMARK  status: ('A' for Active; 'I' for Inactive)
REMARK    1  A    between atoms: C_1  and  C_2
REMARK    2  A    between atoms: C_5  and  C_6
REMARK    3  A    between atoms: C_6  and  C_7
REMARK    4  A    between atoms: C_8  and  C_11
REMARK    5  A    between atoms: C_11  and  O_13
REMARK    6  A    between atoms: C_18  and  C_19
REMARK    7  A    between atoms: C_18  and  C_20
REMARK                            x       y       z     vdW  Elec       q    Type
REMARK                         _______ _______ _______ _____ _____    ______ ____
ROOT
ATOM      1  C   LIG A   1      -8.466  -3.558 129.061  0.00  0.00    +0.016 C 
ATOM      2  C   LIG A   1      -7.343  -2.480 129.004  0.00  0.00    -0.004 C 
ATOM      3  C   LIG A   1      -7.283  -2.033 127.515  0.00  0.00    -0.038 A 
ATOM      4  C   LIG A   1      -6.165  -2.274 126.679  0.00  0.00    -0.040 A 
ATOM      5  C   LIG A   1      -6.207  -1.944 125.282  0.00  0.00    -0.030 A 
ATOM      6  C   LIG A   1      -7.362  -1.313 124.760  0.00  0.00    +0.062 A 
ATOM      7  C   LIG A   1      -8.451  -1.060 125.601  0.00  0.00    +0.015 A 
ATOM      8  C   LIG A   1      -8.413  -1.418 126.944  0.00  0.00    +0.005 A 
ATOM      9  C   LIG A   1      -4.949  -2.948 127.270  0.00  0.00    +0.036 C 
ATOM     10  C   LIG A   1      -4.790  -2.638 128.747  0.00  0.00    +0.009 C 
ATOM     11  C   LIG A   1      -6.007  -3.120 129.550  0.00  0.00    +0.005 C 
ATOM     12  C   LIG A   1      -5.760  -2.981 131.112  0.00  0.00    -0.031 C 
ATOM     13  C   LIG A   1      -4.797  -1.832 131.502  0.00  0.00    +0.011 C 
ATOM     14  C   LIG A   1      -5.116  -4.292 131.625  0.00  0.00    +0.011 C 
ATOM     15  C   LIG A   1      -7.078  -2.774 131.883  0.00  0.00    +0.007 C 
ATOM     16  C   LIG A   1      -7.902  -1.596 131.378  0.00  0.00    +0.001 C 
ATOM     17  C   LIG A   1      -7.713  -1.269 129.897  0.00  0.00    +0.012 C 
ENDROOT
BRANCH   5  18
ATOM     18  C   LIG A   1      -5.013  -2.242 124.389  0.00  0.00    +0.033 C 
ATOM     19  C   LIG A   1      -5.062  -3.642 123.793  0.00  0.00    +0.009 C 
ENDBRANCH   5  18
BRANCH   6  20
ATOM     20  C   LIG A   1      -7.512  -0.933 123.324  0.00  0.00    +0.337 C 
ATOM     21  O   LIG A   1      -7.932  -1.610 122.404  0.00  0.00    -0.245 OA
BRANCH  20  22
ATOM     22  O   LIG A   1      -7.110   0.333 123.096  0.00  0.00    -0.477 OA
ATOM     23  H   LIG A   1      -7.743   0.654 122.420  0.00  0.00    +0.295 HD
ENDBRANCH  20  22
ENDBRANCH   6  20
TORSDOF 3
ENDMDL
MODEL 9
REMARK VINA RESULT:      -6.7      6.941      8.533
REMARK  Name = NuBBE_2489
REMARK  7 active torsions:
REMARK  status: ('A' for Active; 'I' for Inactive)
REMARK    1  A    between atoms: C_1  and  C_2
REMARK    2  A    between atoms: C_5  and  C_6
REMARK    3  A    between atoms: C_6  and  C_7
REMARK    4  A    between atoms: C_8  and  C_11
REMARK    5  A    between atoms: C_11  and  O_13
REMARK    6  A    between atoms: C_18  and  C_19
REMARK    7  A    between atoms: C_18  and  C_20
REMARK                            x       y       z     vdW  Elec       q    Type
REMARK                         _______ _______ _______ _____ _____    ______ ____
ROOT
ATOM      1  C   LIG A   1      -2.619   3.467 126.429  0.00  0.00    +0.016 C 
ATOM      2  C   LIG A   1      -3.872   3.833 127.279  0.00  0.00    -0.004 C 
ATOM      3  C   LIG A   1      -3.319   4.612 128.507  0.00  0.00    -0.038 A 
ATOM      4  C   LIG A   1      -3.395   4.121 129.834  0.00  0.00    -0.040 A 
ATOM      5  C   LIG A   1      -2.766   4.825 130.915  0.00  0.00    -0.030 A 
ATOM      6  C   LIG A   1      -2.118   6.056 130.649  0.00  0.00    +0.062 A 
ATOM      7  C   LIG A   1      -2.069   6.542 129.338  0.00  0.00    +0.015 A 
ATOM      8  C   LIG A   1      -2.650   5.831 128.293  0.00  0.00    +0.005 A 
ATOM      9  C   LIG A   1      -4.094   2.805 130.081  0.00  0.00    +0.036 C 
ATOM     10  C   LIG A   1      -5.197   2.549 129.070  0.00  0.00    +0.009 C 
ATOM     11  C   LIG A   1      -4.638   2.501 127.640  0.00  0.00    +0.005 C 
ATOM     12  C   LIG A   1      -5.747   2.036 126.603  0.00  0.00    -0.031 C 
ATOM     13  C   LIG A   1      -7.194   2.406 127.014  0.00  0.00    +0.011 C 
ATOM     14  C   LIG A   1      -5.699   0.493 126.492  0.00  0.00    +0.011 C 
ATOM     15  C   LIG A   1      -5.494   2.614 125.198  0.00  0.00    +0.007 C 
ATOM     16  C   LIG A   1      -5.362   4.132 125.177  0.00  0.00    +0.001 C 
ATOM     17  C   LIG A   1      -4.825   4.747 126.468  0.00  0.00    +0.012 C 
ENDROOT
BRANCH   5  18
ATOM     18  C   LIG A   1      -2.825   4.268 132.329  0.00  0.00    +0.033 C 
ATOM     19  C   LIG A   1      -4.033   4.772 133.107  0.00  0.00    +0.009 C 
ENDBRANCH   5  18
BRANCH   6  20
ATOM     20  C   LIG A   1      -1.429   6.865 131.697  0.00  0.00    +0.337 C 
ATOM     21  O   LIG A   1      -1.893   7.748 132.395  0.00  0.00    -0.245 OA
BRANCH  20  22
ATOM     22  O   LIG A   1      -0.133   6.517 131.828  0.00  0.00    -0.477 OA
ATOM     23  H   LIG A   1       0.311   7.023 131.115  0.00  0.00    +0.295 HD
ENDBRANCH  20  22
ENDBRANCH   6  20
TORSDOF 3
ENDMDL
