MODEL 1
REMARK VINA RESULT:      -6.0      0.000      0.000
REMARK  Name = NuBBE_1808
REMARK  15 active torsions:
REMARK  status: ('A' for Active; 'I' for Inactive)
REMARK    1  A    between atoms: C_1  and  C_2
REMARK    2  A    between atoms: C_2  and  C_3
REMARK    3  A    between atoms: C_3  and  C_4
REMARK    4  A    between atoms: C_4  and  C_5
REMARK    5  A    between atoms: C_4  and  C_6
REMARK    6  A    between atoms: C_6  and  C_7
REMARK    7  A    between atoms: C_7  and  C_8
REMARK    8  A    between atoms: C_8  and  C_9
REMARK    9  A    between atoms: C_9  and  C_10
REMARK   10  A    between atoms: C_10  and  C_11
REMARK   11  A    between atoms: C_11  and  C_12
REMARK   12  A    between atoms: C_12  and  C_13
REMARK   13  A    between atoms: C_13  and  C_14
REMARK   14  A    between atoms: C_14  and  C_15
REMARK   15  A    between atoms: C_15  and  C_16
REMARK                            x       y       z     vdW  Elec       q    Type
REMARK                         _______ _______ _______ _____ _____    ______ ____
ROOT
ATOM      1  C   LIG A   1      -8.089  -3.356 129.440  0.00  0.00    -0.000 C 
ENDROOT
BRANCH   1   2
ATOM      2  C   LIG A   1      -8.748  -3.745 128.068  0.00  0.00    +0.000 C 
BRANCH   2   3
ATOM      3  C   LIG A   1      -8.604  -2.791 126.900  0.00  0.00    +0.000 C 
BRANCH   3   4
ATOM      4  C   LIG A   1      -8.584  -3.683 125.725  0.00  0.00    +0.003 C 
BRANCH   4   5
ATOM      5  C   LIG A   1      -7.991  -3.002 124.523  0.00  0.00    -0.014 C 
ATOM      6  C   LIG A   1      -9.261  -3.164 123.403  0.00  0.00    +0.007 C 
BRANCH   5   7
ATOM      7  C   LIG A   1      -6.089  -3.362 124.279  0.00  0.00    +0.003 C 
BRANCH   7   9
ATOM      8  C   LIG A   1      -4.312  -4.801 123.481  0.00  0.00    +0.004 C 
ATOM      9  C   LIG A   1      -4.652  -3.388 123.463  0.00  0.00    -0.003 C 
ENDBRANCH   7   9
ENDBRANCH   5   7
ENDBRANCH   4   5
ENDBRANCH   3   4
ENDBRANCH   2   3
ENDBRANCH   1   2
BRANCH   1  10
ATOM     10  C   LIG A   1      -6.557  -3.640 129.797  0.00  0.00    -0.000 C 
BRANCH  10  11
ATOM     11  C   LIG A   1      -5.368  -2.879 129.098  0.00  0.00    -0.000 C 
BRANCH  11  12
ATOM     12  C   LIG A   1      -5.564  -1.375 128.809  0.00  0.00    +0.000 C 
BRANCH  12  13
ATOM     13  C   LIG A   1      -6.491  -0.084 129.313  0.00  0.00    +0.000 C 
BRANCH  13  14
ATOM     14  C   LIG A   1      -7.930   0.778 128.332  0.00  0.00    +0.004 C 
BRANCH  14  15
ATOM     15  C   LIG A   1      -8.381   0.723 126.413  0.00  0.00    +0.026 C 
BRANCH  15  16
ATOM     16  C   LIG A   1      -7.406   0.807 125.212  0.00  0.00    -0.035 C 
ATOM     17  C   LIG A   1      -6.149   0.117 125.343  0.00  0.00    +0.004 C 
ENDBRANCH  15  16
ENDBRANCH  14  15
ENDBRANCH  13  14
ENDBRANCH  12  13
ENDBRANCH  11  12
ENDBRANCH  10  11
ENDBRANCH   1  10
TORSDOF 13
ENDMDL
MODEL 2
REMARK VINA RESULT:      -6.0      1.304      5.626
REMARK  Name = NuBBE_1808
REMARK  15 active torsions:
REMARK  status: ('A' for Active; 'I' for Inactive)
REMARK    1  A    between atoms: C_1  and  C_2
REMARK    2  A    between atoms: C_2  and  C_3
REMARK    3  A    between atoms: C_3  and  C_4
REMARK    4  A    between atoms: C_4  and  C_5
REMARK    5  A    between atoms: C_4  and  C_6
REMARK    6  A    between atoms: C_6  and  C_7
REMARK    7  A    between atoms: C_7  and  C_8
REMARK    8  A    between atoms: C_8  and  C_9
REMARK    9  A    between atoms: C_9  and  C_10
REMARK   10  A    between atoms: C_10  and  C_11
REMARK   11  A    between atoms: C_11  and  C_12
REMARK   12  A    between atoms: C_12  and  C_13
REMARK   13  A    between atoms: C_13  and  C_14
REMARK   14  A    between atoms: C_14  and  C_15
REMARK   15  A    between atoms: C_15  and  C_16
REMARK                            x       y       z     vdW  Elec       q    Type
REMARK                         _______ _______ _______ _____ _____    ______ ____
ROOT
ATOM      1  C   LIG A   1      -8.582  -3.338 128.059  0.00  0.00    -0.000 C 
ENDROOT
BRANCH   1   2
ATOM      2  C   LIG A   1      -7.389  -3.567 129.056  0.00  0.00    +0.000 C 
BRANCH   2   3
ATOM      3  C   LIG A   1      -6.905  -2.395 129.886  0.00  0.00    +0.000 C 
BRANCH   3   4
ATOM      4  C   LIG A   1      -8.110  -1.556 130.034  0.00  0.00    +0.003 C 
BRANCH   4   5
ATOM      5  C   LIG A   1      -7.805  -0.103 129.794  0.00  0.00    -0.014 C 
ATOM      6  C   LIG A   1      -8.529   0.608 131.160  0.00  0.00    +0.007 C 
BRANCH   5   7
ATOM      7  C   LIG A   1      -7.941   0.425 127.920  0.00  0.00    +0.003 C 
BRANCH   7   9
ATOM      8  C   LIG A   1      -9.224   0.380 125.866  0.00  0.00    +0.004 C 
ATOM      9  C   LIG A   1      -7.842   0.215 126.284  0.00  0.00    -0.003 C 
ENDBRANCH   7   9
ENDBRANCH   5   7
ENDBRANCH   4   5
ENDBRANCH   3   4
ENDBRANCH   2   3
ENDBRANCH   1   2
BRANCH   1  10
ATOM     10  C   LIG A   1      -8.421  -3.347 126.469  0.00  0.00    -0.000 C 
BRANCH  10  11
ATOM     11  C   LIG A   1      -9.651  -3.253 125.491  0.00  0.00    -0.000 C 
BRANCH  11  12
ATOM     12  C   LIG A   1      -9.347  -3.168 123.979  0.00  0.00    +0.000 C 
BRANCH  12  13
ATOM     13  C   LIG A   1      -8.542  -2.200 122.887  0.00  0.00    +0.000 C 
BRANCH  13  14
ATOM     14  C   LIG A   1      -6.699  -1.596 122.995  0.00  0.00    +0.004 C 
BRANCH  14  15
ATOM     15  C   LIG A   1      -5.048  -2.597 123.398  0.00  0.00    +0.026 C 
BRANCH  15  16
ATOM     16  C   LIG A   1      -4.926  -3.976 124.094  0.00  0.00    -0.035 C 
ATOM     17  C   LIG A   1      -4.194  -4.998 123.393  0.00  0.00    +0.004 C 
ENDBRANCH  15  16
ENDBRANCH  14  15
ENDBRANCH  13  14
ENDBRANCH  12  13
ENDBRANCH  11  12
ENDBRANCH  10  11
ENDBRANCH   1  10
TORSDOF 13
ENDMDL
MODEL 3
REMARK VINA RESULT:      -5.9      1.508      5.206
REMARK  Name = NuBBE_1808
REMARK  15 active torsions:
REMARK  status: ('A' for Active; 'I' for Inactive)
REMARK    1  A    between atoms: C_1  and  C_2
REMARK    2  A    between atoms: C_2  and  C_3
REMARK    3  A    between atoms: C_3  and  C_4
REMARK    4  A    between atoms: C_4  and  C_5
REMARK    5  A    between atoms: C_4  and  C_6
REMARK    6  A    between atoms: C_6  and  C_7
REMARK    7  A    between atoms: C_7  and  C_8
REMARK    8  A    between atoms: C_8  and  C_9
REMARK    9  A    between atoms: C_9  and  C_10
REMARK   10  A    between atoms: C_10  and  C_11
REMARK   11  A    between atoms: C_11  and  C_12
REMARK   12  A    between atoms: C_12  and  C_13
REMARK   13  A    between atoms: C_13  and  C_14
REMARK   14  A    between atoms: C_14  and  C_15
REMARK   15  A    between atoms: C_15  and  C_16
REMARK                            x       y       z     vdW  Elec       q    Type
REMARK                         _______ _______ _______ _____ _____    ______ ____
ROOT
ATOM      1  C   LIG A   1      -8.994  -3.411 124.698  0.00  0.00    -0.000 C 
ENDROOT
BRANCH   1   2
ATOM      2  C   LIG A   1      -9.429  -2.951 126.136  0.00  0.00    +0.000 C 
BRANCH   2   3
ATOM      3  C   LIG A   1      -8.858  -3.683 127.334  0.00  0.00    +0.000 C 
BRANCH   3   4
ATOM      4  C   LIG A   1      -7.800  -2.776 127.821  0.00  0.00    +0.003 C 
BRANCH   4   5
ATOM      5  C   LIG A   1      -7.684  -2.817 129.320  0.00  0.00    -0.014 C 
ATOM      6  C   LIG A   1      -7.747  -1.158 129.693  0.00  0.00    +0.007 C 
BRANCH   5   7
ATOM      7  C   LIG A   1      -6.443  -4.174 129.971  0.00  0.00    +0.003 C 
BRANCH   7   9
ATOM      8  C   LIG A   1      -5.793  -4.204 132.304  0.00  0.00    +0.004 C 
ATOM      9  C   LIG A   1      -5.477  -4.924 131.082  0.00  0.00    -0.003 C 
ENDBRANCH   7   9
ENDBRANCH   5   7
ENDBRANCH   4   5
ENDBRANCH   3   4
ENDBRANCH   2   3
ENDBRANCH   1   2
BRANCH   1  10
ATOM     10  C   LIG A   1      -8.997  -2.448 123.423  0.00  0.00    -0.000 C 
BRANCH  10  11
ATOM     11  C   LIG A   1      -7.674  -2.004 122.692  0.00  0.00    -0.000 C 
BRANCH  11  12
ATOM     12  C   LIG A   1      -6.336  -2.366 123.373  0.00  0.00    +0.000 C 
BRANCH  12  13
ATOM     13  C   LIG A   1      -5.428  -1.958 124.710  0.00  0.00    +0.000 C 
BRANCH  13  14
ATOM     14  C   LIG A   1      -5.730  -0.468 125.920  0.00  0.00    +0.004 C 
BRANCH  14  15
ATOM     15  C   LIG A   1      -7.186   0.861 125.973  0.00  0.00    +0.026 C 
BRANCH  15  16
ATOM     16  C   LIG A   1      -8.621   0.666 126.524  0.00  0.00    -0.035 C 
ATOM     17  C   LIG A   1      -9.693   0.654 125.563  0.00  0.00    +0.004 C 
ENDBRANCH  15  16
ENDBRANCH  14  15
ENDBRANCH  13  14
ENDBRANCH  12  13
ENDBRANCH  11  12
ENDBRANCH  10  11
ENDBRANCH   1  10
TORSDOF 13
ENDMDL
MODEL 4
REMARK VINA RESULT:      -5.9      1.484      4.871
REMARK  Name = NuBBE_1808
REMARK  15 active torsions:
REMARK  status: ('A' for Active; 'I' for Inactive)
REMARK    1  A    between atoms: C_1  and  C_2
REMARK    2  A    between atoms: C_2  and  C_3
REMARK    3  A    between atoms: C_3  and  C_4
REMARK    4  A    between atoms: C_4  and  C_5
REMARK    5  A    between atoms: C_4  and  C_6
REMARK    6  A    between atoms: C_6  and  C_7
REMARK    7  A    between atoms: C_7  and  C_8
REMARK    8  A    between atoms: C_8  and  C_9
REMARK    9  A    between atoms: C_9  and  C_10
REMARK   10  A    between atoms: C_10  and  C_11
REMARK   11  A    between atoms: C_11  and  C_12
REMARK   12  A    between atoms: C_12  and  C_13
REMARK   13  A    between atoms: C_13  and  C_14
REMARK   14  A    between atoms: C_14  and  C_15
REMARK   15  A    between atoms: C_15  and  C_16
REMARK                            x       y       z     vdW  Elec       q    Type
REMARK                         _______ _______ _______ _____ _____    ______ ____
ROOT
ATOM      1  C   LIG A   1      -8.983  -2.748 126.304  0.00  0.00    -0.000 C 
ENDROOT
BRANCH   1   2
ATOM      2  C   LIG A   1      -9.292  -3.293 124.864  0.00  0.00    +0.000 C 
BRANCH   2   3
ATOM      3  C   LIG A   1      -8.276  -3.052 123.765  0.00  0.00    +0.000 C 
BRANCH   3   4
ATOM      4  C   LIG A   1      -7.031  -3.624 124.315  0.00  0.00    +0.003 C 
BRANCH   4   5
ATOM      5  C   LIG A   1      -5.843  -2.752 124.017  0.00  0.00    -0.014 C 
ATOM      6  C   LIG A   1      -4.643  -3.926 123.743  0.00  0.00    +0.007 C 
BRANCH   5   7
ATOM      7  C   LIG A   1      -5.756  -1.144 125.120  0.00  0.00    +0.003 C 
BRANCH   7   9
ATOM      8  C   LIG A   1      -5.049   0.867 126.269  0.00  0.00    +0.004 C 
ATOM      9  C   LIG A   1      -6.267   0.318 125.695  0.00  0.00    -0.003 C 
ENDBRANCH   7   9
ENDBRANCH   5   7
ENDBRANCH   4   5
ENDBRANCH   3   4
ENDBRANCH   2   3
ENDBRANCH   1   2
BRANCH   1  10
ATOM     10  C   LIG A   1      -8.838  -3.684 127.592  0.00  0.00    -0.000 C 
BRANCH  10  11
ATOM     11  C   LIG A   1      -7.881  -3.334 128.792  0.00  0.00    -0.000 C 
BRANCH  11  12
ATOM     12  C   LIG A   1      -6.641  -2.468 128.478  0.00  0.00    +0.000 C 
BRANCH  12  13
ATOM     13  C   LIG A   1      -4.983  -2.599 128.366  0.00  0.00    +0.000 C 
BRANCH  13  14
ATOM     14  C   LIG A   1      -3.773  -3.323 129.703  0.00  0.00    +0.004 C 
BRANCH  14  15
ATOM     15  C   LIG A   1      -4.149  -4.143 131.457  0.00  0.00    +0.026 C 
BRANCH  15  16
ATOM     16  C   LIG A   1      -5.521  -4.610 132.006  0.00  0.00    -0.035 C 
ATOM     17  C   LIG A   1      -6.496  -3.586 132.280  0.00  0.00    +0.004 C 
ENDBRANCH  15  16
ENDBRANCH  14  15
ENDBRANCH  13  14
ENDBRANCH  12  13
ENDBRANCH  11  12
ENDBRANCH  10  11
ENDBRANCH   1  10
TORSDOF 13
ENDMDL
MODEL 5
REMARK VINA RESULT:      -5.9      2.053      2.477
REMARK  Name = NuBBE_1808
REMARK  15 active torsions:
REMARK  status: ('A' for Active; 'I' for Inactive)
REMARK    1  A    between atoms: C_1  and  C_2
REMARK    2  A    between atoms: C_2  and  C_3
REMARK    3  A    between atoms: C_3  and  C_4
REMARK    4  A    between atoms: C_4  and  C_5
REMARK    5  A    between atoms: C_4  and  C_6
REMARK    6  A    between atoms: C_6  and  C_7
REMARK    7  A    between atoms: C_7  and  C_8
REMARK    8  A    between atoms: C_8  and  C_9
REMARK    9  A    between atoms: C_9  and  C_10
REMARK   10  A    between atoms: C_10  and  C_11
REMARK   11  A    between atoms: C_11  and  C_12
REMARK   12  A    between atoms: C_12  and  C_13
REMARK   13  A    between atoms: C_13  and  C_14
REMARK   14  A    between atoms: C_14  and  C_15
REMARK   15  A    between atoms: C_15  and  C_16
REMARK                            x       y       z     vdW  Elec       q    Type
REMARK                         _______ _______ _______ _____ _____    ______ ____
ROOT
ATOM      1  C   LIG A   1      -8.446  -3.409 128.932  0.00  0.00    -0.000 C 
ENDROOT
BRANCH   1   2
ATOM      2  C   LIG A   1      -8.865  -3.941 127.515  0.00  0.00    +0.000 C 
BRANCH   2   3
ATOM      3  C   LIG A   1      -9.109  -2.935 126.408  0.00  0.00    +0.000 C 
BRANCH   3   4
ATOM      4  C   LIG A   1      -8.746  -3.673 125.183  0.00  0.00    +0.003 C 
BRANCH   4   5
ATOM      5  C   LIG A   1      -8.040  -2.789 124.193  0.00  0.00    -0.014 C 
ATOM      6  C   LIG A   1      -9.277  -2.530 123.054  0.00  0.00    +0.007 C 
BRANCH   5   7
ATOM      7  C   LIG A   1      -6.178  -3.286 123.888  0.00  0.00    +0.003 C 
BRANCH   7   9
ATOM      8  C   LIG A   1      -4.373  -4.854 123.504  0.00  0.00    +0.004 C 
ATOM      9  C   LIG A   1      -4.633  -3.681 124.322  0.00  0.00    -0.003 C 
ENDBRANCH   7   9
ENDBRANCH   5   7
ENDBRANCH   4   5
ENDBRANCH   3   4
ENDBRANCH   2   3
ENDBRANCH   1   2
BRANCH   1  10
ATOM     10  C   LIG A   1      -6.935  -3.371 129.452  0.00  0.00    -0.000 C 
BRANCH  10  11
ATOM     11  C   LIG A   1      -5.867  -2.365 128.882  0.00  0.00    -0.000 C 
BRANCH  11  12
ATOM     12  C   LIG A   1      -6.391  -1.175 128.048  0.00  0.00    +0.000 C 
BRANCH  12  13
ATOM     13  C   LIG A   1      -6.230  -0.505 126.530  0.00  0.00    +0.000 C 
BRANCH  13  14
ATOM     14  C   LIG A   1      -4.959   0.859 125.982  0.00  0.00    +0.004 C 
BRANCH  14  15
ATOM     15  C   LIG A   1      -4.186   2.366 126.992  0.00  0.00    +0.026 C 
BRANCH  15  16
ATOM     16  C   LIG A   1      -3.118   3.378 126.507  0.00  0.00    -0.035 C 
ATOM     17  C   LIG A   1      -1.740   2.973 126.616  0.00  0.00    +0.004 C 
ENDBRANCH  15  16
ENDBRANCH  14  15
ENDBRANCH  13  14
ENDBRANCH  12  13
ENDBRANCH  11  12
ENDBRANCH  10  11
ENDBRANCH   1  10
TORSDOF 13
ENDMDL
MODEL 6
REMARK VINA RESULT:      -5.8      1.596      4.288
REMARK  Name = NuBBE_1808
REMARK  15 active torsions:
REMARK  status: ('A' for Active; 'I' for Inactive)
REMARK    1  A    between atoms: C_1  and  C_2
REMARK    2  A    between atoms: C_2  and  C_3
REMARK    3  A    between atoms: C_3  and  C_4
REMARK    4  A    between atoms: C_4  and  C_5
REMARK    5  A    between atoms: C_4  and  C_6
REMARK    6  A    between atoms: C_6  and  C_7
REMARK    7  A    between atoms: C_7  and  C_8
REMARK    8  A    between atoms: C_8  and  C_9
REMARK    9  A    between atoms: C_9  and  C_10
REMARK   10  A    between atoms: C_10  and  C_11
REMARK   11  A    between atoms: C_11  and  C_12
REMARK   12  A    between atoms: C_12  and  C_13
REMARK   13  A    between atoms: C_13  and  C_14
REMARK   14  A    between atoms: C_14  and  C_15
REMARK   15  A    between atoms: C_15  and  C_16
REMARK                            x       y       z     vdW  Elec       q    Type
REMARK                         _______ _______ _______ _____ _____    ______ ____
ROOT
ATOM      1  C   LIG A   1      -9.141  -3.477 124.659  0.00  0.00    -0.000 C 
ENDROOT
BRANCH   1   2
ATOM      2  C   LIG A   1      -9.320  -2.628 125.968  0.00  0.00    +0.000 C 
BRANCH   2   3
ATOM      3  C   LIG A   1      -8.395  -2.898 127.138  0.00  0.00    +0.000 C 
BRANCH   3   4
ATOM      4  C   LIG A   1      -7.367  -1.847 127.016  0.00  0.00    +0.003 C 
BRANCH   4   5
ATOM      5  C   LIG A   1      -6.014  -2.429 126.711  0.00  0.00    -0.014 C 
ATOM      6  C   LIG A   1      -5.142  -1.958 128.093  0.00  0.00    +0.007 C 
BRANCH   5   7
ATOM      7  C   LIG A   1      -5.506  -2.284 124.832  0.00  0.00    +0.003 C 
BRANCH   7   9
ATOM      8  C   LIG A   1      -4.434  -4.059 123.580  0.00  0.00    +0.004 C 
ATOM      9  C   LIG A   1      -5.182  -2.842 123.311  0.00  0.00    -0.003 C 
ENDBRANCH   7   9
ENDBRANCH   5   7
ENDBRANCH   4   5
ENDBRANCH   3   4
ENDBRANCH   2   3
ENDBRANCH   1   2
BRANCH   1  10
ATOM     10  C   LIG A   1      -8.862  -2.838 123.221  0.00  0.00    -0.000 C 
BRANCH  10  11
ATOM     11  C   LIG A   1      -9.202  -1.339 122.879  0.00  0.00    -0.000 C 
BRANCH  11  12
ATOM     12  C   LIG A   1      -8.188  -0.264 123.327  0.00  0.00    +0.000 C 
BRANCH  12  13
ATOM     13  C   LIG A   1      -7.978   0.880 124.522  0.00  0.00    +0.000 C 
BRANCH  13  14
ATOM     14  C   LIG A   1      -6.324   1.775 125.008  0.00  0.00    +0.004 C 
BRANCH  14  15
ATOM     15  C   LIG A   1      -4.970   1.310 126.364  0.00  0.00    +0.026 C 
BRANCH  15  16
ATOM     16  C   LIG A   1      -4.864   1.845 127.815  0.00  0.00    -0.035 C 
ATOM     17  C   LIG A   1      -5.998   1.626 128.675  0.00  0.00    +0.004 C 
ENDBRANCH  15  16
ENDBRANCH  14  15
ENDBRANCH  13  14
ENDBRANCH  12  13
ENDBRANCH  11  12
ENDBRANCH  10  11
ENDBRANCH   1  10
TORSDOF 13
ENDMDL
MODEL 7
REMARK VINA RESULT:      -5.8      1.433      2.953
REMARK  Name = NuBBE_1808
REMARK  15 active torsions:
REMARK  status: ('A' for Active; 'I' for Inactive)
REMARK    1  A    between atoms: C_1  and  C_2
REMARK    2  A    between atoms: C_2  and  C_3
REMARK    3  A    between atoms: C_3  and  C_4
REMARK    4  A    between atoms: C_4  and  C_5
REMARK    5  A    between atoms: C_4  and  C_6
REMARK    6  A    between atoms: C_6  and  C_7
REMARK    7  A    between atoms: C_7  and  C_8
REMARK    8  A    between atoms: C_8  and  C_9
REMARK    9  A    between atoms: C_9  and  C_10
REMARK   10  A    between atoms: C_10  and  C_11
REMARK   11  A    between atoms: C_11  and  C_12
REMARK   12  A    between atoms: C_12  and  C_13
REMARK   13  A    between atoms: C_13  and  C_14
REMARK   14  A    between atoms: C_14  and  C_15
REMARK   15  A    between atoms: C_15  and  C_16
REMARK                            x       y       z     vdW  Elec       q    Type
REMARK                         _______ _______ _______ _____ _____    ______ ____
ROOT
ATOM      1  C   LIG A   1      -7.616  -3.638 129.126  0.00  0.00    -0.000 C 
ENDROOT
BRANCH   1   2
ATOM      2  C   LIG A   1      -8.797  -3.590 128.091  0.00  0.00    +0.000 C 
BRANCH   2   3
ATOM      3  C   LIG A   1      -8.645  -2.719 126.860  0.00  0.00    +0.000 C 
BRANCH   3   4
ATOM      4  C   LIG A   1      -8.706  -3.684 125.744  0.00  0.00    +0.003 C 
BRANCH   4   5
ATOM      5  C   LIG A   1      -8.269  -3.059 124.448  0.00  0.00    -0.014 C 
ATOM      6  C   LIG A   1      -9.628  -3.362 123.471  0.00  0.00    +0.007 C 
BRANCH   5   7
ATOM      7  C   LIG A   1      -6.380  -3.337 124.044  0.00  0.00    +0.003 C 
BRANCH   7   9
ATOM      8  C   LIG A   1      -4.434  -4.709 123.598  0.00  0.00    +0.004 C 
ATOM      9  C   LIG A   1      -4.778  -3.542 124.393  0.00  0.00    -0.003 C 
ENDBRANCH   7   9
ENDBRANCH   5   7
ENDBRANCH   4   5
ENDBRANCH   3   4
ENDBRANCH   2   3
ENDBRANCH   1   2
BRANCH   1  10
ATOM     10  C   LIG A   1      -7.714  -3.047 130.608  0.00  0.00    -0.000 C 
BRANCH  10  11
ATOM     11  C   LIG A   1      -7.850  -1.505 130.898  0.00  0.00    -0.000 C 
BRANCH  11  12
ATOM     12  C   LIG A   1      -7.846  -0.553 129.682  0.00  0.00    +0.000 C 
BRANCH  12  13
ATOM     13  C   LIG A   1      -6.855  -0.085 128.426  0.00  0.00    +0.000 C 
BRANCH  13  14
ATOM     14  C   LIG A   1      -5.383  -1.095 127.657  0.00  0.00    +0.004 C 
BRANCH  14  15
ATOM     15  C   LIG A   1      -4.555  -2.789 128.236  0.00  0.00    +0.026 C 
BRANCH  15  16
ATOM     16  C   LIG A   1      -3.903  -3.101 129.607  0.00  0.00    -0.035 C 
ATOM     17  C   LIG A   1      -3.102  -2.062 130.200  0.00  0.00    +0.004 C 
ENDBRANCH  15  16
ENDBRANCH  14  15
ENDBRANCH  13  14
ENDBRANCH  12  13
ENDBRANCH  11  12
ENDBRANCH  10  11
ENDBRANCH   1  10
TORSDOF 13
ENDMDL
MODEL 8
REMARK VINA RESULT:      -5.7      1.670      4.086
REMARK  Name = NuBBE_1808
REMARK  15 active torsions:
REMARK  status: ('A' for Active; 'I' for Inactive)
REMARK    1  A    between atoms: C_1  and  C_2
REMARK    2  A    between atoms: C_2  and  C_3
REMARK    3  A    between atoms: C_3  and  C_4
REMARK    4  A    between atoms: C_4  and  C_5
REMARK    5  A    between atoms: C_4  and  C_6
REMARK    6  A    between atoms: C_6  and  C_7
REMARK    7  A    between atoms: C_7  and  C_8
REMARK    8  A    between atoms: C_8  and  C_9
REMARK    9  A    between atoms: C_9  and  C_10
REMARK   10  A    between atoms: C_10  and  C_11
REMARK   11  A    between atoms: C_11  and  C_12
REMARK   12  A    between atoms: C_12  and  C_13
REMARK   13  A    between atoms: C_13  and  C_14
REMARK   14  A    between atoms: C_14  and  C_15
REMARK   15  A    between atoms: C_15  and  C_16
REMARK                            x       y       z     vdW  Elec       q    Type
REMARK                         _______ _______ _______ _____ _____    ______ ____
ROOT
ATOM      1  C   LIG A   1      -9.294  -2.832 125.948  0.00  0.00    -0.000 C 
ENDROOT
BRANCH   1   2
ATOM      2  C   LIG A   1      -8.681  -3.253 127.332  0.00  0.00    +0.000 C 
BRANCH   2   3
ATOM      3  C   LIG A   1      -7.310  -2.727 127.706  0.00  0.00    +0.000 C 
BRANCH   3   4
ATOM      4  C   LIG A   1      -7.061  -1.670 126.707  0.00  0.00    +0.003 C 
BRANCH   4   5
ATOM      5  C   LIG A   1      -5.665  -1.751 126.153  0.00  0.00    -0.014 C 
ATOM      6  C   LIG A   1      -5.191  -0.120 126.238  0.00  0.00    +0.007 C 
BRANCH   5   7
ATOM      7  C   LIG A   1      -5.485  -3.005 124.668  0.00  0.00    +0.003 C 
BRANCH   7   9
ATOM      8  C   LIG A   1      -3.889  -4.453 123.562  0.00  0.00    +0.004 C 
ATOM      9  C   LIG A   1      -5.286  -4.485 123.961  0.00  0.00    -0.003 C 
ENDBRANCH   7   9
ENDBRANCH   5   7
ENDBRANCH   4   5
ENDBRANCH   3   4
ENDBRANCH   2   3
ENDBRANCH   1   2
BRANCH   1  10
ATOM     10  C   LIG A   1      -9.122  -3.686 124.608  0.00  0.00    -0.000 C 
BRANCH  10  11
ATOM     11  C   LIG A   1      -9.091  -3.025 123.179  0.00  0.00    -0.000 C 
BRANCH  11  12
ATOM     12  C   LIG A   1      -8.621  -1.556 123.090  0.00  0.00    +0.000 C 
BRANCH  12  13
ATOM     13  C   LIG A   1      -7.222  -0.668 122.907  0.00  0.00    +0.000 C 
BRANCH  13  14
ATOM     14  C   LIG A   1      -6.976   1.220 123.292  0.00  0.00    +0.004 C 
BRANCH  14  15
ATOM     15  C   LIG A   1      -7.499   2.282 124.869  0.00  0.00    +0.026 C 
BRANCH  15  16
ATOM     16  C   LIG A   1      -8.826   2.198 125.666  0.00  0.00    -0.035 C 
ATOM     17  C   LIG A   1      -9.011   1.041 126.503  0.00  0.00    +0.004 C 
ENDBRANCH  15  16
ENDBRANCH  14  15
ENDBRANCH  13  14
ENDBRANCH  12  13
ENDBRANCH  11  12
ENDBRANCH  10  11
ENDBRANCH   1  10
TORSDOF 13
ENDMDL
MODEL 9
REMARK VINA RESULT:      -5.7      1.203      3.552
REMARK  Name = NuBBE_1808
REMARK  15 active torsions:
REMARK  status: ('A' for Active; 'I' for Inactive)
REMARK    1  A    between atoms: C_1  and  C_2
REMARK    2  A    between atoms: C_2  and  C_3
REMARK    3  A    between atoms: C_3  and  C_4
REMARK    4  A    between atoms: C_4  and  C_5
REMARK    5  A    between atoms: C_4  and  C_6
REMARK    6  A    between atoms: C_6  and  C_7
REMARK    7  A    between atoms: C_7  and  C_8
REMARK    8  A    between atoms: C_8  and  C_9
REMARK    9  A    between atoms: C_9  and  C_10
REMARK   10  A    between atoms: C_10  and  C_11
REMARK   11  A    between atoms: C_11  and  C_12
REMARK   12  A    between atoms: C_12  and  C_13
REMARK   13  A    between atoms: C_13  and  C_14
REMARK   14  A    between atoms: C_14  and  C_15
REMARK   15  A    between atoms: C_15  and  C_16
REMARK                            x       y       z     vdW  Elec       q    Type
REMARK                         _______ _______ _______ _____ _____    ______ ____
ROOT
ATOM      1  C   LIG A   1      -8.245  -2.920 128.963  0.00  0.00    -0.000 C 
ENDROOT
BRANCH   1   2
ATOM      2  C   LIG A   1      -8.812  -3.998 127.972  0.00  0.00    +0.000 C 
BRANCH   2   3
ATOM      3  C   LIG A   1      -9.679  -3.535 126.818  0.00  0.00    +0.000 C 
BRANCH   3   4
ATOM      4  C   LIG A   1      -8.708  -3.291 125.733  0.00  0.00    +0.003 C 
BRANCH   4   5
ATOM      5  C   LIG A   1      -9.214  -2.263 124.760  0.00  0.00    -0.014 C 
ATOM      6  C   LIG A   1      -9.245  -3.170 123.321  0.00  0.00    +0.007 C 
BRANCH   5   7
ATOM      7  C   LIG A   1      -8.496  -0.475 125.067  0.00  0.00    +0.003 C 
BRANCH   7   9
ATOM      8  C   LIG A   1      -8.076   0.303 127.323  0.00  0.00    +0.004 C 
ATOM      9  C   LIG A   1      -7.856   0.760 125.961  0.00  0.00    -0.003 C 
ENDBRANCH   7   9
ENDBRANCH   5   7
ENDBRANCH   4   5
ENDBRANCH   3   4
ENDBRANCH   2   3
ENDBRANCH   1   2
BRANCH   1  10
ATOM     10  C   LIG A   1      -7.516  -3.280 130.340  0.00  0.00    -0.000 C 
BRANCH  10  11
ATOM     11  C   LIG A   1      -6.171  -2.598 130.791  0.00  0.00    -0.000 C 
BRANCH  11  12
ATOM     12  C   LIG A   1      -4.934  -2.812 129.892  0.00  0.00    +0.000 C 
BRANCH  12  13
ATOM     13  C   LIG A   1      -4.509  -2.822 128.280  0.00  0.00    +0.000 C 
BRANCH  13  14
ATOM     14  C   LIG A   1      -5.561  -2.156 126.788  0.00  0.00    +0.004 C 
BRANCH  14  15
ATOM     15  C   LIG A   1      -5.185  -2.171 124.852  0.00  0.00    +0.026 C 
BRANCH  15  16
ATOM     16  C   LIG A   1      -5.466  -3.314 123.844  0.00  0.00    -0.035 C 
ATOM     17  C   LIG A   1      -4.417  -4.280 123.644  0.00  0.00    +0.004 C 
ENDBRANCH  15  16
ENDBRANCH  14  15
ENDBRANCH  13  14
ENDBRANCH  12  13
ENDBRANCH  11  12
ENDBRANCH  10  11
ENDBRANCH   1  10
TORSDOF 13
ENDMDL
