REMARK  Name = CHEMBL513488
REMARK  9 active torsions:
REMARK  status: ('A' for Active; 'I' for Inactive)
REMARK    1  A    between atoms: C_1  and  C_2
REMARK    2  A    between atoms: C_4  and  C_5
REMARK    3  A    between atoms: C_5  and  C_6
REMARK    4  A    between atoms: C_5  and  N_14
REMARK    5  A    between atoms: C_17  and  C_18
REMARK    6  A    between atoms: CA_30  and  CB_31
REMARK    7  A    between atoms: CB_31  and  CG_32
REMARK    8  A    between atoms: CG_32  and  CD1_33
REMARK    9  A    between atoms: CG_32  and  CD2_34
REMARK                            x       y       z     vdW  Elec       q    Type
REMARK                         _______ _______ _______ _____ _____    ______ ____
ROOT
ATOM      1  N   LEU A   1      -2.341   2.921   0.209  0.00  0.00    +0.000 N 
ATOM      2  C   UNK A   2      -1.731   3.532  -0.891  0.00  0.00    +0.000 C 
ATOM      3  O   UNK A   2      -1.495   2.922  -1.929  0.00  0.00    +0.000 OA
ATOM      4  C   UNK A   2      -1.291   5.013  -0.649  0.00  0.00    +0.000 C 
ATOM      5  N   UNK A   2      -2.366   5.727  -0.007  0.00  0.00    +0.000 N 
ATOM      6  C   LEU A   1      -2.796   5.271   1.200  0.00  0.00    +0.000 C 
ATOM      7  O   LEU A   1      -3.272   6.063   1.992  0.00  0.00    +0.000 OA
ATOM      8  CA  LEU A   1      -2.633   3.741   1.417  0.00  0.00    +0.000 C 
ATOM      9  H   UNK A   2      -2.486   6.727  -0.124  0.00  0.00    +0.000 HD
ENDROOT
BRANCH   4  10
ATOM     10  C   UNK A   2      -0.893   5.777  -1.892  0.00  0.00    +0.000 C 
ATOM     11  C   UNK A   2       0.341   5.172  -2.574  0.00  0.00    +0.000 C 
ATOM     12  C   UNK A   2       0.109   5.606  -3.979  0.00  0.00    +0.000 A 
ATOM     13  C   UNK A   2       1.026   5.591  -5.008  0.00  0.00    +0.000 A 
ATOM     14  C   UNK A   2       0.613   6.047  -6.256  0.00  0.00    +0.000 A 
ATOM     15  C   UNK A   2      -0.707   6.482  -6.462  0.00  0.00    +0.000 A 
ATOM     16  C   UNK A   2      -1.639   6.456  -5.424  0.00  0.00    +0.000 A 
ATOM     17  C   UNK A   2      -1.214   6.018  -4.185  0.00  0.00    +0.000 A 
ATOM     18  C   UNK A   2      -2.022   5.868  -2.941  0.00  0.00    +0.000 C 
ENDBRANCH   4  10
BRANCH   1  19
ATOM     19  C   UNK A   0      -2.544   1.419   0.209  0.00  0.00    +0.000 C 
BRANCH  19  20
ATOM     20  C   UNK A   0      -3.064   0.660   1.551  0.00  0.00    +0.000 C 
ATOM     21  O   UNK A   0      -2.695   0.939   2.694  0.00  0.00    +0.000 OA
ATOM     22  N   UNK A   0      -3.988  -0.360   1.357  0.00  0.00    +0.000 N 
ATOM     23  C   UNK A   0      -3.480  -1.716   1.510  0.00  0.00    +0.000 C 
ATOM     24  C   UNK A   0      -4.414  -2.603   0.699  0.00  0.00    +0.000 C 
ATOM     25  O   UNK A   0      -5.734  -2.579   1.279  0.00  0.00    +0.000 OA
ATOM     26  C   UNK A   0      -6.246  -1.232   1.360  0.00  0.00    +0.000 C 
ATOM     27  C   UNK A   0      -5.260  -0.309   2.081  0.00  0.00    +0.000 C 
ENDBRANCH  19  20
BRANCH  19  31
ATOM     28  C   UNK A   0       2.222   0.032   0.035  0.00  0.00    +0.000 C 
ATOM     29  C   UNK A   0       0.761   0.131   0.001  0.00  0.00    +0.000 A 
ATOM     30  N   UNK A   0      -0.012   1.184   0.162  0.00  0.00    +0.000 NA
ATOM     31  C   UNK A   0      -1.271   0.682  -0.071  0.00  0.00    +0.000 A 
ATOM     32  C   UNK A   0      -1.172  -0.643  -0.431  0.00  0.00    +0.000 A 
ATOM     33  O   UNK A   0       0.110  -1.033  -0.279  0.00  0.00    +0.000 OA
ENDBRANCH  19  31
ENDBRANCH   1  19
BRANCH   8  34
ATOM     34  CB  LEU A   1      -3.921   3.250   2.078  0.00  0.00    +0.000 C 
BRANCH  34  35
ATOM     35  CG  LEU A   1      -5.216   4.030   2.041  0.00  0.00    +0.000 C 
ATOM     36  CD1 LEU A   1      -5.599   4.317   0.587  0.00  0.00    +0.000 C 
ATOM     37  CD2 LEU A   1      -6.301   3.175   2.696  0.00  0.00    +0.000 C 
ENDBRANCH  34  35
ENDBRANCH   8  34
TORSDOF 6
