REMARK  Name = CHEMBL515818
REMARK  9 active torsions:
REMARK  status: ('A' for Active; 'I' for Inactive)
REMARK    1  A    between atoms: C_1  and  O_2
REMARK    2  A    between atoms: O_2  and  C_3
REMARK    3  A    between atoms: C_6  and  N_7
REMARK    4  A    between atoms: N_7  and  C_8
REMARK    5  A    between atoms: N_7  and  S_22
REMARK    6  A    between atoms: C_8  and  C_9
REMARK    7  A    between atoms: C_12  and  C_13
REMARK    8  A    between atoms: C_18  and  C_19
REMARK    9  A    between atoms: S_22  and  C_25
REMARK                            x       y       z     vdW  Elec       q    Type
REMARK                         _______ _______ _______ _____ _____    ______ ____
ROOT
ATOM      1  N   UNL     1       5.439  -3.148   3.325  0.00  0.00    +0.000 N 
ENDROOT
BRANCH   1   5
ATOM      2  C   UNL     1       2.887  -0.924   0.717  0.00  0.00    +0.000 A 
ATOM      3  C   UNL     1       2.574  -2.254   0.963  0.00  0.00    +0.000 A 
ATOM      4  C   UNL     1       3.396  -3.028   1.816  0.00  0.00    +0.000 A 
ATOM      5  C   UNL     1       4.486  -2.453   2.449  0.00  0.00    +0.000 A 
ATOM      6  C   UNL     1       4.537  -1.082   2.238  0.00  0.00    +0.000 A 
ATOM      7  N   UNL     1       3.861  -0.312   1.361  0.00  0.00    +0.000 NA
BRANCH   2   9
ATOM      8  C   UNL     1       0.882  -0.079  -0.055  0.00  0.00    +0.000 C 
ATOM      9  O   UNL     1       2.287  -0.117  -0.192  0.00  0.00    +0.000 OA
ENDBRANCH   2   9
ENDBRANCH   1   5
BRANCH   1  10
ATOM     10  S   UNL     1       5.161  -4.821   3.703  0.00  0.00    +0.000 S 
ATOM     11  O   UNL     1       3.915  -4.852   4.438  0.00  0.00    +0.000 OA
ATOM     12  O   UNL     1       5.283  -5.546   2.442  0.00  0.00    +0.000 OA
BRANCH  10  13
ATOM     13  C   UNL     1       6.423  -5.522   4.831  0.00  0.00    +0.000 A 
ATOM     14  C   UNL     1       7.322  -4.772   5.566  0.00  0.00    +0.000 A 
ATOM     15  C   UNL     1       8.263  -5.381   6.379  0.00  0.00    +0.000 A 
ATOM     16  C   UNL     1       8.240  -6.750   6.508  0.00  0.00    +0.000 A 
ATOM     17  C   UNL     1       7.283  -7.451   5.790  0.00  0.00    +0.000 A 
ATOM     18  N   UNL     1       6.384  -6.879   4.943  0.00  0.00    +0.000 NA
ENDBRANCH  10  13
ENDBRANCH   1  10
BRANCH   1  19
ATOM     19  C   UNL     1       6.714  -2.524   3.774  0.00  0.00    +0.000 C 
BRANCH  19  20
ATOM     20  C   UNL     1       7.144  -1.110   3.437  0.00  0.00    +0.000 A 
ATOM     21  C   UNL     1       6.932  -0.110   4.399  0.00  0.00    +0.000 A 
ATOM     22  C   UNL     1       6.821   1.202   3.964  0.00  0.00    +0.000 A 
ATOM     23  C   UNL     1       6.956   1.500   2.601  0.00  0.00    +0.000 A 
ATOM     24  C   UNL     1       7.251   0.445   1.738  0.00  0.00    +0.000 A 
ATOM     25  N   UNL     1       7.401  -0.843   2.134  0.00  0.00    +0.000 NA
BRANCH  23  26
ATOM     26  C   UNL     1       6.870   2.875   2.117  0.00  0.00    +0.000 A 
ATOM     27  C   UNL     1       5.854   3.276   1.229  0.00  0.00    +0.000 A 
ATOM     28  C   UNL     1       5.828   4.579   0.730  0.00  0.00    +0.000 A 
ATOM     29  C   UNL     1       6.805   5.492   1.120  0.00  0.00    +0.000 A 
ATOM     30  C   UNL     1       7.810   5.110   2.006  0.00  0.00    +0.000 A 
ATOM     31  C   UNL     1       7.855   3.807   2.510  0.00  0.00    +0.000 A 
ATOM     32  C   UNL     1       8.978   3.403   3.431  0.00  0.00    +0.000 C 
ENDBRANCH  23  26
ENDBRANCH  19  20
ENDBRANCH   1  19
TORSDOF 7
