REMARK  Name = CHEMBL4212928
REMARK  9 active torsions:
REMARK  status: ('A' for Active; 'I' for Inactive)
REMARK    1  A    between atoms: C_1  and  O_2
REMARK    2  A    between atoms: O_2  and  C_3
REMARK    3  A    between atoms: C_3  and  C_5
REMARK    4  A    between atoms: C_5  and  N_6
REMARK    5  A    between atoms: N_9  and  C_10
REMARK    6  A    between atoms: C_10  and  C_11
REMARK    7  A    between atoms: C_14  and  C_15
REMARK    8  A    between atoms: N_22  and  C_23
REMARK    9  A    between atoms: C_33  and  C_34
REMARK                            x       y       z     vdW  Elec       q    Type
REMARK                         _______ _______ _______ _____ _____    ______ ____
ROOT
ATOM      1  C   UNL     1       8.727  -4.151   3.784  0.00  0.00    +0.000 A 
ATOM      2  C   UNL     1      10.053  -4.615   4.007  0.00  0.00    +0.000 A 
ATOM      3  C   UNL     1      10.375  -6.002   4.041  0.00  0.00    +0.000 A 
ATOM      4  C   UNL     1       9.369  -6.959   3.873  0.00  0.00    +0.000 A 
ATOM      5  C   UNL     1       8.073  -6.481   3.780  0.00  0.00    +0.000 A 
ATOM      6  C   UNL     1       7.736  -5.130   3.669  0.00  0.00    +0.000 A 
ATOM      7  C   UNL     1       6.286  -4.859   3.429  0.00  0.00    +0.000 C 
ENDROOT
BRANCH   4   8
ATOM      8  C   UNL     1       9.583  -8.459   3.881  0.00  0.00    +0.000 C 
ATOM      9  O   UNL     1      10.704  -8.858   4.190  0.00  0.00    +0.000 OA
ATOM     10  N   UNL     1       8.439  -9.287   3.629  0.00  0.00    +0.000 N 
ATOM     11  C   UNL     1       7.696  -9.127   2.337  0.00  0.00    +0.000 C 
ATOM     12  C   UNL     1       6.224  -8.886   2.497  0.00  0.00    +0.000 A 
ATOM     13  C   UNL     1       5.331  -7.998   1.824  0.00  0.00    +0.000 A 
ATOM     14  N   UNL     1       4.067  -8.070   2.273  0.00  0.00    +0.000 NA
ATOM     15  N   UNL     1       4.133  -9.019   3.223  0.00  0.00    +0.000 N 
ATOM     16  C   UNL     1       2.963  -9.455   3.958  0.00  0.00    +0.000 C 
ATOM     17  C   UNL     1       5.406  -9.489   3.415  0.00  0.00    +0.000 A 
ATOM     18  N   UNL     1       5.653 -10.383   4.373  0.00  0.00    +0.000 N 
ATOM     19  C   UNL     1       6.883 -10.914   4.798  0.00  0.00    +0.000 A 
ATOM     20  C   UNL     1       6.720 -11.970   5.738  0.00  0.00    +0.000 A 
ATOM     21  C   UNL     1       7.793 -12.656   6.271  0.00  0.00    +0.000 A 
ATOM     22  C   UNL     1       9.063 -12.297   5.865  0.00  0.00    +0.000 A 
ATOM     23  C   UNL     1       9.255 -11.220   4.979  0.00  0.00    +0.000 A 
ATOM     24  C   UNL     1       8.186 -10.488   4.424  0.00  0.00    +0.000 A 
ATOM     25  H   UNL     1       4.873 -10.787   4.878  0.00  0.00    +0.000 HD
ENDBRANCH   4   8
BRANCH   1  26
ATOM     26  C   UNL     1       8.445  -2.645   3.693  0.00  0.00    +0.000 C 
BRANCH  26  30
ATOM     27  N   UNL     1       5.233  -1.506   2.238  0.00  0.00    +0.000 N 
ATOM     28  C   UNL     1       6.602  -1.600   2.340  0.00  0.00    +0.000 C 
ATOM     29  O   UNL     1       7.359  -1.137   1.486  0.00  0.00    +0.000 OA
ATOM     30  N   UNL     1       7.047  -2.248   3.462  0.00  0.00    +0.000 N 
ATOM     31  H   UNL     1       4.622  -2.050   2.836  0.00  0.00    +0.000 HD
ATOM     32  H   UNL     1       6.377  -2.470   4.182  0.00  0.00    +0.000 HD
BRANCH  27  33
ATOM     33  C   UNL     1       4.597  -0.802   1.108  0.00  0.00    +0.000 C 
BRANCH  33  34
ATOM     34  C   UNL     1       3.060  -0.840   1.145  0.00  0.00    +0.000 C 
ATOM     35  O   UNL     1       2.412  -1.453   1.989  0.00  0.00    +0.000 OA
BRANCH  34  37
ATOM     36  C   UNL     1       1.068  -0.098   0.102  0.00  0.00    +0.000 C 
ATOM     37  O   UNL     1       2.507  -0.114   0.126  0.00  0.00    +0.000 OA
ENDBRANCH  34  37
ENDBRANCH  33  34
ENDBRANCH  27  33
ENDBRANCH  26  30
ENDBRANCH   1  26
TORSDOF 6
