REMARK  Name = CHEMBL308673
REMARK  11 active torsions:
REMARK  status: ('A' for Active; 'I' for Inactive)
REMARK    1  A    between atoms: C_1  and  O_2
REMARK    2  A    between atoms: O_2  and  C_3
REMARK    3  A    between atoms: C_5  and  O_6
REMARK    4  A    between atoms: O_6  and  C_7
REMARK    5  A    between atoms: N_10  and  C_11
REMARK    6  A    between atoms: C_11  and  C_12
REMARK    7  A    between atoms: C_13  and  C_14
REMARK    8  A    between atoms: C_16  and  C_17
REMARK    9  A    between atoms: C_20  and  C_21
REMARK   10  A    between atoms: C_27  and  C_28
REMARK   11  A    between atoms: C_33  and  N_34
REMARK                            x       y       z     vdW  Elec       q    Type
REMARK                         _______ _______ _______ _____ _____    ______ ____
ROOT
ATOM      1  C   UNL     1       2.848   0.463   0.893  0.00  0.00    +0.000 A 
ATOM      2  C   UNL     1       2.424   0.288   2.286  0.00  0.00    +0.000 A 
ATOM      3  C   UNL     1       3.110   0.877   3.288  0.00  0.00    +0.000 A 
ATOM      4  C   UNL     1       4.123   1.549   2.705  0.00  0.00    +0.000 A 
ATOM      5  F   UNL     1       4.941   2.004   3.528  0.00  0.00    +0.000 F 
ATOM      6  C   UNL     1       4.604   1.800   1.444  0.00  0.00    +0.000 A 
ATOM      7  C   UNL     1       3.924   1.254   0.453  0.00  0.00    +0.000 A 
ENDROOT
BRANCH   7   8
ATOM      8  C   UNL     1       4.533   1.564  -0.870  0.00  0.00    +0.000 C 
ATOM      9  O   UNL     1       5.640   2.107  -0.939  0.00  0.00    +0.000 OA
ATOM     10  N   UNL     1       3.823   1.223  -1.996  0.00  0.00    +0.000 N 
ATOM     11  C   UNL     1       4.341   0.150  -2.818  0.00  0.00    +0.000 C 
ATOM     12  C   UNL     1       3.983   0.421  -4.277  0.00  0.00    +0.000 C 
ATOM     13  C   UNL     1       2.218   0.411  -4.557  0.00  0.00    +0.000 C 
ATOM     14  C   UNL     1       1.968   1.785  -3.553  0.00  0.00    +0.000 C 
ATOM     15  C   UNL     1       2.408   1.496  -2.128  0.00  0.00    +0.000 C 
BRANCH  13  16
ATOM     16  N   UNL     1       1.220  -0.909  -5.390  0.00  0.00    +0.000 N 
ATOM     17  C   UNL     1       2.428  -1.155  -6.073  0.00  0.00    +0.000 C 
ATOM     18  O   UNL     1       3.147  -0.329  -6.749  0.00  0.00    +0.000 OA
ATOM     19  O   UNL     1       2.999  -2.283  -5.730  0.00  0.00    +0.000 OA
ATOM     20  C   UNL     1       2.611  -3.009  -6.826  0.00  0.00    +0.000 C 
ATOM     21  C   UNL     1       1.435  -3.599  -6.196  0.00  0.00    +0.000 A 
ATOM     22  C   UNL     1       1.407  -5.082  -6.558  0.00  0.00    +0.000 A 
ATOM     23  C   UNL     1       0.329  -5.905  -6.539  0.00  0.00    +0.000 A 
ATOM     24  C   UNL     1      -0.784  -5.130  -6.316  0.00  0.00    +0.000 A 
ATOM     25  C   UNL     1      -0.718  -3.516  -5.915  0.00  0.00    +0.000 A 
ATOM     26  C   UNL     1       0.545  -2.631  -5.618  0.00  0.00    +0.000 A 
ENDBRANCH  13  16
ENDBRANCH   7   8
BRANCH   1  28
ATOM     27  C   UNL     1       0.826  -0.018   0.024  0.00  0.00    +0.000 C 
ATOM     28  O   UNL     1       2.217  -0.295  -0.034  0.00  0.00    +0.000 OA
ENDBRANCH   1  28
BRANCH   3  29
ATOM     29  O   UNL     1       2.895   0.755   4.633  0.00  0.00    +0.000 OA
BRANCH  29  30
ATOM     30  C   UNL     1       3.677   1.352   5.769  0.00  0.00    +0.000 C 
ATOM     31  C   UNL     1       3.764   2.898   5.875  0.00  0.00    +0.000 C 
ATOM     32  C   UNL     1       4.749   3.559   4.920  0.00  0.00    +0.000 C 
ATOM     33  N   UNL     1       6.129   2.866   4.995  0.00  0.00    +0.000 NA
ATOM     34  C   UNL     1       6.088   1.358   5.216  0.00  0.00    +0.000 C 
ATOM     35  C   UNL     1       5.046   0.737   6.091  0.00  0.00    +0.000 C 
BRANCH  33  36
ATOM     36  C   UNL     1       6.852   3.174   3.705  0.00  0.00    +0.000 C 
BRANCH  36  37
ATOM     37  C   UNL     1       8.194   2.508   3.483  0.00  0.00    +0.000 A 
ATOM     38  C   UNL     1       8.403   1.112   3.265  0.00  0.00    +0.000 A 
ATOM     39  C   UNL     1       7.368   0.052   2.996  0.00  0.00    +0.000 C 
ATOM     40  C   UNL     1       9.683   0.612   3.375  0.00  0.00    +0.000 A 
ATOM     41  C   UNL     1      10.755   1.485   3.484  0.00  0.00    +0.000 A 
ATOM     42  C   UNL     1      12.136   0.944   3.546  0.00  0.00    +0.000 C 
ATOM     43  N   UNL     1      10.584   2.872   3.487  0.00  0.00    +0.000 N 
ATOM     44  O   UNL     1      11.596   3.644   3.519  0.00  0.00    +0.000 OA
ATOM     45  C   UNL     1       9.298   3.384   3.485  0.00  0.00    +0.000 A 
ATOM     46  C   UNL     1       9.107   4.875   3.455  0.00  0.00    +0.000 C 
ENDBRANCH  36  37
ENDBRANCH  33  36
ENDBRANCH  29  30
ENDBRANCH   3  29
TORSDOF 7
