REMARK  Name = CHEMBL281243
REMARK  8 active torsions:
REMARK  status: ('A' for Active; 'I' for Inactive)
REMARK    1  A    between atoms: C_1  and  O_2
REMARK    2  A    between atoms: O_2  and  C_3
REMARK    3  A    between atoms: N_7  and  C_8
REMARK    4  A    between atoms: C_8  and  C_9
REMARK    5  A    between atoms: N_11  and  C_12
REMARK    6  A    between atoms: C_12  and  C_13
REMARK    7  A    between atoms: C_17  and  C_18
REMARK    8  A    between atoms: C_23  and  N_24
REMARK                            x       y       z     vdW  Elec       q    Type
REMARK                         _______ _______ _______ _____ _____    ______ ____
ROOT
ATOM      1  C   UNL     1       0.276  -7.681  -2.525  0.00  0.00    +0.000 A 
ATOM      2  C   UNL     1      -0.886  -7.754  -3.280  0.00  0.00    +0.000 A 
ATOM      3  C   UNL     1      -1.120  -9.143  -3.407  0.00  0.00    +0.000 A 
ATOM      4  C   UNL     1      -1.303 -10.177  -2.437  0.00  0.00    +0.000 A 
ATOM      5  C   UNL     1      -1.037 -11.545  -2.666  0.00  0.00    +0.000 A 
ATOM      6  C   UNL     1      -0.650 -11.891  -3.949  0.00  0.00    +0.000 A 
ATOM      7  C   UNL     1      -0.157 -10.840  -4.766  0.00  0.00    +0.000 A 
ATOM      8  C   UNL     1      -0.022  -9.516  -4.176  0.00  0.00    +0.000 A 
ATOM      9  O   UNL     1       0.992  -8.888  -3.060  0.00  0.00    +0.000 OA
ENDROOT
BRANCH   5  10
ATOM     10  C   UNL     1      -0.970 -12.547  -1.542  0.00  0.00    +0.000 C 
ATOM     11  O   UNL     1      -0.719 -13.722  -1.811  0.00  0.00    +0.000 OA
ATOM     12  N   UNL     1      -1.045 -12.056  -0.219  0.00  0.00    +0.000 N 
ATOM     13  C   UNL     1       0.040 -12.272   0.744  0.00  0.00    +0.000 C 
ATOM     14  C   UNL     1      -0.458 -12.740   2.105  0.00  0.00    +0.000 C 
ATOM     15  C   UNL     1      -1.239 -11.385   2.905  0.00  0.00    +0.000 C 
ATOM     16  C   UNL     1      -2.546 -11.518   1.659  0.00  0.00    +0.000 C 
ATOM     17  C   UNL     1      -2.105 -11.170   0.252  0.00  0.00    +0.000 C 
BRANCH  15  18
ATOM     18  N   UNL     1      -0.025 -10.274   3.831  0.00  0.00    +0.000 N 
ATOM     19  C   UNL     1      -0.190 -11.298   4.819  0.00  0.00    +0.000 C 
ATOM     20  O   UNL     1       0.057 -12.535   4.690  0.00  0.00    +0.000 OA
ATOM     21  O   UNL     1      -0.867 -10.939   5.897  0.00  0.00    +0.000 OA
ATOM     22  C   UNL     1       0.219 -10.487   6.610  0.00  0.00    +0.000 C 
ATOM     23  C   UNL     1       0.024  -9.085   6.266  0.00  0.00    +0.000 A 
ATOM     24  C   UNL     1      -0.784  -7.962   6.459  0.00  0.00    +0.000 A 
ATOM     25  C   UNL     1      -0.237  -6.631   6.487  0.00  0.00    +0.000 A 
ATOM     26  C   UNL     1       1.107  -6.583   6.402  0.00  0.00    +0.000 A 
ATOM     27  C   UNL     1       1.563  -7.832   5.665  0.00  0.00    +0.000 A 
ATOM     28  C   UNL     1       0.474  -8.932   5.048  0.00  0.00    +0.000 A 
ENDBRANCH  15  18
ENDBRANCH   5  10
BRANCH   1  29
ATOM     29  C   UNL     1       0.817  -6.353  -1.923  0.00  0.00    +0.000 C 
BRANCH  29  32
ATOM     30  C   UNL     1       2.014  -4.930  -0.369  0.00  0.00    +0.000 C 
ATOM     31  O   UNL     1       1.713  -4.084  -1.213  0.00  0.00    +0.000 OA
ATOM     32  N   UNL     1       1.608  -6.233  -0.681  0.00  0.00    +0.000 N 
ATOM     33  H   UNL     1       1.989  -7.026  -0.194  0.00  0.00    +0.000 HD
BRANCH  30  34
ATOM     34  C   UNL     1       2.886  -4.618   0.943  0.00  0.00    +0.000 C 
BRANCH  34  39
ATOM     35  C   UNL     1       3.010  -0.777   0.780  0.00  0.00    +0.000 A 
ATOM     36  C   UNL     1       4.025  -0.568   1.632  0.00  0.00    +0.000 A 
ATOM     37  C   UNL     1       4.350  -1.592   2.610  0.00  0.00    +0.000 A 
ATOM     38  C   UNL     1       4.064  -2.881   2.351  0.00  0.00    +0.000 A 
ATOM     39  N   UNL     1       3.254  -3.202   1.260  0.00  0.00    +0.000 N 
ATOM     40  C   UNL     1       2.506  -2.176   0.693  0.00  0.00    +0.000 A 
ATOM     41  O   UNL     1       1.430  -2.349   0.146  0.00  0.00    +0.000 OA
BRANCH  35  43
ATOM     42  C   UNL     1       0.996   0.173  -0.024  0.00  0.00    +0.000 C 
ATOM     43  O   UNL     1       2.442   0.214  -0.015  0.00  0.00    +0.000 OA
ENDBRANCH  35  43
ENDBRANCH  34  39
ENDBRANCH  30  34
ENDBRANCH  29  32
ENDBRANCH   1  29
TORSDOF 7
