REMARK  Name = CHEMBL1094050
REMARK  8 active torsions:
REMARK  status: ('A' for Active; 'I' for Inactive)
REMARK    1  A    between atoms: C_1  and  C_2
REMARK    2  A    between atoms: C_2  and  N_3
REMARK    3  A    between atoms: N_3  and  C_19
REMARK    4  A    between atoms: C_8  and  O_9
REMARK    5  A    between atoms: O_9  and  C_10
REMARK    6  A    between atoms: C_16  and  C_17
REMARK    7  A    between atoms: C_22  and  O_23
REMARK    8  A    between atoms: O_23  and  C_24
REMARK                            x       y       z     vdW  Elec       q    Type
REMARK                         _______ _______ _______ _____ _____    ______ ____
ROOT
ATOM      1  N   UNL     1       2.844  -1.316  -0.206  0.00  0.00    +0.000 N 
ATOM      2  C   UNL     1       1.884  -2.391  -0.321  0.00  0.00    +0.000 C 
ATOM      3  O   UNL     1       2.254  -3.566  -0.487  0.00  0.00    +0.000 OA
ATOM      4  N   UNL     1       0.526  -2.119  -0.061  0.00  0.00    +0.000 N 
ATOM      5  C   UNL     1      -0.600  -3.001   0.291  0.00  0.00    +0.000 C 
ATOM      6  C   UNL     1      -1.446  -2.364  -0.861  0.00  0.00    +0.000 C 
ATOM      7  C   UNL     1      -0.409  -1.278  -0.802  0.00  0.00    +0.000 C 
ENDROOT
BRANCH   1   8
ATOM      8  C   UNL     1       4.289  -1.609  -0.252  0.00  0.00    +0.000 A 
ATOM      9  C   UNL     1       5.185  -1.010   0.653  0.00  0.00    +0.000 A 
ATOM     10  C   UNL     1       6.564  -1.258   0.611  0.00  0.00    +0.000 A 
ATOM     11  C   UNL     1       7.064  -2.090  -0.369  0.00  0.00    +0.000 A 
ATOM     12  N   UNL     1       6.250  -2.651  -1.293  0.00  0.00    +0.000 NA
ATOM     13  C   UNL     1       4.897  -2.418  -1.206  0.00  0.00    +0.000 A 
BRANCH  11  14
ATOM     14  O   UNL     1       8.387  -2.427  -0.500  0.00  0.00    +0.000 OA
ATOM     15  C   UNL     1       9.288  -1.916   0.479  0.00  0.00    +0.000 C 
ENDBRANCH  11  14
ENDBRANCH   1   8
BRANCH   1  17
ATOM     16  C   UNL     1       1.208   0.584   0.203  0.00  0.00    +0.000 C 
ATOM     17  C   UNL     1       2.616   0.124   0.128  0.00  0.00    +0.000 C 
ENDBRANCH   1  17
BRANCH   6  18
ATOM     18  O   UNL     1      -1.610  -3.041  -2.135  0.00  0.00    +0.000 OA
BRANCH  18  19
ATOM     19  C   UNL     1      -2.382  -2.443  -3.127  0.00  0.00    +0.000 A 
ATOM     20  C   UNL     1      -3.470  -3.207  -3.580  0.00  0.00    +0.000 A 
ATOM     21  C   UNL     1      -4.179  -2.832  -4.732  0.00  0.00    +0.000 A 
ATOM     22  C   UNL     1      -3.790  -1.713  -5.448  0.00  0.00    +0.000 A 
ATOM     23  F   UNL     1      -4.413  -1.377  -6.584  0.00  0.00    +0.000 F 
ATOM     24  C   UNL     1      -2.750  -0.928  -5.003  0.00  0.00    +0.000 A 
ATOM     25  C   UNL     1      -2.050  -1.264  -3.834  0.00  0.00    +0.000 A 
ATOM     26  C   UNL     1      -0.991  -0.280  -3.481  0.00  0.00    +0.000 C 
ENDBRANCH  18  19
ENDBRANCH   6  18
TORSDOF 5
