REMARK  Name = CHEMBL592250
REMARK  6 active torsions:
REMARK  status: ('A' for Active; 'I' for Inactive)
REMARK    1  A    between atoms: C_1  and  O_2
REMARK    2  A    between atoms: O_2  and  C_3
REMARK    3  A    between atoms: C_6  and  N_7
REMARK    4  A    between atoms: C_8  and  C_9
REMARK    5  A    between atoms: C_16  and  O_17
REMARK    6  A    between atoms: O_17  and  C_18
REMARK                            x       y       z     vdW  Elec       q    Type
REMARK                         _______ _______ _______ _____ _____    ______ ____
ROOT
ATOM      1  N   UNL     1       5.251  -2.126  -4.473  0.00  0.00    +0.000 N 
ATOM      2  C   UNL     1       5.535  -3.455  -4.810  0.00  0.00    +0.000 A 
ATOM      3  C   UNL     1       5.025  -4.719  -4.201  0.00  0.00    +0.000 C 
ATOM      4  N   UNL     1       6.273  -3.464  -5.905  0.00  0.00    +0.000 NA
ATOM      5  N   UNL     1       6.456  -2.179  -6.324  0.00  0.00    +0.000 NA
ATOM      6  C   UNL     1       5.876  -1.357  -5.467  0.00  0.00    +0.000 A 
ATOM      7  N   UNL     1       5.768  -0.004  -5.593  0.00  0.00    +0.000 N 
ATOM      8  C   UNL     1       5.352   0.531  -6.879  0.00  0.00    +0.000 C 
ATOM      9  C   UNL     1       6.495   1.291  -7.540  0.00  0.00    +0.000 C 
ATOM     10  C   UNL     1       6.928   2.468  -6.659  0.00  0.00    +0.000 C 
ATOM     11  C   UNL     1       7.391   1.868  -5.309  0.00  0.00    +0.000 C 
ATOM     12  C   UNL     1       6.316   0.975  -4.650  0.00  0.00    +0.000 C 
ENDROOT
BRANCH   1  16
ATOM     13  C   UNL     1       3.137  -0.517  -1.256  0.00  0.00    +0.000 A 
ATOM     14  C   UNL     1       2.800  -0.095  -2.533  0.00  0.00    +0.000 A 
ATOM     15  C   UNL     1       3.472  -0.656  -3.624  0.00  0.00    +0.000 A 
ATOM     16  C   UNL     1       4.461  -1.620  -3.408  0.00  0.00    +0.000 A 
ATOM     17  C   UNL     1       4.757  -1.955  -2.098  0.00  0.00    +0.000 A 
ATOM     18  N   UNL     1       4.118  -1.419  -1.023  0.00  0.00    +0.000 NA
BRANCH  13  20
ATOM     19  C   UNL     1       1.149   0.013  -0.131  0.00  0.00    +0.000 C 
ATOM     20  O   UNL     1       2.575   0.027  -0.130  0.00  0.00    +0.000 OA
ENDBRANCH  13  20
ENDBRANCH   1  16
BRANCH  10  21
ATOM     21  O   UNL     1       5.890   3.444  -6.388  0.00  0.00    +0.000 OA
BRANCH  21  22
ATOM     22  C   UNL     1       5.425   4.159  -7.464  0.00  0.00    +0.000 A 
ATOM     23  C   UNL     1       5.597   5.543  -7.491  0.00  0.00    +0.000 A 
ATOM     24  C   UNL     1       4.999   6.305  -8.506  0.00  0.00    +0.000 A 
ATOM     25  C   UNL     1       4.281   5.684  -9.529  0.00  0.00    +0.000 A 
ATOM     26  C   UNL     1       4.093   4.311  -9.496  0.00  0.00    +0.000 A 
ATOM     27  C   UNL     1       4.614   3.571  -8.437  0.00  0.00    +0.000 A 
ENDBRANCH  21  22
ENDBRANCH  10  21
TORSDOF 4
