REMARK  Name = CHEMBL2370342
REMARK  43 active torsions:
REMARK  status: ('A' for Active; 'I' for Inactive)
REMARK    1  A    between atoms: C_1  and  C_2
REMARK    2  A    between atoms: C_2  and  C_3
REMARK    3  A    between atoms: C_3  and  C_4
REMARK    4  A    between atoms: C_3  and  C_5
REMARK    5  A    between atoms: C_5  and  N_6
REMARK    6  A    between atoms: C_5  and  C_34
REMARK    7  A    between atoms: C_7  and  C_9
REMARK    8  A    between atoms: C_9  and  C_10
REMARK    9  A    between atoms: C_9  and  N_18
REMARK   10  A    between atoms: C_10  and  C_11
REMARK   11  A    between atoms: C_14  and  O_15
REMARK   12  A    between atoms: C_19  and  C_21
REMARK   13  A    between atoms: C_21  and  C_22
REMARK   14  A    between atoms: C_22  and  S_23
REMARK   15  A    between atoms: S_23  and  C_24
REMARK   16  A    between atoms: C_24  and  C_25
REMARK   17  A    between atoms: C_25  and  C_26
REMARK   18  A    between atoms: N_36  and  C_37
REMARK   19  A    between atoms: C_37  and  C_38
REMARK   20  A    between atoms: C_37  and  C_82
REMARK   21  A    between atoms: N_40  and  C_41
REMARK   22  A    between atoms: C_41  and  C_42
REMARK   23  A    between atoms: C_41  and  C_46
REMARK   24  A    between atoms: C_42  and  C_43
REMARK   25  A    between atoms: N_48  and  C_49
REMARK   26  A    between atoms: C_49  and  C_50
REMARK   27  A    between atoms: C_49  and  C_52
REMARK   28  A    between atoms: C_50  and  S_51
REMARK   29  A    between atoms: N_54  and  C_55
REMARK   30  A    between atoms: C_55  and  C_56
REMARK   31  A    between atoms: N_58  and  C_59
REMARK   32  A    between atoms: C_59  and  C_60
REMARK   33  A    between atoms: C_59  and  C_64
REMARK   34  A    between atoms: C_60  and  C_61
REMARK   35  A    between atoms: C_61  and  C_62
REMARK   36  A    between atoms: C_62  and  N_63
REMARK   37  A    between atoms: N_66  and  C_67
REMARK   38  A    between atoms: C_67  and  C_68
REMARK   39  A    between atoms: C_67  and  C_79
REMARK   40  A    between atoms: C_68  and  C_69
REMARK   41  A    between atoms: C_72  and  N_73
REMARK   42  A    between atoms: C_82  and  C_83
REMARK   43  A    between atoms: C_82  and  O_84
REMARK                            x       y       z     vdW  Elec       q    Type
REMARK                         _______ _______ _______ _____ _____    ______ ____
ROOT
ATOM      1  C   UNL     1      11.995   7.017  -3.888  0.00  0.00    +0.000 C 
ENDROOT
BRANCH   1   4
ATOM      2  C   UNL     1      11.308   7.119  -6.449  0.00  0.00    +0.000 C 
ATOM      3  O   UNL     1      11.882   6.056  -6.736  0.00  0.00    +0.000 OA
ATOM      4  N   UNL     1      11.563   7.683  -5.201  0.00  0.00    +0.000 N 
ATOM      5  H   UNL     1      11.127   8.566  -4.966  0.00  0.00    +0.000 HD
BRANCH   2   6
ATOM      6  C   UNL     1      10.219   7.717  -7.534  0.00  0.00    +0.000 C 
BRANCH   6   9
ATOM      7  C   UNL     1       7.725   6.746  -7.640  0.00  0.00    +0.000 C 
ATOM      8  O   UNL     1       6.840   6.613  -8.484  0.00  0.00    +0.000 OA
ATOM      9  N   UNL     1       9.016   6.969  -8.082  0.00  0.00    +0.000 N 
ATOM     10  H   UNL     1       8.985   6.876  -9.092  0.00  0.00    +0.000 HD
BRANCH   7  11
ATOM     11  C   UNL     1       7.468   6.557  -6.141  0.00  0.00    +0.000 C 
BRANCH  11  12
ATOM     12  N   UNL     1       6.294   5.930  -5.636  0.00  0.00    +0.000 N 
ATOM     13  C   UNL     1       5.943   4.717  -6.187  0.00  0.00    +0.000 C 
ATOM     14  O   UNL     1       6.308   4.307  -7.285  0.00  0.00    +0.000 OA
ATOM     15  H   UNL     1       6.047   6.130  -4.669  0.00  0.00    +0.000 HD
BRANCH  13  16
ATOM     16  C   UNL     1       4.948   3.938  -5.374  0.00  0.00    +0.000 C 
BRANCH  16  17
ATOM     17  N   UNL     1       3.766   3.887  -6.230  0.00  0.00    +0.000 N 
ATOM     18  C   UNL     1       3.304   5.121  -6.643  0.00  0.00    +0.000 C 
ATOM     19  O   UNL     1       3.732   6.144  -6.119  0.00  0.00    +0.000 OA
ATOM     20  H   UNL     1       3.706   3.122  -6.890  0.00  0.00    +0.000 HD
BRANCH  18  21
ATOM     21  C   UNL     1       2.238   5.112  -7.710  0.00  0.00    +0.000 C 
BRANCH  21  22
ATOM     22  C   UNL     1       1.636   6.540  -7.971  0.00  0.00    +0.000 C 
ATOM     23  C   UNL     1       0.308   6.329  -8.738  0.00  0.00    +0.000 C 
ATOM     24  C   UNL     1      -0.595   7.556  -8.805  0.00  0.00    +0.000 C 
ATOM     25  C   UNL     1      -0.801   8.238  -7.456  0.00  0.00    +0.000 C 
ATOM     26  C   UNL     1       0.452   8.437  -6.634  0.00  0.00    +0.000 C 
ATOM     27  C   UNL     1       1.320   7.207  -6.604  0.00  0.00    +0.000 C 
BRANCH  22  28
ATOM     28  S   UNL     1       2.908   7.452  -9.051  0.00  0.00    +0.000 S 
BRANCH  28  29
ATOM     29  C   UNL     1       2.270   9.142  -9.248  0.00  0.00    +0.000 C 
BRANCH  29  30
ATOM     30  C   UNL     1       3.125  10.102 -10.041  0.00  0.00    +0.000 C 
BRANCH  30  31
ATOM     31  C   UNL     1       2.465  11.474 -10.192  0.00  0.00    +0.000 C 
ATOM     32  N   UNL     1       1.232  11.704  -9.651  0.00  0.00    +0.000 N 
ATOM     33  O   UNL     1       3.018  12.390 -10.799  0.00  0.00    +0.000 OA
ATOM     34  H   UNL     1       0.676  11.049  -9.120  0.00  0.00    +0.000 HD
ATOM     35  H   UNL     1       0.842  12.630  -9.779  0.00  0.00    +0.000 HD
ENDBRANCH  30  31
ENDBRANCH  29  30
ENDBRANCH  28  29
ENDBRANCH  22  28
ENDBRANCH  21  22
ENDBRANCH  18  21
ENDBRANCH  16  17
BRANCH  16  36
ATOM     36  C   UNL     1       5.521   2.552  -5.060  0.00  0.00    +0.000 C 
BRANCH  36  37
ATOM     37  C   UNL     1       4.977   1.934  -3.807  0.00  0.00    +0.000 A 
ATOM     38  C   UNL     1       3.965   2.560  -3.071  0.00  0.00    +0.000 A 
ATOM     39  C   UNL     1       3.438   1.971  -1.941  0.00  0.00    +0.000 A 
ATOM     40  C   UNL     1       3.915   0.733  -1.548  0.00  0.00    +0.000 A 
ATOM     41  C   UNL     1       4.945   0.102  -2.238  0.00  0.00    +0.000 A 
ATOM     42  C   UNL     1       5.491   0.707  -3.366  0.00  0.00    +0.000 A 
BRANCH  40  43
ATOM     43  O   UNL     1       3.366   0.097  -0.477  0.00  0.00    +0.000 OA
ATOM     44  H   UNL     1       2.635   0.648  -0.153  0.00  0.00    +0.000 HD
ENDBRANCH  40  43
ENDBRANCH  36  37
ENDBRANCH  16  36
ENDBRANCH  13  16
ENDBRANCH  11  12
BRANCH  11  45
ATOM     45  C   UNL     1       8.561   5.740  -5.509  0.00  0.00    +0.000 C 
ATOM     46  C   UNL     1       9.168   6.819  -4.670  0.00  0.00    +0.000 C 
BRANCH  45  48
ATOM     47  C   UNL     1       8.826   3.303  -6.136  0.00  0.00    +0.000 C 
ATOM     48  C   UNL     1       9.250   4.699  -6.524  0.00  0.00    +0.000 C 
ENDBRANCH  45  48
ENDBRANCH  11  45
ENDBRANCH   7  11
ENDBRANCH   6   9
BRANCH   6  49
ATOM     49  C   UNL     1       9.812   9.188  -7.406  0.00  0.00    +0.000 C 
ATOM     50  C   UNL     1      10.955  10.087  -7.009  0.00  0.00    +0.000 C 
BRANCH  49  51
ATOM     51  O   UNL     1       9.341   9.668  -8.680  0.00  0.00    +0.000 OA
ATOM     52  H   UNL     1      10.030   9.510  -9.349  0.00  0.00    +0.000 HD
ENDBRANCH  49  51
ENDBRANCH   6  49
ENDBRANCH   2   6
ENDBRANCH   1   4
BRANCH   1  53
ATOM     53  C   UNL     1      12.351   8.169  -2.943  0.00  0.00    +0.000 C 
ATOM     54  O   UNL     1      12.489   9.312  -3.377  0.00  0.00    +0.000 OA
ATOM     55  N   UNL     1      12.352   7.880  -1.597  0.00  0.00    +0.000 N 
ATOM     56  H   UNL     1      12.245   6.925  -1.252  0.00  0.00    +0.000 HD
BRANCH  55  57
ATOM     57  C   UNL     1      12.689   8.894  -0.590  0.00  0.00    +0.000 C 
BRANCH  57  58
ATOM     58  C   UNL     1      13.047   8.136   0.731  0.00  0.00    +0.000 C 
ATOM     59  O   UNL     1      12.914   6.914   0.824  0.00  0.00    +0.000 OA
ATOM     60  N   UNL     1      13.523   8.894   1.777  0.00  0.00    +0.000 N 
ATOM     61  H   UNL     1      13.695   9.891   1.667  0.00  0.00    +0.000 HD
BRANCH  60  62
ATOM     62  C   UNL     1      13.958   8.316   3.061  0.00  0.00    +0.000 C 
BRANCH  62  63
ATOM     63  C   UNL     1      14.665   9.403   3.895  0.00  0.00    +0.000 C 
ATOM     64  O   UNL     1      15.055  10.437   3.345  0.00  0.00    +0.000 OA
ATOM     65  N   UNL     1      14.809   9.183   5.253  0.00  0.00    +0.000 N 
ATOM     66  H   UNL     1      14.668   8.252   5.641  0.00  0.00    +0.000 HD
BRANCH  65  67
ATOM     67  C   UNL     1      15.234  10.224   6.232  0.00  0.00    +0.000 C 
BRANCH  67  68
ATOM     68  C   UNL     1      15.449   9.577   7.609  0.00  0.00    +0.000 C 
ATOM     69  O   UNL     1      14.887   8.511   7.843  0.00  0.00    +0.000 OA
ATOM     70  N   UNL     1      16.158  10.307   8.553  0.00  0.00    +0.000 N 
ATOM     71  H   UNL     1      16.280  11.290   8.385  0.00  0.00    +0.000 HD
BRANCH  70  72
ATOM     72  C   UNL     1      16.512   9.781   9.897  0.00  0.00    +0.000 C 
BRANCH  72  73
ATOM     73  C   UNL     1      16.984  10.850  10.926  0.00  0.00    +0.000 C 
ATOM     74  N   UNL     1      17.026  12.161  10.548  0.00  0.00    +0.000 N 
ATOM     75  O   UNL     1      17.326  10.564  12.072  0.00  0.00    +0.000 OA
ATOM     76  H   UNL     1      16.759  12.541   9.659  0.00  0.00    +0.000 HD
ATOM     77  H   UNL     1      17.348  12.821  11.249  0.00  0.00    +0.000 HD
ENDBRANCH  72  73
BRANCH  72  78
ATOM     78  C   UNL     1      17.639   8.709   9.819  0.00  0.00    +0.000 C 
BRANCH  78  79
ATOM     79  C   UNL     1      17.277   7.508   8.974  0.00  0.00    +0.000 A 
ATOM     80  C   UNL     1      17.856   7.302   7.723  0.00  0.00    +0.000 A 
ATOM     81  C   UNL     1      17.313   6.344   6.857  0.00  0.00    +0.000 A 
ATOM     82  C   UNL     1      16.188   5.553   7.194  0.00  0.00    +0.000 A 
ATOM     83  C   UNL     1      15.642   5.743   8.481  0.00  0.00    +0.000 A 
ATOM     84  I   UNL     1      13.890   4.869   9.276  0.00  0.00    +0.000 I 
ATOM     85  C   UNL     1      16.201   6.696   9.357  0.00  0.00    +0.000 A 
BRANCH  82  86
ATOM     86  N   UNL     1      15.765   4.720   6.133  0.00  0.00    +0.000 NA
ATOM     87  N   UNL     1      14.818   3.937   6.297  0.00  0.00    +0.000 NA
ATOM     88  N   UNL     1      13.951   3.198   6.368  0.00  0.00    +0.000 NA
ENDBRANCH  82  86
ENDBRANCH  78  79
ENDBRANCH  72  78
ENDBRANCH  70  72
ENDBRANCH  67  68
BRANCH  67  89
ATOM     89  C   UNL     1      14.128  11.254   6.512  0.00  0.00    +0.000 C 
BRANCH  89  90
ATOM     90  C   UNL     1      13.675  11.945   5.251  0.00  0.00    +0.000 C 
BRANCH  90  91
ATOM     91  C   UNL     1      12.601  12.978   5.469  0.00  0.00    +0.000 C 
BRANCH  91  92
ATOM     92  N   UNL     1      12.267  13.508   4.156  0.00  0.00    +0.000 NA
ATOM     93  H   UNL     1      13.093  13.925   3.728  0.00  0.00    +0.000 HD
ATOM     94  H   UNL     1      11.564  14.236   4.237  0.00  0.00    +0.000 HD
ENDBRANCH  91  92
ENDBRANCH  90  91
ENDBRANCH  89  90
ENDBRANCH  67  89
ENDBRANCH  65  67
ENDBRANCH  62  63
ENDBRANCH  60  62
ENDBRANCH  57  58
BRANCH  57  95
ATOM     95  C   UNL     1      11.561   9.912  -0.306  0.00  0.00    +0.000 C 
BRANCH  95  96
ATOM     96  S   UNL     1      10.948  11.028  -1.621  0.00  0.00    +0.000 S 
ATOM     97  H   UNL     1      12.058  11.028  -2.385  0.00  0.00    +0.000 HD
ENDBRANCH  95  96
ENDBRANCH  57  95
ENDBRANCH  55  57
ENDBRANCH   1  53
BRANCH   1  98
ATOM     98  C   UNL     1      12.974   5.866  -3.958  0.00  0.00    +0.000 C 
BRANCH  98  99
ATOM     99  C   UNL     1      12.588   4.574  -4.654  0.00  0.00    +0.000 C 
ATOM    100  N   UNL     1      11.312   4.158  -4.524  0.00  0.00    +0.000 N 
ATOM    101  O   UNL     1      13.373   3.857  -5.260  0.00  0.00    +0.000 OA
ATOM    102  H   UNL     1      10.735   4.880  -4.903  0.00  0.00    +0.000 HD
ATOM    103  H   UNL     1      11.166   3.343  -5.116  0.00  0.00    +0.000 HD
ENDBRANCH  98  99
ENDBRANCH   1  98
TORSDOF 40
