REMARK  Name = CHEMBL592493
REMARK  7 active torsions:
REMARK  status: ('A' for Active; 'I' for Inactive)
REMARK    1  A    between atoms: C_1  and  O_2
REMARK    2  A    between atoms: O_2  and  C_3
REMARK    3  A    between atoms: C_6  and  N_7
REMARK    4  A    between atoms: C_8  and  C_9
REMARK    5  A    between atoms: C_16  and  O_17
REMARK    6  A    between atoms: O_17  and  C_18
REMARK    7  A    between atoms: C_23  and  C_24
REMARK                            x       y       z     vdW  Elec       q    Type
REMARK                         _______ _______ _______ _____ _____    ______ ____
ROOT
ATOM      1  N   UNL     1       5.018   4.170  -2.630  0.00  0.00    +0.000 N 
ATOM      2  C   UNL     1       5.192   4.309  -4.013  0.00  0.00    +0.000 A 
ATOM      3  C   UNL     1       4.679   3.437  -5.108  0.00  0.00    +0.000 C 
ATOM      4  N   UNL     1       5.815   5.438  -4.261  0.00  0.00    +0.000 NA
ATOM      5  N   UNL     1       6.056   6.065  -3.071  0.00  0.00    +0.000 NA
ATOM      6  C   UNL     1       5.651   5.300  -2.095  0.00  0.00    +0.000 A 
ATOM      7  N   UNL     1       5.745   5.606  -0.762  0.00  0.00    +0.000 N 
ATOM      8  C   UNL     1       5.375   6.939  -0.361  0.00  0.00    +0.000 C 
ATOM      9  C   UNL     1       6.566   7.691   0.252  0.00  0.00    +0.000 C 
ATOM     10  C   UNL     1       7.008   6.969   1.519  0.00  0.00    +0.000 C 
ATOM     11  C   UNL     1       7.427   5.551   1.034  0.00  0.00    +0.000 C 
ATOM     12  C   UNL     1       6.293   4.786   0.305  0.00  0.00    +0.000 C 
ENDROOT
BRANCH   1  16
ATOM     13  C   UNL     1       3.074   1.088  -0.604  0.00  0.00    +0.000 A 
ATOM     14  C   UNL     1       2.694   2.393  -0.318  0.00  0.00    +0.000 A 
ATOM     15  C   UNL     1       3.323   3.447  -0.992  0.00  0.00    +0.000 A 
ATOM     16  C   UNL     1       4.316   3.159  -1.935  0.00  0.00    +0.000 A 
ATOM     17  C   UNL     1       4.658   1.830  -2.124  0.00  0.00    +0.000 A 
ATOM     18  N   UNL     1       4.064   0.796  -1.476  0.00  0.00    +0.000 NA
BRANCH  13  20
ATOM     19  C   UNL     1       1.110  -0.014   0.049  0.00  0.00    +0.000 C 
ATOM     20  O   UNL     1       2.536   0.003   0.039  0.00  0.00    +0.000 OA
ENDBRANCH  13  20
ENDBRANCH   1  16
BRANCH  10  21
ATOM     21  O   UNL     1       5.963   6.896   2.538  0.00  0.00    +0.000 OA
BRANCH  21  22
ATOM     22  C   UNL     1       5.579   8.088   3.132  0.00  0.00    +0.000 A 
ATOM     23  C   UNL     1       5.957   8.316   4.470  0.00  0.00    +0.000 A 
ATOM     24  C   UNL     1       5.537   9.475   5.152  0.00  0.00    +0.000 A 
ATOM     25  C   UNL     1       4.766  10.432   4.504  0.00  0.00    +0.000 A 
ATOM     26  C   UNL     1       4.349  10.193   3.210  0.00  0.00    +0.000 A 
ATOM     27  C   UNL     1       4.671   9.000   2.547  0.00  0.00    +0.000 A 
ATOM     28  C   UNL     1       3.886   8.821   1.284  0.00  0.00    +0.000 C 
ENDBRANCH  21  22
ENDBRANCH  10  21
TORSDOF 4
