REMARK  Name = CHEMBL371008
REMARK  13 active torsions:
REMARK  status: ('A' for Active; 'I' for Inactive)
REMARK    1  A    between atoms: C_1  and  C_2
REMARK    2  A    between atoms: N_4  and  C_5
REMARK    3  A    between atoms: C_8  and  C_9
REMARK    4  A    between atoms: C_9  and  C_10
REMARK    5  A    between atoms: C_9  and  N_16
REMARK    6  A    between atoms: N_12  and  C_13
REMARK    7  A    between atoms: C_13  and  C_14
REMARK    8  A    between atoms: C_13  and  C_15
REMARK    9  A    between atoms: C_19  and  C_20
REMARK   10  A    between atoms: CA_32  and  CB_33
REMARK   11  A    between atoms: CB_33  and  CG_34
REMARK   12  A    between atoms: CG_34  and  CD1_35
REMARK   13  A    between atoms: CG_34  and  CD2_36
REMARK                            x       y       z     vdW  Elec       q    Type
REMARK                         _______ _______ _______ _____ _____    ______ ____
ROOT
ATOM      1  N   LEU A   1       9.717   1.077  -0.201  0.00  0.00    +0.000 N 
ATOM      2  C   UNK A   2       9.320   2.322  -0.722  0.00  0.00    +0.000 C 
ATOM      3  O   UNK A   2       8.667   3.057  -0.006  0.00  0.00    +0.000 OA
ATOM      4  C   UNK A   2       9.725   2.642  -2.272  0.00  0.00    +0.000 C 
ATOM      5  N   UNK A   2      11.112   2.218  -2.367  0.00  0.00    +0.000 N 
ATOM      6  C   LEU A   1      11.473   0.953  -1.961  0.00  0.00    +0.000 C 
ATOM      7  O   LEU A   1      12.555   0.504  -2.249  0.00  0.00    +0.000 OA
ATOM      8  CA  LEU A   1      10.332   0.199  -1.222  0.00  0.00    +0.000 C 
ATOM      9  H   UNK A   2      11.821   2.694  -2.911  0.00  0.00    +0.000 HD
ENDROOT
BRANCH   4  10
ATOM     10  C   UNK A   2       9.572   4.142  -2.555  0.00  0.00    +0.000 C 
ATOM     11  C   UNK A   2       8.235   4.599  -2.084  0.00  0.00    +0.000 C 
ATOM     12  C   UNK A   2       8.434   6.045  -2.392  0.00  0.00    +0.000 A 
ATOM     13  C   UNK A   2       9.537   6.909  -2.128  0.00  0.00    +0.000 A 
ATOM     14  C   UNK A   2       9.514   8.211  -2.602  0.00  0.00    +0.000 A 
ATOM     15  C   UNK A   2       8.398   8.516  -3.313  0.00  0.00    +0.000 A 
ATOM     16  C   UNK A   2       7.742   7.400  -3.893  0.00  0.00    +0.000 A 
ATOM     17  C   UNK A   2       8.181   6.077  -3.707  0.00  0.00    +0.000 A 
ATOM     18  C   UNK A   2       9.441   4.954  -4.011  0.00  0.00    +0.000 C 
ENDBRANCH   4  10
BRANCH   1  19
ATOM     19  C   UNK A   0       9.130   0.738   1.222  0.00  0.00    +0.000 C 
BRANCH  19  23
ATOM     20  C   UNK A   0      10.556  -3.146   3.031  0.00  0.00    +0.000 A 
ATOM     21  C   UNK A   0      11.452  -2.035   2.861  0.00  0.00    +0.000 A 
ATOM     22  C   UNK A   0      10.972  -0.711   2.483  0.00  0.00    +0.000 A 
ATOM     23  C   UNK A   0       9.618  -0.497   2.106  0.00  0.00    +0.000 A 
ATOM     24  C   UNK A   0       8.737  -1.569   2.417  0.00  0.00    +0.000 A 
ATOM     25  C   UNK A   0       9.190  -2.851   2.867  0.00  0.00    +0.000 A 
BRANCH  20  29
ATOM     26  C   UNK A   0      11.006  -6.960   2.628  0.00  0.00    +0.000 C 
ATOM     27  C   UNK A   0      10.371  -5.614   2.349  0.00  0.00    +0.000 C 
ATOM     28  O   UNK A   0       9.347  -5.594   1.678  0.00  0.00    +0.000 OA
ATOM     29  N   UNK A   0      11.043  -4.517   2.939  0.00  0.00    +0.000 N 
ATOM     30  H   UNK A   0      12.031  -4.660   3.108  0.00  0.00    +0.000 HD
ENDBRANCH  20  29
ENDBRANCH  19  23
BRANCH  19  31
ATOM     31  C   UNK A   0       7.547   0.773   1.088  0.00  0.00    +0.000 C 
ATOM     32  O   UNK A   0       6.968   0.382   0.071  0.00  0.00    +0.000 OA
ATOM     33  N   UNK A   0       6.852   1.227   2.209  0.00  0.00    +0.000 N 
ATOM     34  H   UNK A   0       7.373   1.655   2.964  0.00  0.00    +0.000 HD
BRANCH  33  35
ATOM     35  C   UNK A   0       5.387   1.274   2.260  0.00  0.00    +0.000 C 
ATOM     36  C   UNK A   0       4.803  -0.135   2.153  0.00  0.00    +0.000 C 
ATOM     37  C   UNK A   0       4.890   1.914   3.561  0.00  0.00    +0.000 C 
ENDBRANCH  33  35
ENDBRANCH  19  31
ENDBRANCH   1  19
BRANCH   8  38
ATOM     38  CB  LEU A   1      10.990  -0.995  -0.652  0.00  0.00    +0.000 C 
BRANCH  38  39
ATOM     39  CG  LEU A   1       9.971  -2.108  -0.599  0.00  0.00    +0.000 C 
ATOM     40  CD1 LEU A   1       9.635  -2.809  -1.863  0.00  0.00    +0.000 C 
ATOM     41  CD2 LEU A   1      10.583  -3.186   0.191  0.00  0.00    +0.000 C 
ENDBRANCH  38  39
ENDBRANCH   8  38
TORSDOF 8
