REMARK  Name = CHEMBL2035009
REMARK  11 active torsions:
REMARK  status: ('A' for Active; 'I' for Inactive)
REMARK    1  A    between atoms: CD1_1  and  CG_2
REMARK    2  A    between atoms: CG_2  and  CD2_3
REMARK    3  A    between atoms: CG_2  and  CB_4
REMARK    4  A    between atoms: CB_4  and  CA_5
REMARK    5  A    between atoms: C_9  and  C_10
REMARK    6  A    between atoms: N_21  and  C_22
REMARK    7  A    between atoms: C_22  and  C_23
REMARK    8  A    between atoms: C_22  and  C_29
REMARK    9  A    between atoms: N_25  and  C_26
REMARK   10  A    between atoms: C_26  and  C_27
REMARK   11  A    between atoms: C_26  and  C_28
REMARK                            x       y       z     vdW  Elec       q    Type
REMARK                         _______ _______ _______ _____ _____    ______ ____
ROOT
ATOM      1  CA  LEU A   2       4.617  -0.494  -1.189  0.00  0.00    +0.000 C 
ATOM      2  C   LEU A   2       5.105   0.680  -0.317  0.00  0.00    +0.000 C 
ATOM      3  O   LEU A   2       4.610   1.239   0.624  0.00  0.00    +0.000 OA
ATOM      4  N   UNK A   1       6.343   1.059  -0.607  0.00  0.00    +0.000 N 
ATOM      5  C   UNK A   1       7.170   0.411  -1.565  0.00  0.00    +0.000 C 
ATOM      6  C   UNK A   1       6.346   0.206  -2.832  0.00  0.00    +0.000 C 
ATOM      7  O   UNK A   1       6.918   0.376  -3.901  0.00  0.00    +0.000 OA
ATOM      8  N   LEU A   2       5.010  -0.214  -2.638  0.00  0.00    +0.000 N 
ATOM      9  H   UNK A   1       6.626   1.777   0.040  0.00  0.00    +0.000 HD
ENDROOT
BRANCH   5  10
ATOM     10  C   UNK A   1       8.376   1.307  -1.889  0.00  0.00    +0.000 C 
ATOM     11  C   UNK A   1       9.166   1.562  -0.593  0.00  0.00    +0.000 C 
ATOM     12  C   UNK A   1       8.513   2.822  -0.089  0.00  0.00    +0.000 A 
ATOM     13  C   UNK A   1       8.366   3.218   1.230  0.00  0.00    +0.000 A 
ATOM     14  C   UNK A   1       7.541   4.312   1.505  0.00  0.00    +0.000 A 
ATOM     15  C   UNK A   1       6.859   4.979   0.474  0.00  0.00    +0.000 A 
ATOM     16  C   UNK A   1       6.972   4.549  -0.849  0.00  0.00    +0.000 A 
ATOM     17  C   UNK A   1       7.803   3.472  -1.116  0.00  0.00    +0.000 A 
ATOM     18  C   UNK A   1       7.937   2.715  -2.405  0.00  0.00    +0.000 C 
ENDBRANCH   5  10
BRANCH   1  19
ATOM     19  CB  LEU A   2       3.143  -0.527  -0.971  0.00  0.00    +0.000 C 
BRANCH  19  21
ATOM     20  CD1 LEU A   2       1.000  -0.451   0.332  0.00  0.00    +0.000 C 
ATOM     21  CG  LEU A   2       2.487  -0.246   0.372  0.00  0.00    +0.000 C 
ATOM     22  CD2 LEU A   2       3.067  -1.089   1.454  0.00  0.00    +0.000 C 
ENDBRANCH  19  21
ENDBRANCH   1  19
BRANCH   8  23
ATOM     23  C   UNK A   0       4.026  -0.353  -3.828  0.00  0.00    +0.000 C 
BRANCH  23  24
ATOM     24  C   UNK A   0       4.752  -0.310  -5.229  0.00  0.00    +0.000 A 
ATOM     25  C   UNK A   0       4.537   0.751  -6.141  0.00  0.00    +0.000 A 
ATOM     26  C   UNK A   0       5.336   0.995  -7.255  0.00  0.00    +0.000 A 
ATOM     27  C   UNK A   0       6.424   0.188  -7.500  0.00  0.00    +0.000 A 
ATOM     28  C   UNK A   0       6.659  -0.903  -6.663  0.00  0.00    +0.000 A 
ATOM     29  C   UNK A   0       5.800  -1.195  -5.579  0.00  0.00    +0.000 A 
ATOM     30 CL   UNK A   0       6.221  -2.575  -4.610  0.00  0.00    +0.000 Cl
ENDBRANCH  23  24
BRANCH  23  31
ATOM     31  C   UNK A   0       2.795   0.734  -3.767  0.00  0.00    +0.000 C 
ATOM     32  O   UNK A   0       2.824   1.822  -4.346  0.00  0.00    +0.000 OA
ATOM     33  N   UNK A   0       1.682   0.547  -2.949  0.00  0.00    +0.000 N 
ATOM     34  H   UNK A   0       1.450  -0.349  -2.547  0.00  0.00    +0.000 HD
BRANCH  33  35
ATOM     35  C   UNK A   0       0.753   1.671  -2.737  0.00  0.00    +0.000 C 
ATOM     36  C   UNK A   0      -0.215   1.535  -3.877  0.00  0.00    +0.000 C 
ATOM     37  C   UNK A   0      -0.067   1.716  -1.443  0.00  0.00    +0.000 C 
ENDBRANCH  33  35
ENDBRANCH  23  31
ENDBRANCH   8  23
TORSDOF 7
