REMARK  Name = CHEMBL2037494
REMARK  9 active torsions:
REMARK  status: ('A' for Active; 'I' for Inactive)
REMARK    1  A    between atoms: C_1  and  C_2
REMARK    2  A    between atoms: C_5  and  C_6
REMARK    3  A    between atoms: C_6  and  C_7
REMARK    4  A    between atoms: C_6  and  N_12
REMARK    5  A    between atoms: N_9  and  C_10
REMARK    6  A    between atoms: N_9  and  C_11
REMARK    7  A    between atoms: CA_15  and  C_16
REMARK    8  A    between atoms: CA_28  and  C_29
REMARK    9  A    between atoms: C_29  and  C_30
REMARK                            x       y       z     vdW  Elec       q    Type
REMARK                         _______ _______ _______ _____ _____    ______ ____
ROOT
ATOM      1  N   UNL     1      -4.105  -1.025  -0.136  0.00  0.00    +0.000 N 
ATOM      2  C   UNL     1      -4.215  -1.817   1.034  0.00  0.00    +0.000 C 
ATOM      3  O   UNL     1      -3.714  -1.455   2.089  0.00  0.00    +0.000 OA
ATOM      4  CA  UNL     1      -4.653  -3.329   0.750  0.00  0.00    +0.000 C 
ATOM      5  N   UNL     1      -5.931  -3.271   0.105  0.00  0.00    +0.000 N 
ATOM      6  C   UNL     1      -6.142  -2.431  -0.947  0.00  0.00    +0.000 C 
ATOM      7  O   UNL     1      -7.178  -2.498  -1.554  0.00  0.00    +0.000 OA
ATOM      8  CA  UNL     1      -4.953  -1.494  -1.289  0.00  0.00    +0.000 C 
ATOM      9  H   UNL     1      -6.725  -3.846   0.360  0.00  0.00    +0.000 HD
ENDROOT
BRANCH   4  10
ATOM     10  C   UNL     1      -4.723  -4.194   1.998  0.00  0.00    +0.000 C 
ATOM     11  C   UNL     1      -3.361  -4.541   2.645  0.00  0.00    +0.000 C 
ATOM     12  C   UNL     1      -3.722  -4.574   4.092  0.00  0.00    +0.000 A 
ATOM     13  C   UNL     1      -2.972  -5.050   5.150  0.00  0.00    +0.000 A 
ATOM     14  C   UNL     1      -3.517  -4.948   6.431  0.00  0.00    +0.000 A 
ATOM     15  C   UNL     1      -4.761  -4.331   6.641  0.00  0.00    +0.000 A 
ATOM     16  C   UNL     1      -5.484  -3.812   5.574  0.00  0.00    +0.000 A 
ATOM     17  C   UNL     1      -4.963  -3.970   4.310  0.00  0.00    +0.000 A 
ATOM     18  C   UNL     1      -5.571  -3.470   3.057  0.00  0.00    +0.000 C 
ENDBRANCH   4  10
BRANCH   1  19
ATOM     19  C   UNL     1      -2.993   0.157  -0.147  0.00  0.00    +0.000 C 
BRANCH  19  24
ATOM     20  C   UNL     1      -4.717   3.597  -4.587  0.00  0.00    +0.000 C 
ATOM     21  C   UNL     1      -4.024   2.736  -3.569  0.00  0.00    +0.000 A 
ATOM     22  C   UNL     1      -4.839   2.073  -2.765  0.00  0.00    +0.000 A 
ATOM     23  C   UNL     1      -4.294   1.570  -1.578  0.00  0.00    +0.000 A 
ATOM     24  C   UNL     1      -3.064   1.148  -1.355  0.00  0.00    +0.000 A 
ATOM     25  C   UNL     1      -2.271   1.735  -2.299  0.00  0.00    +0.000 A 
ATOM     26  N   UNL     1      -2.704   2.591  -3.344  0.00  0.00    +0.000 NA
ENDBRANCH  19  24
BRANCH  19  27
ATOM     27  C   UNL     1      -1.465   0.007   0.118  0.00  0.00    +0.000 C 
ATOM     28  O   UNL     1      -0.781   1.043   0.061  0.00  0.00    +0.000 OA
ATOM     29  N   UNL     1      -0.827  -1.187   0.330  0.00  0.00    +0.000 N 
ATOM     30  C   UNL     1      -1.424  -2.395   0.775  0.00  0.00    +0.000 C 
ATOM     31  C   UNL     1       0.598  -1.186   0.455  0.00  0.00    +0.000 C 
ENDBRANCH  19  27
ENDBRANCH   1  19
BRANCH   8  32
ATOM     32  C   UNL     1      -5.737  -0.403  -2.078  0.00  0.00    +0.000 C 
BRANCH  32  33
ATOM     33  C   UNL     1      -6.723   0.656  -1.044  0.00  0.00    +0.000 C 
ATOM     34  C   UNL     1      -6.379   2.145  -0.254  0.00  0.00    +0.000 C 
ATOM     35  C   UNL     1      -7.397   2.043  -1.326  0.00  0.00    +0.000 C 
ENDBRANCH  32  33
ENDBRANCH   8  32
TORSDOF 6
