REMARK  Name = CHEMBL31476
REMARK  6 active torsions:
REMARK  status: ('A' for Active; 'I' for Inactive)
REMARK    1  A    between atoms: C_2  and  C_3
REMARK    2  A    between atoms: C_3  and  N_4
REMARK    3  A    between atoms: N_11  and  C_12
REMARK    4  A    between atoms: C_12  and  C_13
REMARK    5  A    between atoms: C_17  and  C_18
REMARK    6  A    between atoms: C_23  and  N_24
REMARK                            x       y       z     vdW  Elec       q    Type
REMARK                         _______ _______ _______ _____ _____    ______ ____
ROOT
ATOM      1  C   UNL     1       5.034   2.564  -0.130  0.00  0.00    +0.000 A 
ATOM      2  C   UNL     1       6.301   2.987  -0.466  0.00  0.00    +0.000 A 
ATOM      3  C   UNL     1       6.288   4.399  -0.452  0.00  0.00    +0.000 A 
ATOM      4  C   UNL     1       7.240   5.403  -0.710  0.00  0.00    +0.000 A 
ATOM      5  C   UNL     1       6.857   6.752  -0.627  0.00  0.00    +0.000 A 
ATOM      6  C   UNL     1       5.529   7.055  -0.307  0.00  0.00    +0.000 A 
ATOM      7  C   UNL     1       4.571   6.078   0.002  0.00  0.00    +0.000 A 
ATOM      8  C   UNL     1       4.993   4.759  -0.098  0.00  0.00    +0.000 A 
ATOM      9  O   UNL     1       4.226   3.645   0.108  0.00  0.00    +0.000 OA
ENDROOT
BRANCH   5  10
ATOM     10  C   UNL     1       7.886   7.801  -0.943  0.00  0.00    +0.000 C 
ATOM     11  O   UNL     1       8.995   7.468  -1.356  0.00  0.00    +0.000 OA
ATOM     12  N   UNL     1       7.568   9.147  -0.785  0.00  0.00    +0.000 N 
ATOM     13  C   UNL     1       7.070   9.869  -1.953  0.00  0.00    +0.000 C 
ATOM     14  C   UNL     1       7.395  11.351  -1.857  0.00  0.00    +0.000 C 
ATOM     15  C   UNL     1       6.907  11.956  -0.523  0.00  0.00    +0.000 C 
ATOM     16  C   UNL     1       7.483  11.154   0.654  0.00  0.00    +0.000 C 
ATOM     17  C   UNL     1       7.220   9.664   0.534  0.00  0.00    +0.000 C 
BRANCH  15  18
ATOM     18  N   UNL     1       5.428  12.198  -0.510  0.00  0.00    +0.000 N 
ATOM     19  C   UNL     1       4.473  11.192  -0.652  0.00  0.00    +0.000 C 
ATOM     20  O   UNL     1       4.417  10.131  -0.065  0.00  0.00    +0.000 OA
ATOM     21  O   UNL     1       3.545  11.470  -1.602  0.00  0.00    +0.000 OA
ATOM     22  C   UNL     1       2.705  12.511  -1.154  0.00  0.00    +0.000 C 
ATOM     23  C   UNL     1       3.518  13.679  -0.686  0.00  0.00    +0.000 A 
ATOM     24  C   UNL     1       2.891  14.914  -0.513  0.00  0.00    +0.000 A 
ATOM     25  C   UNL     1       3.624  15.997  -0.052  0.00  0.00    +0.000 A 
ATOM     26  C   UNL     1       4.976  15.846   0.247  0.00  0.00    +0.000 A 
ATOM     27  C   UNL     1       5.609  14.611   0.079  0.00  0.00    +0.000 A 
ATOM     28  C   UNL     1       4.887  13.514  -0.395  0.00  0.00    +0.000 A 
ENDBRANCH  15  18
ENDBRANCH   5  10
BRANCH   1  29
ATOM     29  C   UNL     1       4.494   1.188  -0.009  0.00  0.00    +0.000 C 
BRANCH  29  32
ATOM     30  O   UNL     1       1.067   0.343  -0.258  0.00  0.00    +0.000 OA
ATOM     31  C   UNL     1       2.249   0.083  -0.057  0.00  0.00    +0.000 C 
ATOM     32  N   UNL     1       3.065   1.169  -0.000  0.00  0.00    +0.000 N 
ATOM     33  H   UNL     1       2.566   2.049  -0.099  0.00  0.00    +0.000 HD
BRANCH  31  34
ATOM     34  C   UNL     1       2.841  -1.338   0.091  0.00  0.00    +0.000 C 
BRANCH  34  35
ATOM     35  N   UNL     1       1.921  -2.479   0.097  0.00  0.00    +0.000 N 
ATOM     36  C   UNL     1       0.581  -2.483   0.380  0.00  0.00    +0.000 C 
ATOM     37  O   UNL     1      -0.180  -1.559   0.630  0.00  0.00    +0.000 OA
ATOM     38  C   UNL     1       0.070  -3.900   0.362  0.00  0.00    +0.000 C 
ATOM     39  N   UNL     1       1.289  -4.620   0.191  0.00  0.00    +0.000 N 
ATOM     40  C   UNL     1       2.365  -3.773   0.042  0.00  0.00    +0.000 C 
ATOM     41  O   UNL     1       3.513  -4.163  -0.092  0.00  0.00    +0.000 OA
ATOM     42  H   UNL     1       1.382  -5.627   0.179  0.00  0.00    +0.000 HD
ENDBRANCH  34  35
ENDBRANCH  31  34
ENDBRANCH  29  32
ENDBRANCH   1  29
TORSDOF 6
