REMARK  Name = CHEMBL284410
REMARK  6 active torsions:
REMARK  status: ('A' for Active; 'I' for Inactive)
REMARK    1  A    between atoms: C_1  and  S_2
REMARK    2  A    between atoms: S_2  and  N_5
REMARK    3  A    between atoms: C_9  and  C_10
REMARK    4  A    between atoms: C_10  and  N_11
REMARK    5  A    between atoms: C_16  and  C_17
REMARK    6  A    between atoms: C_22  and  N_23
REMARK                            x       y       z     vdW  Elec       q    Type
REMARK                         _______ _______ _______ _____ _____    ______ ____
ROOT
ATOM      1  N   UNL     1       2.058   4.136   0.801  0.00  0.00    +0.000 N 
ATOM      2  C   UNL     1       2.742   5.200   0.293  0.00  0.00    +0.000 A 
ATOM      3  C   UNL     1       2.328   6.323   0.955  0.00  0.00    +0.000 A 
ATOM      4  C   UNL     1       1.337   5.938   1.894  0.00  0.00    +0.000 A 
ATOM      5  C   UNL     1       0.549   6.656   2.824  0.00  0.00    +0.000 A 
ATOM      6  C   UNL     1      -0.381   5.985   3.646  0.00  0.00    +0.000 A 
ATOM      7  C   UNL     1      -0.514   4.604   3.493  0.00  0.00    +0.000 A 
ATOM      8  C   UNL     1       0.265   3.859   2.593  0.00  0.00    +0.000 A 
ATOM      9  C   UNL     1       1.183   4.553   1.791  0.00  0.00    +0.000 A 
ENDROOT
BRANCH   6  10
ATOM     10  C   UNL     1      -1.284   6.772   4.573  0.00  0.00    +0.000 C 
ATOM     11  O   UNL     1      -1.228   8.001   4.534  0.00  0.00    +0.000 OA
ATOM     12  N   UNL     1      -2.237   6.089   5.364  0.00  0.00    +0.000 N 
ATOM     13  C   UNL     1      -3.663   6.379   5.210  0.00  0.00    +0.000 C 
ATOM     14  C   UNL     1      -4.380   6.542   6.539  0.00  0.00    +0.000 C 
ATOM     15  C   UNL     1      -4.432   4.976   7.355  0.00  0.00    +0.000 C 
ATOM     16  C   UNL     1      -2.715   5.059   7.576  0.00  0.00    +0.000 C 
ATOM     17  C   UNL     1      -1.922   4.984   6.274  0.00  0.00    +0.000 C 
BRANCH  15  18
ATOM     18  N   UNL     1      -5.809   3.858   6.795  0.00  0.00    +0.000 N 
ATOM     19  C   UNL     1      -6.593   4.768   7.579  0.00  0.00    +0.000 C 
ATOM     20  O   UNL     1      -6.649   6.032   7.524  0.00  0.00    +0.000 OA
ATOM     21  O   UNL     1      -7.185   4.257   8.634  0.00  0.00    +0.000 OA
ATOM     22  C   UNL     1      -8.410   4.074   8.037  0.00  0.00    +0.000 C 
ATOM     23  C   UNL     1      -8.106   2.664   7.841  0.00  0.00    +0.000 A 
ATOM     24  C   UNL     1      -9.039   1.763   8.558  0.00  0.00    +0.000 A 
ATOM     25  C   UNL     1      -9.207   0.430   8.308  0.00  0.00    +0.000 A 
ATOM     26  C   UNL     1      -8.675   0.129   7.083  0.00  0.00    +0.000 A 
ATOM     27  C   UNL     1      -7.654   1.157   6.359  0.00  0.00    +0.000 A 
ATOM     28  C   UNL     1      -6.983   2.424   6.997  0.00  0.00    +0.000 A 
ENDBRANCH  15  18
ENDBRANCH   6  10
BRANCH   1  29
ATOM     29  C   UNL     1       2.199   2.767   0.352  0.00  0.00    +0.000 C 
BRANCH  29  34
ATOM     30  N   UNL     1       3.436   0.982  -1.057  0.00  0.00    +0.000 NA
ATOM     31  C   UNL     1       4.922   0.808  -1.288  0.00  0.00    +0.000 C 
ATOM     32  C   UNL     1       5.537   1.600  -0.153  0.00  0.00    +0.000 C 
ATOM     33  C   UNL     1       4.718   2.868  -0.174  0.00  0.00    +0.000 C 
ATOM     34  C   UNL     1       3.309   2.455  -0.657  0.00  0.00    +0.000 C 
BRANCH  30  36
ATOM     35  C   UNL     1       1.084  -0.160  -0.052  0.00  0.00    +0.000 C 
ATOM     36  S   UNL     1       2.868  -0.229   0.036  0.00  0.00    +0.000 S 
ATOM     37  O   UNL     1       3.273   0.157   1.371  0.00  0.00    +0.000 OA
ATOM     38  O   UNL     1       3.268  -1.513  -0.500  0.00  0.00    +0.000 OA
ENDBRANCH  30  36
ENDBRANCH  29  34
ENDBRANCH   1  29
TORSDOF 5
