REMARK  Name = CHEMBL1779235
REMARK  11 active torsions:
REMARK  status: ('A' for Active; 'I' for Inactive)
REMARK    1  A    between atoms: C_1  and  O_2
REMARK    2  A    between atoms: O_2  and  C_3
REMARK    3  A    between atoms: C_9  and  C_10
REMARK    4  A    between atoms: C_10  and  C_11
REMARK    5  A    between atoms: C_20  and  C_21
REMARK    6  A    between atoms: N_22  and  S_23
REMARK    7  A    between atoms: S_23  and  C_26
REMARK    8  A    between atoms: C_29  and  O_30
REMARK    9  A    between atoms: O_30  and  C_31
REMARK   10  A    between atoms: C_32  and  C_33
REMARK   11  A    between atoms: C_34  and  C_35
REMARK                            x       y       z     vdW  Elec       q    Type
REMARK                         _______ _______ _______ _____ _____    ______ ____
ROOT
ATOM      1  C   UNL     1       3.123  -0.741  -0.850  0.00  0.00    +0.000 A 
ATOM      2  C   UNL     1       2.727  -0.772  -2.170  0.00  0.00    +0.000 A 
ATOM      3  C   UNL     1       3.256  -1.727  -3.024  0.00  0.00    +0.000 A 
ATOM      4  C   UNL     1       4.318  -2.560  -2.614  0.00  0.00    +0.000 A 
ATOM      5  C   UNL     1       4.796  -2.500  -1.291  0.00  0.00    +0.000 A 
ATOM      6  C   UNL     1       4.162  -1.577  -0.404  0.00  0.00    +0.000 A 
ATOM      7  C   UNL     1       5.872  -3.488  -1.141  0.00  0.00    +0.000 A 
ATOM      8  C   UNL     1       6.057  -4.026  -2.417  0.00  0.00    +0.000 A 
ATOM      9  C   UNL     1       6.970  -5.042  -2.998  0.00  0.00    +0.000 C 
ATOM     10  N   UNL     1       5.138  -3.455  -3.281  0.00  0.00    +0.000 N 
ENDROOT
BRANCH  10  11
ATOM     11  S   UNL     1       5.138  -3.893  -4.976  0.00  0.00    +0.000 S 
ATOM     12  O   UNL     1       6.474  -3.593  -5.465  0.00  0.00    +0.000 OA
ATOM     13  O   UNL     1       4.631  -5.253  -4.995  0.00  0.00    +0.000 OA
BRANCH  11  14
ATOM     14  C   UNL     1       4.035  -2.859  -5.875  0.00  0.00    +0.000 A 
ATOM     15  C   UNL     1       2.901  -3.429  -6.456  0.00  0.00    +0.000 A 
ATOM     16  C   UNL     1       1.890  -2.586  -6.919  0.00  0.00    +0.000 A 
ATOM     17  C   UNL     1       2.106  -1.201  -7.069  0.00  0.00    +0.000 A 
ATOM     18  C   UNL     1       3.319  -0.642  -6.612  0.00  0.00    +0.000 A 
ATOM     19  C   UNL     1       3.745   0.793  -6.721  0.00  0.00    +0.000 C 
ATOM     20  C   UNL     1       4.264  -1.471  -5.940  0.00  0.00    +0.000 A 
ATOM     21  C   UNL     1       5.436  -0.840  -5.202  0.00  0.00    +0.000 C 
BRANCH  17  22
ATOM     22  O   UNL     1       1.051  -0.572  -7.687  0.00  0.00    +0.000 OA
ATOM     23  C   UNL     1       1.212   0.783  -8.072  0.00  0.00    +0.000 C 
ENDBRANCH  17  22
ENDBRANCH  11  14
ENDBRANCH  10  11
BRANCH   1  25
ATOM     24  C   UNL     1       1.108   0.072  -0.004  0.00  0.00    +0.000 C 
ATOM     25  O   UNL     1       2.540   0.109   0.055  0.00  0.00    +0.000 OA
ENDBRANCH   1  25
BRANCH   7  26
ATOM     26  C   UNL     1       6.571  -3.794   0.201  0.00  0.00    +0.000 C 
BRANCH  26  27
ATOM     27  C   UNL     1       7.683  -4.883   0.250  0.00  0.00    +0.000 C 
ATOM     28  O   UNL     1       7.970  -5.678  -0.607  0.00  0.00    +0.000 OA
ATOM     29  N   UNL     1       8.463  -5.015   1.381  0.00  0.00    +0.000 N 
ATOM     30  C   UNL     1       7.844  -5.518   2.586  0.00  0.00    +0.000 C 
ATOM     31  C   UNL     1       7.451  -7.005   2.627  0.00  0.00    +0.000 C 
ATOM     32  C   UNL     1       8.506  -8.080   2.355  0.00  0.00    +0.000 C 
ATOM     33  N   UNL     1       9.894  -7.635   2.350  0.00  0.00    +0.000 NA
ATOM     34  C   UNL     1      10.182  -6.948   1.082  0.00  0.00    +0.000 C 
ATOM     35  C   UNL     1       9.852  -5.443   1.125  0.00  0.00    +0.000 C 
ATOM     36  H   UNL     1      10.491  -8.462   2.402  0.00  0.00    +0.000 HD
ENDBRANCH  26  27
ENDBRANCH   7  26
TORSDOF 6
