REMARK  Name = CHEMBL2037493
REMARK  9 active torsions:
REMARK  status: ('A' for Active; 'I' for Inactive)
REMARK    1  A    between atoms: C_1  and  C_2
REMARK    2  A    between atoms: C_5  and  C_6
REMARK    3  A    between atoms: C_6  and  C_7
REMARK    4  A    between atoms: C_6  and  N_14
REMARK    5  A    between atoms: C_17  and  C_18
REMARK    6  A    between atoms: CA_30  and  CB_31
REMARK    7  A    between atoms: CB_31  and  CG_32
REMARK    8  A    between atoms: CG_32  and  CD1_33
REMARK    9  A    between atoms: CG_32  and  CD2_34
REMARK                            x       y       z     vdW  Elec       q    Type
REMARK                         _______ _______ _______ _____ _____    ______ ____
ROOT
ATOM      1  N   LEU A   1      -4.040  -1.147  -0.171  0.00  0.00    +0.000 N 
ATOM      2  C   UNK A   2      -4.029  -1.948   0.986  0.00  0.00    +0.000 C 
ATOM      3  O   UNK A   2      -3.496  -1.553   2.026  0.00  0.00    +0.000 OA
ATOM      4  C   UNK A   2      -4.539  -3.425   0.788  0.00  0.00    +0.000 C 
ATOM      5  N   UNK A   2      -5.809  -3.336   0.133  0.00  0.00    +0.000 N 
ATOM      6  C   LEU A   1      -5.857  -2.779  -1.086  0.00  0.00    +0.000 C 
ATOM      7  O   LEU A   1      -6.795  -3.117  -1.831  0.00  0.00    +0.000 OA
ATOM      8  CA  LEU A   1      -4.745  -1.736  -1.404  0.00  0.00    +0.000 C 
ATOM      9  H   UNK A   2      -6.599  -3.922   0.383  0.00  0.00    +0.000 HD
ENDROOT
BRANCH   4  10
ATOM     10  C   UNK A   2      -4.729  -4.248   2.042  0.00  0.00    +0.000 C 
ATOM     11  C   UNK A   2      -3.435  -4.672   2.725  0.00  0.00    +0.000 C 
ATOM     12  C   UNK A   2      -3.812  -4.687   4.150  0.00  0.00    +0.000 A 
ATOM     13  C   UNK A   2      -3.027  -5.116   5.199  0.00  0.00    +0.000 A 
ATOM     14  C   UNK A   2      -3.544  -4.960   6.476  0.00  0.00    +0.000 A 
ATOM     15  C   UNK A   2      -4.784  -4.326   6.673  0.00  0.00    +0.000 A 
ATOM     16  C   UNK A   2      -5.510  -3.804   5.605  0.00  0.00    +0.000 A 
ATOM     17  C   UNK A   2      -5.011  -4.001   4.344  0.00  0.00    +0.000 A 
ATOM     18  C   UNK A   2      -5.555  -3.460   3.072  0.00  0.00    +0.000 C 
ENDBRANCH   4  10
BRANCH   1  19
ATOM     19  C   UNK A   0      -3.188   0.181  -0.113  0.00  0.00    +0.000 C 
BRANCH  19  24
ATOM     20  C   UNK A   0      -4.795   3.601  -4.565  0.00  0.00    +0.000 C 
ATOM     21  C   UNK A   0      -4.293   2.846  -3.367  0.00  0.00    +0.000 A 
ATOM     22  C   UNK A   0      -5.149   2.714  -2.300  0.00  0.00    +0.000 A 
ATOM     23  C   UNK A   0      -4.731   2.054  -1.136  0.00  0.00    +0.000 A 
ATOM     24  C   UNK A   0      -3.502   1.359  -1.122  0.00  0.00    +0.000 A 
ATOM     25  C   UNK A   0      -2.666   1.677  -2.193  0.00  0.00    +0.000 A 
ATOM     26  N   UNK A   0      -3.025   2.400  -3.300  0.00  0.00    +0.000 NA
ENDBRANCH  19  24
BRANCH  19  27
ATOM     27  C   UNK A   0      -1.597   0.023   0.062  0.00  0.00    +0.000 C 
ATOM     28  O   UNK A   0      -0.880   1.035   0.062  0.00  0.00    +0.000 OA
ATOM     29  N   UNK A   0      -0.993  -1.179   0.353  0.00  0.00    +0.000 N 
ATOM     30  C   UNK A   0      -1.314  -2.509  -0.093  0.00  0.00    +0.000 C 
ATOM     31  C   UNK A   0      -1.039  -3.281   1.165  0.00  0.00    +0.000 C 
ATOM     32  C   UNK A   0       0.260  -2.732   1.686  0.00  0.00    +0.000 C 
ATOM     33  C   UNK A   0       0.145  -1.252   1.282  0.00  0.00    +0.000 C 
ENDBRANCH  19  27
ENDBRANCH   1  19
BRANCH   8  34
ATOM     34  CB  LEU A   1      -5.470  -0.622  -2.134  0.00  0.00    +0.000 C 
BRANCH  34  35
ATOM     35  CG  LEU A   1      -6.986  -0.401  -1.970  0.00  0.00    +0.000 C 
ATOM     36  CD1 LEU A   1      -7.406  -0.369  -0.473  0.00  0.00    +0.000 C 
ATOM     37  CD2 LEU A   1      -7.550   0.877  -2.569  0.00  0.00    +0.000 C 
ENDBRANCH  34  35
ENDBRANCH   8  34
TORSDOF 6
