REMARK  Name = CHEMBL69520
REMARK  9 active torsions:
REMARK  status: ('A' for Active; 'I' for Inactive)
REMARK    1  A    between atoms: C_1  and  O_2
REMARK    2  A    between atoms: O_2  and  C_3
REMARK    3  A    between atoms: C_5  and  O_6
REMARK    4  A    between atoms: O_6  and  C_7
REMARK    5  A    between atoms: N_10  and  C_11
REMARK    6  A    between atoms: C_11  and  C_12
REMARK    7  A    between atoms: C_17  and  C_18
REMARK    8  A    between atoms: C_23  and  C_24
REMARK    9  A    between atoms: C_29  and  N_30
REMARK                            x       y       z     vdW  Elec       q    Type
REMARK                         _______ _______ _______ _____ _____    ______ ____
ROOT
ATOM      1  C   UNL     1       3.031  -0.466  -0.863  0.00  0.00    +0.000 A 
ATOM      2  C   UNL     1       4.197  -1.320  -0.872  0.00  0.00    +0.000 A 
ATOM      3  C   UNL     1       4.946  -1.444  -1.988  0.00  0.00    +0.000 A 
ATOM      4  C   UNL     1       4.292  -0.829  -2.999  0.00  0.00    +0.000 A 
ATOM      5  C   UNL     1       3.204   0.019  -3.095  0.00  0.00    +0.000 A 
ATOM      6  C   UNL     1       2.515   0.259  -1.974  0.00  0.00    +0.000 A 
ENDROOT
BRANCH   6   7
ATOM      7  C   UNL     1       1.311   1.161  -2.225  0.00  0.00    +0.000 C 
ATOM      8  O   UNL     1       1.012   1.408  -3.403  0.00  0.00    +0.000 OA
ATOM      9  N   UNL     1       0.498   1.612  -1.143  0.00  0.00    +0.000 N 
ATOM     10  C   UNL     1      -0.864   1.005  -0.997  0.00  0.00    +0.000 C 
ATOM     11  C   UNL     1      -1.852   1.943  -0.294  0.00  0.00    +0.000 C 
ATOM     12  C   UNL     1      -1.496   2.296   1.513  0.00  0.00    +0.000 C 
ATOM     13  C   UNL     1       0.119   3.025   0.924  0.00  0.00    +0.000 C 
ATOM     14  C   UNL     1       1.086   2.104   0.121  0.00  0.00    +0.000 C 
BRANCH  12  15
ATOM     15  N   UNL     1      -2.441   1.866   3.060  0.00  0.00    +0.000 N 
ATOM     16  C   UNL     1      -3.404   1.504   2.083  0.00  0.00    +0.000 C 
ATOM     17  O   UNL     1      -3.961   2.294   1.302  0.00  0.00    +0.000 OA
ATOM     18  O   UNL     1      -3.543   0.193   1.920  0.00  0.00    +0.000 OA
ATOM     19  C   UNL     1      -4.487   0.007   2.908  0.00  0.00    +0.000 C 
ATOM     20  C   UNL     1      -3.582  -0.321   4.023  0.00  0.00    +0.000 A 
ATOM     21  C   UNL     1      -2.582  -1.051   4.739  0.00  0.00    +0.000 A 
ATOM     22  C   UNL     1      -2.865  -1.580   6.043  0.00  0.00    +0.000 A 
ATOM     23  C   UNL     1      -3.968  -1.020   6.564  0.00  0.00    +0.000 A 
ATOM     24  C   UNL     1      -4.207   0.362   5.806  0.00  0.00    +0.000 A 
ATOM     25  C   UNL     1      -3.418   0.821   4.411  0.00  0.00    +0.000 A 
ENDBRANCH  12  15
ENDBRANCH   6   7
BRANCH   1  27
ATOM     26  C   UNL     1       1.172  -0.781   0.369  0.00  0.00    +0.000 C 
ATOM     27  O   UNL     1       2.525  -0.429   0.403  0.00  0.00    +0.000 OA
ENDBRANCH   1  27
BRANCH   3  28
ATOM     28  O   UNL     1       6.165  -2.043  -2.072  0.00  0.00    +0.000 OA
BRANCH  28  29
ATOM     29  C   UNL     1       7.056  -2.023  -3.257  0.00  0.00    +0.000 C 
ATOM     30  C   UNL     1       7.468  -0.642  -3.841  0.00  0.00    +0.000 C 
ATOM     31  C   UNL     1       6.379   0.092  -4.622  0.00  0.00    +0.000 C 
ATOM     32  N   UNL     1       5.783  -0.827  -5.643  0.00  0.00    +0.000 NA
ATOM     33  C   UNL     1       5.621  -2.227  -5.212  0.00  0.00    +0.000 C 
ATOM     34  C   UNL     1       6.612  -2.947  -4.371  0.00  0.00    +0.000 C 
BRANCH  32  35
ATOM     35  C   UNL     1       4.482  -0.345  -6.180  0.00  0.00    +0.000 C 
BRANCH  35  36
ATOM     36  C   UNL     1       3.765  -1.230  -7.179  0.00  0.00    +0.000 A 
ATOM     37  C   UNL     1       3.531  -0.608  -8.412  0.00  0.00    +0.000 A 
ATOM     38  C   UNL     1       2.869  -1.299  -9.401  0.00  0.00    +0.000 A 
ATOM     39  C   UNL     1       2.465  -2.591  -9.133  0.00  0.00    +0.000 A 
ATOM     40  N   UNL     1       2.614  -3.211  -7.952  0.00  0.00    +0.000 NA
ATOM     41  C   UNL     1       3.212  -2.534  -6.955  0.00  0.00    +0.000 A 
ATOM     42  C   UNL     1       3.159  -3.342  -5.673  0.00  0.00    +0.000 C 
ENDBRANCH  35  36
ENDBRANCH  32  35
ENDBRANCH  28  29
ENDBRANCH   3  28
TORSDOF 7
