REMARK  Name = CHEMBL278802
REMARK  12 active torsions:
REMARK  status: ('A' for Active; 'I' for Inactive)
REMARK    1  A    between atoms: C_1  and  C_2
REMARK    2  A    between atoms: C_2  and  C_4
REMARK    3  A    between atoms: C_4  and  C_5
REMARK    4  A    between atoms: C_5  and  C_6
REMARK    5  A    between atoms: C_6  and  C_7
REMARK    6  A    between atoms: N_9  and  C_10
REMARK    7  A    between atoms: C_12  and  C_13
REMARK    8  A    between atoms: N_25  and  C_26
REMARK    9  A    between atoms: C_26  and  C_27
REMARK   10  A    between atoms: N_29  and  C_30
REMARK   11  A    between atoms: C_30  and  C_31
REMARK   12  A    between atoms: C_31  and  C_32
REMARK                            x       y       z     vdW  Elec       q    Type
REMARK                         _______ _______ _______ _____ _____    ______ ____
ROOT
ATOM      1  C   UNL     1       9.385  -2.712   1.278  0.00  0.00    +0.000 C 
ATOM      2  N   UNL     1      10.062  -3.888   1.853  0.00  0.00    +0.000 NA
ATOM      3  C   UNL     1      11.359  -3.947   1.789  0.00  0.00    +0.000 C 
ATOM      4  C   UNL     1      12.240  -2.946   1.095  0.00  0.00    +0.000 A 
ATOM      5  C   UNL     1      13.389  -3.423   0.431  0.00  0.00    +0.000 A 
ATOM      6  C   UNL     1      14.289  -2.543  -0.174  0.00  0.00    +0.000 A 
ATOM      7  C   UNL     1      14.015  -1.185  -0.193  0.00  0.00    +0.000 A 
ATOM      8  C   UNL     1      12.849  -0.709   0.400  0.00  0.00    +0.000 A 
ATOM      9  C   UNL     1      12.003  -1.560   1.136  0.00  0.00    +0.000 A 
ATOM     10  N   UNL     1      11.047  -0.971   2.013  0.00  0.00    +0.000 N 
ATOM     11  C   UNL     1       9.752  -1.465   2.152  0.00  0.00    +0.000 C 
ATOM     12  O   UNL     1       8.948  -0.915   2.916  0.00  0.00    +0.000 OA
ENDROOT
BRANCH   3  13
ATOM     13  C   UNL     1      12.048  -5.104   2.463  0.00  0.00    +0.000 A 
ATOM     14  C   UNL     1      11.737  -6.424   2.117  0.00  0.00    +0.000 A 
ATOM     15  C   UNL     1      12.312  -7.486   2.827  0.00  0.00    +0.000 A 
ATOM     16  C   UNL     1      13.264  -7.236   3.816  0.00  0.00    +0.000 A 
ATOM     17  C   UNL     1      13.658  -5.926   4.084  0.00  0.00    +0.000 A 
ATOM     18  C   UNL     1      13.020  -4.859   3.443  0.00  0.00    +0.000 A 
ENDBRANCH   3  13
BRANCH   1  21
ATOM     19  C   UNL     1       7.097  -1.968   0.841  0.00  0.00    +0.000 C 
ATOM     20  O   UNL     1       7.521  -0.959   0.280  0.00  0.00    +0.000 OA
ATOM     21  N   UNL     1       7.950  -2.935   1.333  0.00  0.00    +0.000 N 
ATOM     22  H   UNL     1       7.628  -3.770   1.795  0.00  0.00    +0.000 HD
BRANCH  19  23
ATOM     23  C   UNL     1       5.604  -2.229   1.030  0.00  0.00    +0.000 C 
BRANCH  23  24
ATOM     24  C   UNL     1       4.783  -1.035   0.520  0.00  0.00    +0.000 C 
BRANCH  24  25
ATOM     25  C   UNL     1       3.269  -1.232   0.612  0.00  0.00    +0.000 C 
BRANCH  25  27
ATOM     26  C   UNL     1       1.017  -0.068   0.100  0.00  0.00    +0.000 C 
ATOM     27  C   UNL     1       2.522  -0.015   0.076  0.00  0.00    +0.000 C 
ATOM     28  O   UNL     1       3.099   0.979  -0.364  0.00  0.00    +0.000 OA
ENDBRANCH  25  27
ENDBRANCH  24  25
ENDBRANCH  23  24
ENDBRANCH  19  23
ENDBRANCH   1  21
BRANCH  10  29
ATOM     29  C   UNL     1      11.398   0.210   2.830  0.00  0.00    +0.000 C 
BRANCH  29  30
ATOM     30  C   UNL     1      12.885   0.558   3.007  0.00  0.00    +0.000 C 
ATOM     31  O   UNL     1      13.799  -0.259   2.837  0.00  0.00    +0.000 OA
ATOM     32  N   UNL     1      13.196   1.843   3.392  0.00  0.00    +0.000 N 
ATOM     33  H   UNL     1      12.543   2.370   3.963  0.00  0.00    +0.000 HD
BRANCH  32  34
ATOM     34  C   UNL     1      14.600   2.190   3.358  0.00  0.00    +0.000 C 
BRANCH  34  35
ATOM     35  C   UNL     1      14.979   3.402   4.191  0.00  0.00    +0.000 C 
BRANCH  35  36
ATOM     36  C   UNL     1      16.447   3.735   4.049  0.00  0.00    +0.000 A 
ATOM     37  C   UNL     1      16.844   5.075   3.989  0.00  0.00    +0.000 A 
ATOM     38  C   UNL     1      18.184   5.405   3.788  0.00  0.00    +0.000 A 
ATOM     39  C   UNL     1      19.123   4.404   3.543  0.00  0.00    +0.000 A 
ATOM     40  C   UNL     1      18.742   3.070   3.626  0.00  0.00    +0.000 A 
ATOM     41 CL   UNL     1      19.874   1.824   3.271  0.00  0.00    +0.000 Cl
ATOM     42  C   UNL     1      17.432   2.736   3.956  0.00  0.00    +0.000 A 
ENDBRANCH  35  36
ENDBRANCH  34  35
ENDBRANCH  32  34
ENDBRANCH  29  30
ENDBRANCH  10  29
TORSDOF 11
