REMARK  Name = CHEMBL303700
REMARK  9 active torsions:
REMARK  status: ('A' for Active; 'I' for Inactive)
REMARK    1  A    between atoms: C_1  and  O_2
REMARK    2  A    between atoms: O_2  and  C_3
REMARK    3  A    between atoms: C_5  and  O_6
REMARK    4  A    between atoms: O_6  and  C_7
REMARK    5  A    between atoms: N_10  and  C_11
REMARK    6  A    between atoms: C_11  and  C_12
REMARK    7  A    between atoms: C_18  and  C_19
REMARK    8  A    between atoms: C_28  and  C_29
REMARK    9  A    between atoms: C_34  and  N_35
REMARK                            x       y       z     vdW  Elec       q    Type
REMARK                         _______ _______ _______ _____ _____    ______ ____
ROOT
ATOM      1  C   UNL     1       2.813   0.759   0.275  0.00  0.00    +0.000 A 
ATOM      2  C   UNL     1       2.430   1.675   1.344  0.00  0.00    +0.000 A 
ATOM      3  C   UNL     1       2.971   2.907   1.403  0.00  0.00    +0.000 A 
ATOM      4  C   UNL     1       3.752   3.076   0.254  0.00  0.00    +0.000 A 
ATOM      5  F   UNL     1       5.015   3.058   0.547  0.00  0.00    +0.000 F 
ATOM      6  C   UNL     1       3.805   2.431  -0.964  0.00  0.00    +0.000 A 
ATOM      7  C   UNL     1       3.642   1.160  -0.812  0.00  0.00    +0.000 A 
ENDROOT
BRANCH   7   8
ATOM      8  C   UNL     1       4.406   0.413  -1.836  0.00  0.00    +0.000 C 
ATOM      9  O   UNL     1       5.433   0.856  -2.427  0.00  0.00    +0.000 OA
ATOM     10  N   UNL     1       3.953  -0.771  -2.098  0.00  0.00    +0.000 N 
ATOM     11  C   UNL     1       4.836  -1.886  -1.922  0.00  0.00    +0.000 C 
ATOM     12  C   UNL     1       4.862  -2.644  -3.209  0.00  0.00    +0.000 C 
ATOM     13  C   UNL     1       3.417  -2.974  -3.645  0.00  0.00    +0.000 C 
ATOM     14  C   UNL     1       2.557  -1.714  -3.815  0.00  0.00    +0.000 C 
ATOM     15  C   UNL     1       2.595  -0.907  -2.567  0.00  0.00    +0.000 C 
BRANCH  13  16
ATOM     16  N   UNL     1       2.815  -4.041  -2.777  0.00  0.00    +0.000 N 
ATOM     17  C   UNL     1       2.594  -3.945  -1.408  0.00  0.00    +0.000 C 
ATOM     18  O   UNL     1       1.898  -3.110  -0.809  0.00  0.00    +0.000 OA
ATOM     19  O   UNL     1       3.228  -4.890  -0.682  0.00  0.00    +0.000 OA
ATOM     20  C   UNL     1       2.627  -6.146  -0.924  0.00  0.00    +0.000 C 
ATOM     21  C   UNL     1       2.505  -6.401  -2.395  0.00  0.00    +0.000 A 
ATOM     22  C   UNL     1       2.237  -7.689  -2.848  0.00  0.00    +0.000 A 
ATOM     23  C   UNL     1       2.096  -7.925  -4.209  0.00  0.00    +0.000 A 
ATOM     24  C   UNL     1       2.212  -6.877  -5.118  0.00  0.00    +0.000 A 
ATOM     25  C   UNL     1       2.480  -5.587  -4.672  0.00  0.00    +0.000 A 
ATOM     26  C   UNL     1       2.635  -5.343  -3.308  0.00  0.00    +0.000 A 
ENDBRANCH  13  16
ENDBRANCH   7   8
BRANCH   1  28
ATOM     27  C   UNL     1       0.829  -0.202   0.028  0.00  0.00    +0.000 C 
ATOM     28  O   UNL     1       2.218  -0.452   0.265  0.00  0.00    +0.000 OA
ENDBRANCH   1  28
BRANCH   3  29
ATOM     29  O   UNL     1       2.667   3.881   2.378  0.00  0.00    +0.000 OA
BRANCH  29  30
ATOM     30  C   UNL     1       3.500   5.094   2.964  0.00  0.00    +0.000 C 
ATOM     31  C   UNL     1       3.695   6.466   2.127  0.00  0.00    +0.000 C 
ATOM     32  C   UNL     1       4.066   6.289   0.634  0.00  0.00    +0.000 C 
ATOM     33  N   UNL     1       5.444   5.602   0.603  0.00  0.00    +0.000 NA
ATOM     34  C   UNL     1       5.478   4.662   1.775  0.00  0.00    +0.000 C 
ATOM     35  C   UNL     1       4.912   4.572   3.185  0.00  0.00    +0.000 C 
BRANCH  33  36
ATOM     36  C   UNL     1       5.646   4.960  -0.796  0.00  0.00    +0.000 C 
BRANCH  36  37
ATOM     37  C   UNL     1       6.819   3.839  -1.057  0.00  0.00    +0.000 A 
ATOM     38  C   UNL     1       6.945   2.508  -0.495  0.00  0.00    +0.000 A 
ATOM     39  C   UNL     1       7.814   1.505  -0.887  0.00  0.00    +0.000 A 
ATOM     40  C   UNL     1       8.730   1.855  -1.821  0.00  0.00    +0.000 A 
ATOM     41  N   UNL     1       8.751   3.133  -2.390  0.00  0.00    +0.000 N 
ATOM     42  O   UNL     1       9.696   3.378  -3.199  0.00  0.00    +0.000 OA
ATOM     43  C   UNL     1       7.780   4.096  -2.051  0.00  0.00    +0.000 A 
BRANCH  43  44
ATOM     44  C   UNL     1       7.818   5.413  -2.749  0.00  0.00    +0.000 C 
ATOM     45  F   UNL     1       6.709   5.605  -3.534  0.00  0.00    +0.000 F 
ATOM     46  F   UNL     1       7.780   6.439  -1.840  0.00  0.00    +0.000 F 
ATOM     47  F   UNL     1       8.874   5.707  -3.542  0.00  0.00    +0.000 F 
ENDBRANCH  43  44
ENDBRANCH  36  37
ENDBRANCH  33  36
ENDBRANCH  29  30
ENDBRANCH   3  29
TORSDOF 8
