REMARK  Name = CHEMBL68816
REMARK  7 active torsions:
REMARK  status: ('A' for Active; 'I' for Inactive)
REMARK    1  A    between atoms: C_1  and  O_2
REMARK    2  A    between atoms: O_2  and  C_3
REMARK    3  A    between atoms: C_5  and  O_6
REMARK    4  A    between atoms: O_6  and  C_7
REMARK    5  A    between atoms: N_10  and  C_11
REMARK    6  A    between atoms: C_26  and  C_27
REMARK    7  A    between atoms: C_32  and  N_33
REMARK                            x       y       z     vdW  Elec       q    Type
REMARK                         _______ _______ _______ _____ _____    ______ ____
ROOT
ATOM      1  C   UNL     1       2.971   1.055  -0.372  0.00  0.00    +0.000 A 
ATOM      2  C   UNL     1       2.589   2.389   0.005  0.00  0.00    +0.000 A 
ATOM      3  C   UNL     1       3.275   3.454  -0.465  0.00  0.00    +0.000 A 
ATOM      4  C   UNL     1       4.278   3.039  -1.263  0.00  0.00    +0.000 A 
ATOM      5  F   UNL     1       5.228   3.898  -1.334  0.00  0.00    +0.000 F 
ATOM      6  C   UNL     1       4.526   1.826  -1.878  0.00  0.00    +0.000 A 
ATOM      7  C   UNL     1       3.951   0.747  -1.329  0.00  0.00    +0.000 A 
ENDROOT
BRANCH   7   8
ATOM      8  C   UNL     1       4.589  -0.539  -1.758  0.00  0.00    +0.000 C 
ATOM      9  O   UNL     1       5.611  -0.534  -2.449  0.00  0.00    +0.000 OA
ATOM     10  N   UNL     1       4.027  -1.716  -1.321  0.00  0.00    +0.000 N 
ATOM     11  C   UNL     1       4.710  -2.460  -0.281  0.00  0.00    +0.000 C 
ATOM     12  C   UNL     1       4.410  -3.929  -0.456  0.00  0.00    +0.000 C 
ATOM     13  C   UNL     1       2.710  -4.242  -0.057  0.00  0.00    +0.000 C 
ATOM     14  C   UNL     1       2.224  -3.386  -1.490  0.00  0.00    +0.000 C 
ATOM     15  C   UNL     1       2.607  -1.940  -1.422  0.00  0.00    +0.000 C 
BRANCH  13  16
ATOM     16  N   UNL     1       2.341  -4.401   1.754  0.00  0.00    +0.000 N 
ATOM     17  C   UNL     1       3.029  -5.654   1.545  0.00  0.00    +0.000 C 
ATOM     18  O   UNL     1       4.154  -5.899   1.001  0.00  0.00    +0.000 OA
ATOM     19  O   UNL     1       2.301  -6.727   1.735  0.00  0.00    +0.000 OA
ATOM     20  C   UNL     1       2.794  -7.000   2.982  0.00  0.00    +0.000 C 
ATOM     21  C   UNL     1       1.640  -6.407   3.643  0.00  0.00    +0.000 A 
ATOM     22  C   UNL     1       1.215  -7.383   4.742  0.00  0.00    +0.000 A 
ATOM     23  C   UNL     1       0.715  -7.067   5.960  0.00  0.00    +0.000 A 
ATOM     24  C   UNL     1       0.507  -5.709   5.972  0.00  0.00    +0.000 A 
ATOM     25  C   UNL     1       0.878  -4.683   4.695  0.00  0.00    +0.000 A 
ATOM     26  C   UNL     1       1.462  -5.026   3.283  0.00  0.00    +0.000 A 
ENDBRANCH  13  16
ENDBRANCH   7   8
BRANCH   1  28
ATOM     27  C   UNL     1       0.973   0.087   0.083  0.00  0.00    +0.000 C 
ATOM     28  O   UNL     1       2.376   0.072   0.345  0.00  0.00    +0.000 OA
ENDBRANCH   1  28
BRANCH   3  29
ATOM     29  O   UNL     1       3.105   4.749  -0.081  0.00  0.00    +0.000 OA
BRANCH  29  30
ATOM     30  C   UNL     1       3.526   5.900  -0.908  0.00  0.00    +0.000 C 
ATOM     31  C   UNL     1       3.272   5.795  -2.423  0.00  0.00    +0.000 C 
ATOM     32  C   UNL     1       4.441   5.153  -3.222  0.00  0.00    +0.000 C 
ATOM     33  N   UNL     1       5.823   5.602  -2.824  0.00  0.00    +0.000 NA
ATOM     34  C   UNL     1       6.062   5.901  -1.373  0.00  0.00    +0.000 C 
ATOM     35  C   UNL     1       4.899   6.548  -0.652  0.00  0.00    +0.000 C 
BRANCH  33  36
ATOM     36  C   UNL     1       6.943   4.757  -3.374  0.00  0.00    +0.000 C 
ATOM     37  C   UNL     1       7.167   3.275  -2.912  0.00  0.00    +0.000 C 
ATOM     38  C   UNL     1       8.424   3.059  -2.105  0.00  0.00    +0.000 C 
ATOM     39  C   UNL     1       9.045   4.374  -2.248  0.00  0.00    +0.000 A 
ATOM     40  C   UNL     1       8.305   5.310  -2.979  0.00  0.00    +0.000 A 
ATOM     41  C   UNL     1       8.792   6.598  -3.076  0.00  0.00    +0.000 A 
ATOM     42  C   UNL     1      10.004   6.899  -2.445  0.00  0.00    +0.000 A 
ATOM     43  C   UNL     1      10.708   5.924  -1.724  0.00  0.00    +0.000 A 
ATOM     44  N   UNL     1      10.223   4.648  -1.602  0.00  0.00    +0.000 N 
ATOM     45  O   UNL     1      10.825   3.773  -0.914  0.00  0.00    +0.000 OA
ENDBRANCH  33  36
ENDBRANCH  29  30
ENDBRANCH   3  29
TORSDOF 6
