REMARK  Name = CHEMBL282494
REMARK  7 active torsions:
REMARK  status: ('A' for Active; 'I' for Inactive)
REMARK    1  A    between atoms: C_2  and  C_3
REMARK    2  A    between atoms: C_3  and  N_4
REMARK    3  A    between atoms: C_6  and  C_7
REMARK    4  A    between atoms: N_15  and  C_16
REMARK    5  A    between atoms: C_16  and  C_17
REMARK    6  A    between atoms: C_21  and  C_22
REMARK    7  A    between atoms: C_27  and  N_28
REMARK                            x       y       z     vdW  Elec       q    Type
REMARK                         _______ _______ _______ _____ _____    ______ ____
ROOT
ATOM      1  C   UNL     1       5.347   1.584   2.215  0.00  0.00    +0.000 A 
ATOM      2  C   UNL     1       6.644   1.175   2.502  0.00  0.00    +0.000 A 
ATOM      3  C   UNL     1       6.924   1.789   3.741  0.00  0.00    +0.000 A 
ATOM      4  C   UNL     1       6.256   1.791   4.998  0.00  0.00    +0.000 A 
ATOM      5  C   UNL     1       6.451   2.761   5.995  0.00  0.00    +0.000 A 
ATOM      6  C   UNL     1       7.371   3.754   5.718  0.00  0.00    +0.000 A 
ATOM      7  C   UNL     1       7.690   3.954   4.345  0.00  0.00    +0.000 A 
ATOM      8  C   UNL     1       7.032   3.116   3.343  0.00  0.00    +0.000 A 
ATOM      9  O   UNL     1       5.502   3.038   2.717  0.00  0.00    +0.000 OA
ENDROOT
BRANCH   5  10
ATOM     10  C   UNL     1       5.568   2.843   7.199  0.00  0.00    +0.000 C 
ATOM     11  O   UNL     1       5.815   3.687   8.059  0.00  0.00    +0.000 OA
ATOM     12  N   UNL     1       4.369   2.103   7.182  0.00  0.00    +0.000 N 
ATOM     13  C   UNL     1       3.112   2.841   7.122  0.00  0.00    +0.000 C 
ATOM     14  C   UNL     1       2.076   2.261   8.059  0.00  0.00    +0.000 C 
ATOM     15  C   UNL     1       1.544   0.757   7.379  0.00  0.00    +0.000 C 
ATOM     16  C   UNL     1       3.124   0.053   7.737  0.00  0.00    +0.000 C 
ATOM     17  C   UNL     1       4.251   0.661   6.927  0.00  0.00    +0.000 C 
BRANCH  15  18
ATOM     18  N   UNL     1       0.256   0.957   6.042  0.00  0.00    +0.000 N 
ATOM     19  C   UNL     1      -0.594   1.078   7.220  0.00  0.00    +0.000 C 
ATOM     20  O   UNL     1      -0.487   1.879   8.189  0.00  0.00    +0.000 OA
ATOM     21  O   UNL     1      -1.480   0.109   7.394  0.00  0.00    +0.000 OA
ATOM     22  C   UNL     1      -2.533   0.754   6.782  0.00  0.00    +0.000 C 
ATOM     23  C   UNL     1      -2.287   0.050   5.538  0.00  0.00    +0.000 A 
ATOM     24  C   UNL     1      -2.849  -1.192   5.135  0.00  0.00    +0.000 A 
ATOM     25  C   UNL     1      -2.990  -1.603   3.813  0.00  0.00    +0.000 A 
ATOM     26  C   UNL     1      -2.720  -0.610   2.931  0.00  0.00    +0.000 A 
ATOM     27  F   UNL     1      -3.472  -0.632   1.788  0.00  0.00    +0.000 F 
ATOM     28  C   UNL     1      -1.822   0.527   3.467  0.00  0.00    +0.000 A 
ATOM     29  C   UNL     1      -1.143   0.448   4.920  0.00  0.00    +0.000 A 
ENDBRANCH  15  18
ENDBRANCH   5  10
BRANCH   1  30
ATOM     30  C   UNL     1       4.496   0.914   1.049  0.00  0.00    +0.000 C 
BRANCH  30  33
ATOM     31  O   UNL     1       1.056   0.015   0.156  0.00  0.00    +0.000 OA
ATOM     32  C   UNL     1       2.288   0.020   0.052  0.00  0.00    +0.000 C 
ATOM     33  N   UNL     1       3.039   0.723   1.012  0.00  0.00    +0.000 N 
ATOM     34  H   UNL     1       2.447   1.186   1.691  0.00  0.00    +0.000 HD
BRANCH  32  35
ATOM     35  C   UNL     1       2.981  -0.775  -1.097  0.00  0.00    +0.000 C 
BRANCH  35  36
ATOM     36  N   UNL     1       2.035  -1.452  -2.027  0.00  0.00    +0.000 N 
ATOM     37  C   UNL     1       2.036  -2.839  -2.153  0.00  0.00    +0.000 A 
ATOM     38  C   UNL     1       1.441  -3.460  -3.191  0.00  0.00    +0.000 A 
ATOM     39  C   UNL     1       0.620  -2.679  -4.098  0.00  0.00    +0.000 A 
ATOM     40  C   UNL     1       0.455  -1.365  -3.900  0.00  0.00    +0.000 A 
ATOM     41  C   UNL     1       1.303  -0.648  -2.905  0.00  0.00    +0.000 A 
ATOM     42  O   UNL     1       1.354   0.578  -2.933  0.00  0.00    +0.000 OA
BRANCH  38  43
ATOM     43  C   UNL     1       1.568  -4.931  -3.466  0.00  0.00    +0.000 C 
ATOM     44  F   UNL     1       0.368  -5.564  -3.474  0.00  0.00    +0.000 F 
ATOM     45  F   UNL     1       2.139  -5.159  -4.678  0.00  0.00    +0.000 F 
ATOM     46  F   UNL     1       2.345  -5.563  -2.548  0.00  0.00    +0.000 F 
ENDBRANCH  38  43
ENDBRANCH  35  36
ENDBRANCH  32  35
ENDBRANCH  30  33
ENDBRANCH   1  30
TORSDOF 7
