REMARK  Name = CHEMBL31350
REMARK  5 active torsions:
REMARK  status: ('A' for Active; 'I' for Inactive)
REMARK    1  A    between atoms: C_1  and  C_2
REMARK    2  A    between atoms: N_4  and  C_5
REMARK    3  A    between atoms: C_5  and  C_6
REMARK    4  A    between atoms: C_10  and  C_11
REMARK    5  A    between atoms: C_16  and  N_17
REMARK                            x       y       z     vdW  Elec       q    Type
REMARK                         _______ _______ _______ _____ _____    ______ ____
ROOT
ATOM      1  C   UNL     1       7.272   7.352  -3.995  0.00  0.00    +0.000 C 
ATOM      2  O   UNL     1       7.937   6.874  -4.913  0.00  0.00    +0.000 OA
ATOM      3  N   UNL     1       7.027   8.723  -3.949  0.00  0.00    +0.000 N 
ATOM      4  C   UNL     1       5.867   9.190  -4.695  0.00  0.00    +0.000 C 
ATOM      5  C   UNL     1       6.079  10.607  -5.192  0.00  0.00    +0.000 C 
ATOM      6  C   UNL     1       6.435  11.559  -4.030  0.00  0.00    +0.000 C 
ATOM      7  C   UNL     1       7.663  11.023  -3.276  0.00  0.00    +0.000 C 
ATOM      8  C   UNL     1       7.505   9.567  -2.851  0.00  0.00    +0.000 C 
ENDROOT
BRANCH   6   9
ATOM      9  N   UNL     1       5.240  11.906  -3.191  0.00  0.00    +0.000 N 
ATOM     10  C   UNL     1       4.496  10.981  -2.465  0.00  0.00    +0.000 C 
ATOM     11  O   UNL     1       4.907  10.126  -1.692  0.00  0.00    +0.000 OA
ATOM     12  O   UNL     1       3.166  11.047  -2.715  0.00  0.00    +0.000 OA
ATOM     13  C   UNL     1       2.641  12.232  -2.158  0.00  0.00    +0.000 C 
ATOM     14  C   UNL     1       3.445  13.419  -2.591  0.00  0.00    +0.000 A 
ATOM     15  C   UNL     1       2.910  14.696  -2.419  0.00  0.00    +0.000 A 
ATOM     16  C   UNL     1       3.653  15.807  -2.789  0.00  0.00    +0.000 A 
ATOM     17  C   UNL     1       4.931  15.644  -3.320  0.00  0.00    +0.000 A 
ATOM     18  C   UNL     1       5.472  14.367  -3.494  0.00  0.00    +0.000 A 
ATOM     19  C   UNL     1       4.732  13.239  -3.136  0.00  0.00    +0.000 A 
ENDBRANCH   6   9
BRANCH   1  24
ATOM     20  C   UNL     1       5.249   2.505  -1.009  0.00  0.00    +0.000 A 
ATOM     21  C   UNL     1       6.116   2.754  -2.057  0.00  0.00    +0.000 A 
ATOM     22  C   UNL     1       6.176   4.162  -2.229  0.00  0.00    +0.000 A 
ATOM     23  C   UNL     1       6.814   5.046  -3.129  0.00  0.00    +0.000 A 
ATOM     24  C   UNL     1       6.610   6.436  -3.002  0.00  0.00    +0.000 A 
ATOM     25  C   UNL     1       5.759   6.902  -1.995  0.00  0.00    +0.000 A 
ATOM     26  C   UNL     1       5.144   6.050  -1.067  0.00  0.00    +0.000 A 
ATOM     27  C   UNL     1       5.368   4.689  -1.230  0.00  0.00    +0.000 A 
ATOM     28  O   UNL     1       4.817   3.690  -0.477  0.00  0.00    +0.000 OA
BRANCH  20  29
ATOM     29  C   UNL     1       4.755   1.237  -0.404  0.00  0.00    +0.000 C 
BRANCH  29  33
ATOM     30  C   UNL     1       1.159   0.088   0.034  0.00  0.00    +0.000 C 
ATOM     31  C   UNL     1       2.668   0.040   0.054  0.00  0.00    +0.000 C 
ATOM     32  O   UNL     1       3.274  -0.952   0.450  0.00  0.00    +0.000 OA
ATOM     33  N   UNL     1       3.306   1.171  -0.406  0.00  0.00    +0.000 N 
ATOM     34  H   UNL     1       2.782   1.988  -0.689  0.00  0.00    +0.000 HD
ENDBRANCH  29  33
ENDBRANCH  20  29
ENDBRANCH   1  24
TORSDOF 4
