REMARK  Name = CHEMBL1779407
REMARK  14 active torsions:
REMARK  status: ('A' for Active; 'I' for Inactive)
REMARK    1  A    between atoms: C_1  and  O_2
REMARK    2  A    between atoms: O_2  and  C_3
REMARK    3  A    between atoms: C_6  and  S_7
REMARK    4  A    between atoms: S_7  and  N_10
REMARK    5  A    between atoms: C_13  and  C_14
REMARK    6  A    between atoms: C_13  and  N_30
REMARK    7  A    between atoms: C_17  and  C_18
REMARK    8  A    between atoms: C_18  and  N_19
REMARK    9  A    between atoms: N_22  and  C_23
REMARK   10  A    between atoms: C_27  and  O_28
REMARK   11  A    between atoms: O_28  and  C_29
REMARK   12  A    between atoms: C_34  and  C_35
REMARK   13  A    between atoms: N_37  and  C_38
REMARK   14  A    between atoms: N_37  and  C_39
REMARK                            x       y       z     vdW  Elec       q    Type
REMARK                         _______ _______ _______ _____ _____    ______ ____
ROOT
ATOM      1  N   UNL     1       6.418  -6.496  -3.884  0.00  0.00    +0.000 N 
ATOM      2  C   UNL     1       5.252  -7.161  -3.588  0.00  0.00    +0.000 C 
ATOM      3  O   UNL     1       5.182  -7.802  -2.543  0.00  0.00    +0.000 OA
ATOM      4  C   UNL     1       4.558  -7.299  -4.999  0.00  0.00    +0.000 C 
ATOM      5  C   UNL     1       5.421  -8.335  -5.704  0.00  0.00    +0.000 A 
ATOM      6  C   UNL     1       4.884  -9.701  -6.432  0.00  0.00    +0.000 A 
ATOM      7  C   UNL     1       5.758 -10.852  -6.375  0.00  0.00    +0.000 A 
ATOM      8 CL   UNL     1       5.034 -12.449  -5.610  0.00  0.00    +0.000 Cl
ATOM      9  C   UNL     1       7.151 -10.548  -6.013  0.00  0.00    +0.000 A 
ATOM     10  C   UNL     1       7.630  -9.094  -5.381  0.00  0.00    +0.000 A 
ATOM     11  C   UNL     1       6.719  -8.005  -4.944  0.00  0.00    +0.000 A 
ENDROOT
BRANCH   4  12
ATOM     12  C   UNL     1       3.218  -7.753  -4.518  0.00  0.00    +0.000 A 
ATOM     13  C   UNL     1       2.184  -6.813  -4.289  0.00  0.00    +0.000 A 
ATOM     14  C   UNL     1       0.983  -7.187  -3.787  0.00  0.00    +0.000 A 
ATOM     15  C   UNL     1       0.726  -8.533  -3.762  0.00  0.00    +0.000 A 
ATOM     16  C   UNL     1       1.751  -9.479  -3.868  0.00  0.00    +0.000 A 
ATOM     17  C   UNL     1       3.050  -9.068  -4.007  0.00  0.00    +0.000 A 
BRANCH  17  18
ATOM     18  O   UNL     1       3.910 -10.079  -3.576  0.00  0.00    +0.000 OA
ATOM     19  C   UNL     1       5.322 -10.149  -3.584  0.00  0.00    +0.000 C 
ENDBRANCH  17  18
BRANCH  15  20
ATOM     20  C   UNL     1      -0.667  -8.916  -3.457  0.00  0.00    +0.000 C 
BRANCH  20  21
ATOM     21  N   UNL     1      -0.676  -9.714  -2.257  0.00  0.00    +0.000 NA
ATOM     22  C   UNL     1      -2.045 -10.115  -1.967  0.00  0.00    +0.000 C 
ATOM     23  C   UNL     1      -2.050 -11.052  -0.754  0.00  0.00    +0.000 C 
ATOM     24  N   UNL     1      -1.401 -10.497   0.459  0.00  0.00    +0.000 NA
ATOM     25  C   UNL     1      -2.233  -9.446   1.040  0.00  0.00    +0.000 C 
ATOM     26  C   UNL     1      -0.071  -9.945   0.116  0.00  0.00    +0.000 C 
ATOM     27  C   UNL     1      -0.098  -9.003  -1.096  0.00  0.00    +0.000 C 
ENDBRANCH  20  21
ENDBRANCH  15  20
ENDBRANCH   4  12
BRANCH   4  28
ATOM     28  N   UNL     1       4.817  -6.125  -5.937  0.00  0.00    +0.000 NA
ATOM     29  C   UNL     1       6.185  -5.698  -6.401  0.00  0.00    +0.000 C 
ATOM     30  C   UNL     1       6.551  -4.475  -5.578  0.00  0.00    +0.000 C 
ATOM     31  C   UNL     1       5.213  -3.800  -5.489  0.00  0.00    +0.000 C 
ATOM     32  C   UNL     1       4.152  -4.880  -5.706  0.00  0.00    +0.000 C 
BRANCH  32  33
ATOM     33  C   UNL     1       3.202  -4.645  -6.904  0.00  0.00    +0.000 C 
ATOM     34  O   UNL     1       3.225  -5.348  -7.918  0.00  0.00    +0.000 OA
ATOM     35  N   UNL     1       2.309  -3.599  -6.766  0.00  0.00    +0.000 N 
ATOM     36  C   UNL     1       2.171  -2.796  -5.574  0.00  0.00    +0.000 C 
ATOM     37  C   UNL     1       1.487  -3.232  -7.899  0.00  0.00    +0.000 C 
ENDBRANCH  32  33
ENDBRANCH   4  28
BRANCH   1  38
ATOM     38  S   UNL     1       6.245  -5.326  -2.059  0.00  0.00    +0.000 S 
ATOM     39  O   UNL     1       7.539  -4.542  -2.076  0.00  0.00    +0.000 OA
ATOM     40  O   UNL     1       5.887  -6.093  -0.966  0.00  0.00    +0.000 OA
BRANCH  38  44
ATOM     41  C   UNL     1       3.242  -1.303  -0.424  0.00  0.00    +0.000 A 
ATOM     42  C   UNL     1       4.405  -1.742   0.206  0.00  0.00    +0.000 A 
ATOM     43  C   UNL     1       5.247  -2.837  -0.353  0.00  0.00    +0.000 A 
ATOM     44  C   UNL     1       4.957  -3.595  -1.577  0.00  0.00    +0.000 A 
ATOM     45  C   UNL     1       3.729  -3.157  -2.125  0.00  0.00    +0.000 A 
ATOM     46  C   UNL     1       2.918  -2.008  -1.585  0.00  0.00    +0.000 A 
BRANCH  41  48
ATOM     47  C   UNL     1       1.178  -0.092   0.022  0.00  0.00    +0.000 C 
ATOM     48  O   UNL     1       2.610  -0.186   0.080  0.00  0.00    +0.000 OA
ENDBRANCH  41  48
ENDBRANCH  38  44
ENDBRANCH   1  38
TORSDOF 9
