REMARK  Name = CHEMBL474621
REMARK  7 active torsions:
REMARK  status: ('A' for Active; 'I' for Inactive)
REMARK    1  A    between atoms: C_1  and  C_2
REMARK    2  A    between atoms: C_4  and  C_5
REMARK    3  A    between atoms: N_7  and  C_8
REMARK    4  A    between atoms: N_7  and  C_15
REMARK    5  A    between atoms: C_8  and  C_9
REMARK    6  A    between atoms: C_15  and  C_16
REMARK    7  A    between atoms: C_23  and  C_24
REMARK                            x       y       z     vdW  Elec       q    Type
REMARK                         _______ _______ _______ _____ _____    ______ ____
ROOT
ATOM      1  C   UNL     1      -1.849  -2.824  -0.383  0.00  0.00    +0.000 C 
ATOM      2  O   UNL     1      -1.222  -3.839  -0.044  0.00  0.00    +0.000 OA
ATOM      3  N   UNL     1      -3.303  -2.640  -0.051  0.00  0.00    +0.000 N 
ENDROOT
BRANCH   1   7
ATOM      4  C   UNL     1       2.862  -0.005   0.075  0.00  0.00    +0.000 C 
ATOM      5  C   UNL     1       1.412  -0.104   0.556  0.00  0.00    +0.000 A 
ATOM      6  C   UNL     1       0.603  -1.498  -0.240  0.00  0.00    +0.000 A 
ATOM      7  C   UNL     1      -1.080  -1.383  -0.946  0.00  0.00    +0.000 A 
ATOM      8  C   UNL     1      -2.080   0.225  -0.658  0.00  0.00    +0.000 A 
ATOM      9  C   UNL     1      -1.412   1.453   0.821  0.00  0.00    +0.000 A 
ATOM     10  C   UNL     1       0.509   1.408   1.051  0.00  0.00    +0.000 A 
BRANCH  10  11
ATOM     11  C   UNL     1       1.282   2.588   0.363  0.00  0.00    +0.000 A 
ATOM     12  C   UNL     1       1.011   3.609   1.210  0.00  0.00    +0.000 A 
ATOM     13  C   UNL     1       1.408   4.856   0.900  0.00  0.00    +0.000 A 
ATOM     14  C   UNL     1       2.274   5.051  -0.166  0.00  0.00    +0.000 A 
ATOM     15  C   UNL     1       2.504   4.067  -1.128  0.00  0.00    +0.000 A 
ATOM     16  C   UNL     1       1.941   2.814  -0.915  0.00  0.00    +0.000 A 
ENDBRANCH  10  11
ENDBRANCH   1   7
BRANCH   3  17
ATOM     17  C   UNL     1      -4.129  -1.303   0.113  0.00  0.00    +0.000 C 
BRANCH  17  18
ATOM     18  C   UNL     1      -3.435  -0.001   0.947  0.00  0.00    +0.000 A 
ATOM     19  C   UNL     1      -3.872   1.430   0.178  0.00  0.00    +0.000 A 
ATOM     20  C   UNL     1      -2.765   2.402  -0.717  0.00  0.00    +0.000 A 
ATOM     21  C   UNL     1      -1.043   1.956  -1.016  0.00  0.00    +0.000 A 
ATOM     22  C   UNL     1      -0.470   0.371  -0.150  0.00  0.00    +0.000 A 
ATOM     23  C   UNL     1      -1.726  -0.479   1.081  0.00  0.00    +0.000 A 
ENDBRANCH  17  18
ENDBRANCH   3  17
BRANCH   3  24
ATOM     24  C   UNL     1      -4.104  -3.833   0.004  0.00  0.00    +0.000 C 
BRANCH  24  25
ATOM     25  C   UNL     1      -5.644  -3.599  -0.015  0.00  0.00    +0.000 C 
ATOM     26  C   UNL     1      -6.305  -4.490  -1.022  0.00  0.00    +0.000 C 
ATOM     27  C   UNL     1      -7.475  -3.664  -1.515  0.00  0.00    +0.000 C 
ATOM     28  C   UNL     1      -6.980  -2.257  -1.476  0.00  0.00    +0.000 C 
ATOM     29  O   UNL     1      -6.128  -2.288  -0.361  0.00  0.00    +0.000 OA
ENDBRANCH  24  25
ENDBRANCH   3  24
TORSDOF 6
