REMARK  Name = CHEMBL1092458
REMARK  8 active torsions:
REMARK  status: ('A' for Active; 'I' for Inactive)
REMARK    1  A    between atoms: C_1  and  C_2
REMARK    2  A    between atoms: C_2  and  N_3
REMARK    3  A    between atoms: N_3  and  C_20
REMARK    4  A    between atoms: C_4  and  C_6
REMARK    5  A    between atoms: C_9  and  C_10
REMARK    6  A    between atoms: C_16  and  C_17
REMARK    7  A    between atoms: C_23  and  O_24
REMARK    8  A    between atoms: O_24  and  C_25
REMARK                            x       y       z     vdW  Elec       q    Type
REMARK                         _______ _______ _______ _____ _____    ______ ____
ROOT
ATOM      1  C   UNL     1       0.668   1.761  -1.760  0.00  0.00    +0.000 A 
ATOM      2  C   UNL     1       0.075   2.105  -0.563  0.00  0.00    +0.000 A 
ATOM      3  N   UNL     1      -1.219   1.797  -0.282  0.00  0.00    +0.000 NA
ATOM      4  C   UNL     1      -1.972   1.305  -1.300  0.00  0.00    +0.000 A 
ATOM      5  C   UNL     1      -1.404   1.143  -2.559  0.00  0.00    +0.000 A 
ATOM      6  N   UNL     1      -0.077   1.315  -2.810  0.00  0.00    +0.000 NA
ENDROOT
BRANCH   4   7
ATOM      7  C   UNL     1      -3.407   1.100  -1.029  0.00  0.00    +0.000 A 
ATOM      8  C   UNL     1      -4.071  -0.077  -1.448  0.00  0.00    +0.000 A 
ATOM      9  C   UNL     1      -5.453  -0.231  -1.285  0.00  0.00    +0.000 A 
ATOM     10  C   UNL     1      -6.192   0.779  -0.679  0.00  0.00    +0.000 A 
ATOM     11  C   UNL     1      -5.549   1.927  -0.233  0.00  0.00    +0.000 A 
ATOM     12  F   UNL     1      -6.286   2.891   0.338  0.00  0.00    +0.000 F 
ATOM     13  C   UNL     1      -4.171   2.107  -0.392  0.00  0.00    +0.000 A 
ATOM     14  C   UNL     1      -3.537   3.388   0.079  0.00  0.00    +0.000 C 
ENDBRANCH   4   7
BRANCH   1  16
ATOM     15  N   UNL     1       3.012   0.968  -1.103  0.00  0.00    +0.000 N 
ATOM     16  C   UNL     1       2.152   1.778  -1.915  0.00  0.00    +0.000 C 
ATOM     17  O   UNL     1       2.568   2.504  -2.812  0.00  0.00    +0.000 OA
BRANCH  15  18
ATOM     18  C   UNL     1       4.452   1.131  -1.287  0.00  0.00    +0.000 A 
ATOM     19  C   UNL     1       5.329   0.043  -1.258  0.00  0.00    +0.000 A 
ATOM     20  C   UNL     1       6.702   0.219  -1.472  0.00  0.00    +0.000 A 
ATOM     21  C   UNL     1       7.202   1.493  -1.681  0.00  0.00    +0.000 A 
ATOM     22  N   UNL     1       6.397   2.575  -1.670  0.00  0.00    +0.000 NA
ATOM     23  C   UNL     1       5.058   2.371  -1.495  0.00  0.00    +0.000 A 
BRANCH  21  24
ATOM     24  O   UNL     1       8.519   1.785  -1.916  0.00  0.00    +0.000 OA
ATOM     25  C   UNL     1       9.415   0.681  -1.981  0.00  0.00    +0.000 C 
ENDBRANCH  21  24
ENDBRANCH  15  18
BRANCH  15  27
ATOM     26  C   UNL     1       1.196  -0.420   0.137  0.00  0.00    +0.000 C 
ATOM     27  C   UNL     1       2.646  -0.051  -0.069  0.00  0.00    +0.000 C 
ENDBRANCH  15  27
ENDBRANCH   1  16
TORSDOF 5
