REMARK  Name = CHEMBL283039
REMARK  7 active torsions:
REMARK  status: ('A' for Active; 'I' for Inactive)
REMARK    1  A    between atoms: C_2  and  C_3
REMARK    2  A    between atoms: C_3  and  N_4
REMARK    3  A    between atoms: C_6  and  C_7
REMARK    4  A    between atoms: N_15  and  C_16
REMARK    5  A    between atoms: C_16  and  C_17
REMARK    6  A    between atoms: C_21  and  C_22
REMARK    7  A    between atoms: C_27  and  N_28
REMARK                            x       y       z     vdW  Elec       q    Type
REMARK                         _______ _______ _______ _____ _____    ______ ____
ROOT
ATOM      1  C   UNL     1       5.427  -1.658  -2.197  0.00  0.00    +0.000 A 
ATOM      2  C   UNL     1       6.729  -1.297  -2.543  0.00  0.00    +0.000 A 
ATOM      3  C   UNL     1       7.025  -2.081  -3.686  0.00  0.00    +0.000 A 
ATOM      4  C   UNL     1       6.453  -2.108  -4.991  0.00  0.00    +0.000 A 
ATOM      5  C   UNL     1       6.467  -3.225  -5.855  0.00  0.00    +0.000 A 
ATOM      6  C   UNL     1       7.182  -4.328  -5.412  0.00  0.00    +0.000 A 
ATOM      7  C   UNL     1       7.462  -4.404  -4.018  0.00  0.00    +0.000 A 
ATOM      8  C   UNL     1       6.920  -3.366  -3.166  0.00  0.00    +0.000 A 
ATOM      9  O   UNL     1       5.450  -3.096  -2.593  0.00  0.00    +0.000 OA
ENDROOT
BRANCH   5  10
ATOM     10  C   UNL     1       5.597  -3.276  -7.098  0.00  0.00    +0.000 C 
ATOM     11  O   UNL     1       5.596  -4.306  -7.770  0.00  0.00    +0.000 OA
ATOM     12  N   UNL     1       4.770  -2.148  -7.383  0.00  0.00    +0.000 N 
ATOM     13  C   UNL     1       3.296  -2.202  -7.421  0.00  0.00    +0.000 C 
ATOM     14  C   UNL     1       2.710  -1.299  -8.542  0.00  0.00    +0.000 C 
ATOM     15  C   UNL     1       3.118   0.459  -8.361  0.00  0.00    +0.000 C 
ATOM     16  C   UNL     1       4.797   0.112  -8.502  0.00  0.00    +0.000 C 
ATOM     17  C   UNL     1       5.308  -0.794  -7.375  0.00  0.00    +0.000 C 
BRANCH  15  18
ATOM     18  N   UNL     1       2.007   1.878  -7.854  0.00  0.00    +0.000 N 
ATOM     19  C   UNL     1       0.984   1.028  -8.351  0.00  0.00    +0.000 C 
ATOM     20  O   UNL     1       0.882   0.496  -9.483  0.00  0.00    +0.000 OA
ATOM     21  O   UNL     1       0.229   0.535  -7.383  0.00  0.00    +0.000 OA
ATOM     22  C   UNL     1      -0.805   1.430  -7.484  0.00  0.00    +0.000 C 
ATOM     23  C   UNL     1      -0.328   2.259  -6.371  0.00  0.00    +0.000 A 
ATOM     24  C   UNL     1      -1.455   2.518  -5.394  0.00  0.00    +0.000 A 
ATOM     25  C   UNL     1      -1.697   3.670  -4.715  0.00  0.00    +0.000 A 
ATOM     26  F   UNL     1      -2.722   3.788  -3.841  0.00  0.00    +0.000 F 
ATOM     27  C   UNL     1      -0.819   4.638  -5.106  0.00  0.00    +0.000 A 
ATOM     28  C   UNL     1       0.486   4.264  -6.070  0.00  0.00    +0.000 A 
ATOM     29  C   UNL     1       0.943   2.831  -6.651  0.00  0.00    +0.000 A 
ENDBRANCH  15  18
ENDBRANCH   5  10
BRANCH   1  30
ATOM     30  C   UNL     1       4.604  -0.922  -1.069  0.00  0.00    +0.000 C 
BRANCH  30  33
ATOM     31  O   UNL     1       1.167  -0.076  -0.153  0.00  0.00    +0.000 OA
ATOM     32  C   UNL     1       2.400  -0.060  -0.063  0.00  0.00    +0.000 C 
ATOM     33  N   UNL     1       3.146  -0.772  -1.017  0.00  0.00    +0.000 N 
ATOM     34  H   UNL     1       2.564  -1.213  -1.720  0.00  0.00    +0.000 HD
BRANCH  32  35
ATOM     35  C   UNL     1       3.104   0.717   1.102  0.00  0.00    +0.000 C 
BRANCH  35  36
ATOM     36  N   UNL     1       2.207   1.407   2.076  0.00  0.00    +0.000 N 
ATOM     37  C   UNL     1       1.229   0.686   2.761  0.00  0.00    +0.000 A 
ATOM     38  C   UNL     1       0.236   1.297   3.437  0.00  0.00    +0.000 A 
ATOM     39  C   UNL     1       0.295   2.735   3.622  0.00  0.00    +0.000 A 
ATOM     40  C   UNL     1       1.315   3.441   3.120  0.00  0.00    +0.000 A 
ATOM     41  C   UNL     1       2.279   2.799   2.182  0.00  0.00    +0.000 A 
ATOM     42  O   UNL     1       3.070   3.509   1.569  0.00  0.00    +0.000 OA
BRANCH  38  43
ATOM     43  C   UNL     1      -0.945   0.576   4.027  0.00  0.00    +0.000 C 
ATOM     44  F   UNL     1      -1.031   0.760   5.370  0.00  0.00    +0.000 F 
ATOM     45  F   UNL     1      -2.117   1.018   3.500  0.00  0.00    +0.000 F 
ATOM     46  F   UNL     1      -0.900  -0.764   3.817  0.00  0.00    +0.000 F 
ENDBRANCH  38  43
ENDBRANCH  35  36
ENDBRANCH  32  35
ENDBRANCH  30  33
ENDBRANCH   1  30
TORSDOF 7
