REMARK  Name = CHEMBL1630525
REMARK  23 active torsions:
REMARK  status: ('A' for Active; 'I' for Inactive)
REMARK    1  A    between atoms: C_1  and  C_2
REMARK    2  A    between atoms: C_2  and  C_3
REMARK    3  A    between atoms: C_3  and  C_4
REMARK    4  A    between atoms: C_3  and  C_5
REMARK    5  A    between atoms: C_9  and  C_10
REMARK    6  A    between atoms: C_10  and  C_11
REMARK    7  A    between atoms: C_14  and  O_15
REMARK    8  A    between atoms: C_21  and  N_22
REMARK    9  A    between atoms: C_27  and  C_28
REMARK   10  A    between atoms: C_34  and  C_35
REMARK   11  A    between atoms: N_37  and  C_38
REMARK   12  A    between atoms: C_38  and  C_39
REMARK   13  A    between atoms: C_38  and  N_43
REMARK   14  A    between atoms: C_39  and  C_40
REMARK   15  A    between atoms: C_40  and  C_41
REMARK   16  A    between atoms: C_40  and  C_42
REMARK   17  A    between atoms: N_43  and  C_44
REMARK   18  A    between atoms: C_44  and  C_45
REMARK   19  A    between atoms: C_51  and  C_52
REMARK   20  A    between atoms: C_52  and  C_53
REMARK   21  A    between atoms: C_59  and  C_60
REMARK   22  A    between atoms: C_60  and  C_61
REMARK   23  A    between atoms: C_61  and  C_62
REMARK                            x       y       z     vdW  Elec       q    Type
REMARK                         _______ _______ _______ _____ _____    ______ ____
ROOT
ATOM      1  C   UNL     1       4.470  -1.496  -0.026  0.00  0.00    +0.000 C 
ATOM      2  N   UNL     1       7.397 -11.304  -7.583  0.00  0.00    +0.000 N 
ATOM      3  C   UNL     1       6.373 -10.438  -6.981  0.00  0.00    +0.000 C 
ATOM      4  O   UNL     1       6.088 -10.553  -5.748  0.00  0.00    +0.000 OA
ATOM      5  C   UNL     1       5.656  -9.404  -7.834  0.00  0.00    +0.000 C 
ATOM      6  N   UNL     1       4.212  -9.681  -7.827  0.00  0.00    +0.000 N 
ATOM      7  C   UNL     1       3.468  -9.674  -6.559  0.00  0.00    +0.000 C 
ATOM      8  O   UNL     1       2.220  -9.913  -6.554  0.00  0.00    +0.000 OA
ATOM      9  C   UNL     1       4.191  -9.381  -5.255  0.00  0.00    +0.000 C 
ATOM     10  C   UNL     1       3.584  -8.148  -4.605  0.00  0.00    +0.000 C 
ATOM     11 TE   UNL     1       1.511  -8.500  -4.207  0.00  0.00    +0.000 Te
ATOM     12 TE   UNL     1       0.409  -6.262  -3.027  0.00  0.00    +0.000 Te
ATOM     13  C   UNL     1      -1.665  -6.613  -2.629  0.00  0.00    +0.000 C 
ATOM     14  C   UNL     1      -2.272  -5.381  -1.979  0.00  0.00    +0.000 C 
ATOM     15  N   UNL     1      -1.572  -5.097  -0.717  0.00  0.00    +0.000 N 
ATOM     16  C   UNL     1      -0.128  -4.820  -0.724  0.00  0.00    +0.000 C 
ATOM     17  O   UNL     1       0.477  -4.575   0.366  0.00  0.00    +0.000 OA
ATOM     18  C   UNL     1       0.641  -4.828  -2.035  0.00  0.00    +0.000 C 
ATOM     19  N   UNL     1       1.247  -3.507  -2.255  0.00  0.00    +0.000 N 
ATOM     20  C   UNL     1       2.209  -2.968  -1.282  0.00  0.00    +0.000 C 
ATOM     21  O   UNL     1       2.733  -1.826  -1.471  0.00  0.00    +0.000 OA
ATOM     22  C   UNL     1       2.576  -3.778  -0.048  0.00  0.00    +0.000 C 
ATOM     23  N   UNL     1       4.021  -4.046  -0.051  0.00  0.00    +0.000 N 
ATOM     24  C   UNL     1       4.976  -2.929  -0.040  0.00  0.00    +0.000 C 
ATOM     25  O   UNL     1       6.226  -3.161  -0.042  0.00  0.00    +0.000 OA
ATOM     26  H   UNL     1       7.871 -11.999  -8.095  0.00  0.00    +0.000 HD
ATOM     27  H   UNL     1       3.743  -9.871  -8.672  0.00  0.00    +0.000 HD
ATOM     28  H   UNL     1      -2.070  -5.093   0.132  0.00  0.00    +0.000 HD
ATOM     29  H   UNL     1       1.009  -2.982  -3.053  0.00  0.00    +0.000 HD
ATOM     30  H   UNL     1       4.349  -4.974  -0.060  0.00  0.00    +0.000 HD
ENDROOT
BRANCH  14  31
ATOM     31  C   UNL     1      -3.744  -5.630  -1.696  0.00  0.00    +0.000 C 
ATOM     32  O   UNL     1      -4.181  -5.573  -0.504  0.00  0.00    +0.000 OA
ATOM     33  N   UNL     1      -4.663  -5.938  -2.802  0.00  0.00    +0.000 N 
ATOM     34  C   UNL     1      -4.418  -6.881  -3.908  0.00  0.00    +0.000 C 
ATOM     35  C   UNL     1      -5.101  -6.194  -5.059  0.00  0.00    +0.000 C 
ATOM     36  C   UNL     1      -6.440  -5.705  -4.430  0.00  0.00    +0.000 C 
ATOM     37  C   UNL     1      -6.049  -5.365  -2.989  0.00  0.00    +0.000 C 
BRANCH  37  38
ATOM     38  C   UNL     1      -7.024  -5.999  -2.010  0.00  0.00    +0.000 C 
ATOM     39  O   UNL     1      -6.617  -6.881  -1.190  0.00  0.00    +0.000 OA
ATOM     40  N   UNL     1      -8.436  -5.592  -2.012  0.00  0.00    +0.000 N 
ATOM     41  H   UNL     1      -8.751  -4.909  -2.647  0.00  0.00    +0.000 HD
BRANCH  40  42
ATOM     42  C   UNL     1      -9.379  -6.206  -1.065  0.00  0.00    +0.000 C 
BRANCH  42  43
ATOM     43  N   UNL     1     -10.718  -5.633  -1.266  0.00  0.00    +0.000 NA
ATOM     44  H   UNL     1     -11.026  -5.818  -2.220  0.00  0.00    +0.000 HD
BRANCH  43  45
ATOM     45  C   UNL     1     -11.660  -6.247  -0.319  0.00  0.00    +0.000 C 
BRANCH  45  46
ATOM     46  C   UNL     1     -13.044  -5.655  -0.527  0.00  0.00    +0.000 C 
ATOM     47  N   UNL     1     -13.258  -4.630  -1.559  0.00  0.00    +0.000 N 
ATOM     48  O   UNL     1     -14.017  -6.046   0.192  0.00  0.00    +0.000 OA
ATOM     49  H   UNL     1     -12.505  -4.327  -2.115  0.00  0.00    +0.000 HD
ATOM     50  H   UNL     1     -14.155  -4.247  -1.693  0.00  0.00    +0.000 HD
ENDBRANCH  45  46
ENDBRANCH  43  45
ENDBRANCH  42  43
BRANCH  42  51
ATOM     51  C   UNL     1      -8.919  -5.931   0.358  0.00  0.00    +0.000 C 
BRANCH  51  52
ATOM     52  C   UNL     1      -7.534  -6.522   0.566  0.00  0.00    +0.000 C 
ATOM     53  C   UNL     1      -6.560  -5.888  -0.413  0.00  0.00    +0.000 C 
ATOM     54  C   UNL     1      -7.074  -6.247   1.988  0.00  0.00    +0.000 C 
ENDBRANCH  51  52
ENDBRANCH  42  51
ENDBRANCH  40  42
ENDBRANCH  37  38
ENDBRANCH  14  31
BRANCH   9  55
ATOM     55  N   UNL     1       5.615  -9.139  -5.528  0.00  0.00    +0.000 NA
ATOM     56  H   UNL     1       5.711  -8.342  -6.157  0.00  0.00    +0.000 HD
ATOM     57  H   UNL     1       6.023  -9.967  -5.965  0.00  0.00    +0.000 HD
ENDBRANCH   9  55
BRANCH   1  58
ATOM     58  C   UNL     1       2.950  -1.496  -0.026  0.00  0.00    +0.000 C 
ATOM     59  C   UNL     1       2.443  -0.063  -0.012  0.00  0.00    +0.000 C 
BRANCH  58  61
ATOM     60  C   UNL     1       2.235  -1.304  -2.484  0.00  0.00    +0.000 C 
ATOM     61  C   UNL     1       2.443  -2.200  -1.274  0.00  0.00    +0.000 C 
ENDBRANCH  58  61
ENDBRANCH   1  58
BRANCH  18  62
ATOM     62  C   UNL     1       1.733  -5.883  -1.976  0.00  0.00    +0.000 C 
BRANCH  62  63
ATOM     63  C   UNL     1       2.265  -5.878  -0.552  0.00  0.00    +0.000 C 
ATOM     64  N   UNL     1       1.481  -5.253   0.524  0.00  0.00    +0.000 N 
ATOM     65  O   UNL     1       3.388  -6.414  -0.291  0.00  0.00    +0.000 OA
ATOM     66  H   UNL     1       0.612  -4.838   0.321  0.00  0.00    +0.000 HD
ATOM     67  H   UNL     1       1.826  -5.250   1.446  0.00  0.00    +0.000 HD
ENDBRANCH  62  63
ENDBRANCH  18  62
BRANCH   5  68
ATOM     68  C   UNL     1       5.908  -8.017  -7.267  0.00  0.00    +0.000 C 
BRANCH  68  69
ATOM     69  C   UNL     1       7.390  -7.678  -7.251  0.00  0.00    +0.000 A 
ATOM     70  C   UNL     1       8.299  -8.545  -7.815  0.00  0.00    +0.000 A 
ATOM     71  C   UNL     1       9.667  -8.252  -7.823  0.00  0.00    +0.000 A 
ATOM     72  C   UNL     1      10.075  -7.030  -7.250  0.00  0.00    +0.000 A 
ATOM     73  C   UNL     1       9.162  -6.186  -6.664  0.00  0.00    +0.000 A 
ATOM     74  C   UNL     1       7.818  -6.507  -6.673  0.00  0.00    +0.000 A 
BRANCH  72  75
ATOM     75  O   UNL     1      11.374  -6.652  -7.234  0.00  0.00    +0.000 OA
ATOM     76  H   UNL     1      12.026  -7.200  -7.623  0.00  0.00    +0.000 HD
ENDBRANCH  72  75
ENDBRANCH  68  69
ENDBRANCH   5  68
BRANCH  22  77
ATOM     77  C   UNL     1       2.209  -2.993   1.201  0.00  0.00    +0.000 C 
BRANCH  77  78
ATOM     78  C   UNL     1       2.496  -1.526   0.923  0.00  0.00    +0.000 C 
BRANCH  78  79
ATOM     79  C   UNL     1       2.314  -0.723   2.200  0.00  0.00    +0.000 C 
ATOM     80  N   UNL     1       1.917  -1.400   3.443  0.00  0.00    +0.000 N 
ATOM     81  O   UNL     1       2.505   0.533   2.194  0.00  0.00    +0.000 OA
ATOM     82  H   UNL     1       1.769  -2.373   3.448  0.00  0.00    +0.000 HD
ATOM     83  H   UNL     1       1.800  -0.880   4.271  0.00  0.00    +0.000 HD
ENDBRANCH  78  79
ENDBRANCH  77  78
ENDBRANCH  22  77
TORSDOF 19
