REMARK  Name = CHEMBL563905
REMARK  8 active torsions:
REMARK  status: ('A' for Active; 'I' for Inactive)
REMARK    1  A    between atoms: C_1  and  O_2
REMARK    2  A    between atoms: O_2  and  C_3
REMARK    3  A    between atoms: C_6  and  N_7
REMARK    4  A    between atoms: C_8  and  C_9
REMARK    5  A    between atoms: C_12  and  C_13
REMARK    6  A    between atoms: C_16  and  O_17
REMARK    7  A    between atoms: O_17  and  C_18
REMARK    8  A    between atoms: C_23  and  C_24
REMARK                            x       y       z     vdW  Elec       q    Type
REMARK                         _______ _______ _______ _____ _____    ______ ____
ROOT
ATOM      1  N   UNL     1       5.258  -1.050   4.686  0.00  0.00    +0.000 N 
ATOM      2  C   UNL     1       5.577  -0.247   5.778  0.00  0.00    +0.000 A 
ATOM      3  C   UNL     1       5.099   1.122   6.104  0.00  0.00    +0.000 C 
ATOM      4  N   UNL     1       6.318  -0.947   6.618  0.00  0.00    +0.000 NA
ATOM      5  N   UNL     1       6.496  -2.198   6.110  0.00  0.00    +0.000 NA
ATOM      6  C   UNL     1       5.879  -2.273   4.941  0.00  0.00    +0.000 A 
ENDROOT
BRANCH   1  10
ATOM      7  C   UNL     1       3.084  -0.227   1.207  0.00  0.00    +0.000 A 
ATOM      8  C   UNL     1       2.709  -1.314   1.982  0.00  0.00    +0.000 A 
ATOM      9  C   UNL     1       3.421  -1.585   3.158  0.00  0.00    +0.000 A 
ATOM     10  C   UNL     1       4.472  -0.748   3.541  0.00  0.00    +0.000 A 
ATOM     11  C   UNL     1       4.807   0.292   2.688  0.00  0.00    +0.000 A 
ATOM     12  N   UNL     1       4.139   0.557   1.532  0.00  0.00    +0.000 NA
BRANCH   7  14
ATOM     13  C   UNL     1       1.069   0.058   0.004  0.00  0.00    +0.000 C 
ATOM     14  O   UNL     1       2.496   0.073   0.005  0.00  0.00    +0.000 OA
ENDBRANCH   7  14
ENDBRANCH   1  10
BRANCH   6  15
ATOM     15  C   UNL     1       5.969  -3.401   4.020  0.00  0.00    +0.000 A 
ATOM     16  C   UNL     1       6.483  -3.263   2.733  0.00  0.00    +0.000 A 
ATOM     17  N   UNL     1       6.543  -4.286   1.846  0.00  0.00    +0.000 NA
ATOM     18  C   UNL     1       6.159  -5.495   2.310  0.00  0.00    +0.000 A 
ATOM     19  C   UNL     1       5.660  -5.644   3.600  0.00  0.00    +0.000 A 
ATOM     20  N   UNL     1       5.535  -4.604   4.473  0.00  0.00    +0.000 NA
BRANCH  18  21
ATOM     21  O   UNL     1       6.290  -6.639   1.529  0.00  0.00    +0.000 OA
BRANCH  21  22
ATOM     22  C   UNL     1       6.903  -6.516   0.296  0.00  0.00    +0.000 A 
ATOM     23  C   UNL     1       6.140  -6.898  -0.817  0.00  0.00    +0.000 A 
ATOM     24  C   UNL     1       6.686  -6.842  -2.103  0.00  0.00    +0.000 A 
ATOM     25  C   UNL     1       7.998  -6.417  -2.280  0.00  0.00    +0.000 A 
ATOM     26  C   UNL     1       8.776  -6.080  -1.171  0.00  0.00    +0.000 A 
ATOM     27  C   UNL     1       8.250  -6.149   0.132  0.00  0.00    +0.000 A 
ATOM     28  C   UNL     1       9.161  -5.859   1.291  0.00  0.00    +0.000 C 
ENDBRANCH  21  22
ENDBRANCH  18  21
ENDBRANCH   6  15
TORSDOF 5
