REMARK  Name = CHEMBL514031
REMARK  7 active torsions:
REMARK  status: ('A' for Active; 'I' for Inactive)
REMARK    1  A    between atoms: C_1  and  C_2
REMARK    2  A    between atoms: C_4  and  C_5
REMARK    3  A    between atoms: C_13  and  C_14
REMARK    4  A    between atoms: N_16  and  C_17
REMARK    5  A    between atoms: N_16  and  C_21
REMARK    6  A    between atoms: C_17  and  C_18
REMARK    7  A    between atoms: C_21  and  C_22
REMARK                            x       y       z     vdW  Elec       q    Type
REMARK                         _______ _______ _______ _____ _____    ______ ____
ROOT
ATOM      1  C   UNL     1       2.595  -0.683   1.332  0.00  0.00    +0.000 C 
ATOM      2  C   UNL     1       0.883  -0.273   1.102  0.00  0.00    +0.000 A 
ATOM      3  C   UNL     1       0.049  -1.356   0.710  0.00  0.00    +0.000 A 
ATOM      4  C   UNL     1      -1.313  -1.225   0.284  0.00  0.00    +0.000 A 
ATOM      5  C   UNL     1      -1.900   0.033   0.127  0.00  0.00    +0.000 A 
ATOM      6  C   UNL     1      -1.111   1.182   0.284  0.00  0.00    +0.000 A 
ATOM      7  C   UNL     1       0.269   1.114   0.718  0.00  0.00    +0.000 A 
ENDROOT
BRANCH   4   8
ATOM      8  C   UNL     1      -2.038  -2.486   0.101  0.00  0.00    +0.000 A 
ATOM      9  C   UNL     1      -1.811  -3.476   1.079  0.00  0.00    +0.000 A 
ATOM     10  C   UNL     1      -2.287  -4.763   0.936  0.00  0.00    +0.000 A 
ATOM     11  C   UNL     1      -3.115  -5.052  -0.137  0.00  0.00    +0.000 A 
ATOM     12  C   UNL     1      -3.373  -4.085  -1.116  0.00  0.00    +0.000 A 
ATOM     13  C   UNL     1      -2.817  -2.807  -1.015  0.00  0.00    +0.000 A 
ENDBRANCH   4   8
BRANCH   7  14
ATOM     14  C   UNL     1       1.036   2.534   0.281  0.00  0.00    +0.000 C 
ATOM     15  O   UNL     1       0.335   3.595   0.197  0.00  0.00    +0.000 OA
ATOM     16  N   UNL     1       2.403   2.608  -0.138  0.00  0.00    +0.000 N 
BRANCH  16  17
ATOM     17  C   UNL     1       3.173   1.455  -0.622  0.00  0.00    +0.000 C 
BRANCH  17  18
ATOM     18  C   UNL     1       2.364   0.345  -1.052  0.00  0.00    +0.000 C 
ATOM     19  C   UNL     1       1.662  -0.230  -2.197  0.00  0.00    +0.000 C 
ATOM     20  C   UNL     1       2.377  -1.197  -1.286  0.00  0.00    +0.000 C 
ENDBRANCH  17  18
ENDBRANCH  16  17
BRANCH  16  21
ATOM     21  C   UNL     1       3.223   3.843  -0.050  0.00  0.00    +0.000 C 
BRANCH  21  22
ATOM     22  C   UNL     1       4.824   3.663  -0.002  0.00  0.00    +0.000 C 
ATOM     23  C   UNL     1       5.515   4.554  -1.020  0.00  0.00    +0.000 C 
ATOM     24  C   UNL     1       6.703   3.742  -1.500  0.00  0.00    +0.000 C 
ATOM     25  C   UNL     1       6.201   2.334  -1.420  0.00  0.00    +0.000 C 
ATOM     26  O   UNL     1       5.411   2.351  -0.227  0.00  0.00    +0.000 OA
ENDBRANCH  21  22
ENDBRANCH  16  21
ENDBRANCH   7  14
TORSDOF 6
