REMARK  Name = CHEMBL4127791
REMARK  22 active torsions:
REMARK  status: ('A' for Active; 'I' for Inactive)
REMARK    1  A    between atoms: C_1  and  C_2
REMARK    2  A    between atoms: C_2  and  C_3
REMARK    3  A    between atoms: C_3  and  C_4
REMARK    4  A    between atoms: C_3  and  C_5
REMARK    5  A    between atoms: C_9  and  C_10
REMARK    6  A    between atoms: C_10  and  C_11
REMARK    7  A    between atoms: C_14  and  O_15
REMARK    8  A    between atoms: C_34  and  C_35
REMARK    9  A    between atoms: C_41  and  C_42
REMARK   10  A    between atoms: N_44  and  C_45
REMARK   11  A    between atoms: C_45  and  C_46
REMARK   12  A    between atoms: C_45  and  C_50
REMARK   13  A    between atoms: C_46  and  C_47
REMARK   14  A    between atoms: C_47  and  C_48
REMARK   15  A    between atoms: C_47  and  C_49
REMARK   16  A    between atoms: N_52  and  C_53
REMARK   17  A    between atoms: C_53  and  C_54
REMARK   18  A    between atoms: C_60  and  C_61
REMARK   19  A    between atoms: C_61  and  C_62
REMARK   20  A    between atoms: C_68  and  C_69
REMARK   21  A    between atoms: C_69  and  C_70
REMARK   22  A    between atoms: C_70  and  C_71
REMARK                            x       y       z     vdW  Elec       q    Type
REMARK                         _______ _______ _______ _____ _____    ______ ____
ROOT
ATOM      1  C   UNL     1       3.005   3.229  -3.670  0.00  0.00    +0.000 C 
ATOM      2  N   UNL     1       1.785   4.839  -4.780  0.00  0.00    +0.000 N 
ATOM      3  C   UNL     1       0.934   6.569  -5.863  0.00  0.00    +0.000 C 
ATOM      4  O   UNL     1       1.193   7.858  -5.578  0.00  0.00    +0.000 OA
ATOM      5  C   UNL     1      -0.105   8.003  -7.379  0.00  0.00    +0.000 C 
ATOM      6  N   UNL     1       0.046  10.015  -7.902  0.00  0.00    +0.000 N 
ATOM      7  C   UNL     1       1.381  10.820  -8.188  0.00  0.00    +0.000 C 
ATOM      8  O   UNL     1       1.673  12.028  -8.289  0.00  0.00    +0.000 OA
ATOM      9  C   UNL     1       2.461   9.822  -8.073  0.00  0.00    +0.000 C 
ATOM     10  C   UNL     1       2.094   8.441  -8.138  0.00  0.00    +0.000 C 
ATOM     11  S   UNL     1       3.035   7.094  -7.898  0.00  0.00    +0.000 S 
ATOM     12  C   UNL     1       1.966   5.631  -7.988  0.00  0.00    +0.000 C 
ATOM     13  C   UNL     1       2.946   4.572  -7.791  0.00  0.00    +0.000 A 
ATOM     14  C   UNL     1       4.279   4.668  -7.551  0.00  0.00    +0.000 A 
ATOM     15  C   UNL     1       5.217   3.635  -7.680  0.00  0.00    +0.000 A 
ATOM     16  C   UNL     1       4.915   2.345  -7.705  0.00  0.00    +0.000 A 
ATOM     17  C   UNL     1       3.648   2.196  -7.554  0.00  0.00    +0.000 A 
ATOM     18  C   UNL     1       2.668   3.293  -7.954  0.00  0.00    +0.000 A 
ATOM     19  C   UNL     1       0.988   2.889  -8.657  0.00  0.00    +0.000 C 
ATOM     20  S   UNL     1      -0.405   1.271  -7.425  0.00  0.00    +0.000 S 
ATOM     21  C   UNL     1      -1.872   1.738  -6.781  0.00  0.00    +0.000 C 
ATOM     22  C   UNL     1      -2.215   1.315  -5.413  0.00  0.00    +0.000 C 
ATOM     23  N   UNL     1      -1.473   0.131  -4.929  0.00  0.00    +0.000 N 
ATOM     24  C   UNL     1      -0.141   0.060  -4.742  0.00  0.00    +0.000 C 
ATOM     25  O   UNL     1       0.363  -1.020  -4.471  0.00  0.00    +0.000 OA
ATOM     26  C   UNL     1       0.630   1.356  -4.998  0.00  0.00    +0.000 C 
ATOM     27  N   UNL     1       1.250   2.038  -4.130  0.00  0.00    +0.000 N 
ATOM     28  C   UNL     1       2.062   1.173  -3.722  0.00  0.00    +0.000 C 
ATOM     29  O   UNL     1       1.882   2.127  -2.909  0.00  0.00    +0.000 OA
ATOM     30  C   UNL     1       2.644  -0.488  -3.769  0.00  0.00    +0.000 C 
ATOM     31  N   UNL     1       3.981  -0.116  -4.028  0.00  0.00    +0.000 N 
ATOM     32  C   UNL     1       4.331   1.482  -3.746  0.00  0.00    +0.000 C 
ATOM     33  O   UNL     1       5.415   0.829  -3.112  0.00  0.00    +0.000 OA
ATOM     34  H   UNL     1       0.577   5.336  -4.667  0.00  0.00    +0.000 HD
ATOM     35  H   UNL     1      -0.604  11.036  -8.450  0.00  0.00    +0.000 HD
ATOM     36  H   UNL     1      -1.961  -0.760  -4.900  0.00  0.00    +0.000 HD
ATOM     37  H   UNL     1       1.062   2.807  -3.398  0.00  0.00    +0.000 HD
ATOM     38  H   UNL     1       4.495  -0.531  -4.812  0.00  0.00    +0.000 HD
ENDROOT
BRANCH  22  39
ATOM     39  C   UNL     1      -3.680   1.048  -5.631  0.00  0.00    +0.000 C 
ATOM     40  O   UNL     1      -3.966  -0.110  -5.348  0.00  0.00    +0.000 OA
ATOM     41  N   UNL     1      -4.530   2.109  -6.037  0.00  0.00    +0.000 N 
ATOM     42  C   UNL     1      -4.337   3.076  -7.106  0.00  0.00    +0.000 C 
ATOM     43  C   UNL     1      -4.977   4.323  -6.563  0.00  0.00    +0.000 C 
ATOM     44  C   UNL     1      -6.258   3.797  -5.973  0.00  0.00    +0.000 C 
ATOM     45  C   UNL     1      -5.917   2.389  -5.519  0.00  0.00    +0.000 C 
BRANCH  45  46
ATOM     46  C   UNL     1      -7.038   1.685  -6.348  0.00  0.00    +0.000 C 
ATOM     47  O   UNL     1      -6.670   0.989  -7.313  0.00  0.00    +0.000 OA
ATOM     48  N   UNL     1      -8.306   1.506  -5.674  0.00  0.00    +0.000 N 
ATOM     49  H   UNL     1      -8.625   2.116  -4.923  0.00  0.00    +0.000 HD
BRANCH  48  50
ATOM     50  C   UNL     1      -9.282   0.419  -6.065  0.00  0.00    +0.000 C 
BRANCH  50  51
ATOM     51  C   UNL     1     -10.687   0.706  -5.453  0.00  0.00    +0.000 C 
ATOM     52  O   UNL     1     -10.824   1.663  -4.688  0.00  0.00    +0.000 OA
ATOM     53  N   UNL     1     -11.746  -0.121  -5.792  0.00  0.00    +0.000 N 
ATOM     54  H   UNL     1     -11.627  -0.900  -6.415  0.00  0.00    +0.000 HD
BRANCH  53  55
ATOM     55  C   UNL     1     -13.097   0.092  -5.262  0.00  0.00    +0.000 C 
BRANCH  55  56
ATOM     56  C   UNL     1     -14.137  -0.936  -5.760  0.00  0.00    +0.000 C 
ATOM     57  N   UNL     1     -13.701  -1.920  -6.626  0.00  0.00    +0.000 N 
ATOM     58  O   UNL     1     -15.310  -0.878  -5.398  0.00  0.00    +0.000 OA
ATOM     59  H   UNL     1     -12.762  -2.032  -6.965  0.00  0.00    +0.000 HD
ATOM     60  H   UNL     1     -14.351  -2.617  -6.979  0.00  0.00    +0.000 HD
ENDBRANCH  55  56
ENDBRANCH  53  55
ENDBRANCH  50  51
BRANCH  50  61
ATOM     61  C   UNL     1      -8.838  -0.992  -5.645  0.00  0.00    +0.000 C 
BRANCH  61  62
ATOM     62  C   UNL     1      -7.489  -1.387  -6.213  0.00  0.00    +0.000 C 
ATOM     63  C   UNL     1      -6.386  -0.687  -5.531  0.00  0.00    +0.000 C 
ATOM     64  C   UNL     1      -7.041  -2.736  -5.826  0.00  0.00    +0.000 C 
ENDBRANCH  61  62
ENDBRANCH  50  61
ENDBRANCH  48  50
ENDBRANCH  45  46
ENDBRANCH  22  39
BRANCH   1  65
ATOM     65  C   UNL     1       3.330   1.574  -2.011  0.00  0.00    +0.000 C 
ATOM     66  C   UNL     1       2.793   0.387  -0.321  0.00  0.00    +0.000 C 
BRANCH  65  68
ATOM     67  C   UNL     1       0.631   0.837  -2.016  0.00  0.00    +0.000 C 
ATOM     68  C   UNL     1       2.045   0.964  -1.494  0.00  0.00    +0.000 C 
ENDBRANCH  65  68
ENDBRANCH   1  65
BRANCH  26  69
ATOM     69  C   UNL     1       1.843   1.213  -5.862  0.00  0.00    +0.000 C 
BRANCH  69  70
ATOM     70  C   UNL     1       1.553   1.907  -7.019  0.00  0.00    +0.000 C 
ATOM     71  N   UNL     1       0.373   3.295  -6.849  0.00  0.00    +0.000 N 
ATOM     72  O   UNL     1       1.884   1.216  -8.172  0.00  0.00    +0.000 OA
ATOM     73  H   UNL     1      -0.385   3.035  -6.281  0.00  0.00    +0.000 HD
ATOM     74  H   UNL     1      -0.400   3.233  -7.760  0.00  0.00    +0.000 HD
ENDBRANCH  69  70
ENDBRANCH  26  69
BRANCH   5  75
ATOM     75  C   UNL     1       0.010   8.328  -9.445  0.00  0.00    +0.000 C 
BRANCH  75  76
ATOM     76  C   UNL     1      -0.392   6.997  -9.777  0.00  0.00    +0.000 A 
ATOM     77  C   UNL     1      -1.357   6.499  -8.923  0.00  0.00    +0.000 A 
ATOM     78  C   UNL     1      -1.542   5.166  -8.799  0.00  0.00    +0.000 A 
ATOM     79  C   UNL     1      -1.021   4.362  -9.765  0.00  0.00    +0.000 A 
ATOM     80  C   UNL     1      -0.176   4.902 -10.735  0.00  0.00    +0.000 A 
ATOM     81  C   UNL     1       0.247   6.215 -10.681  0.00  0.00    +0.000 A 
BRANCH  79  82
ATOM     82  O   UNL     1      -1.170   3.010  -9.691  0.00  0.00    +0.000 OA
ATOM     83  H   UNL     1      -1.674   2.636  -8.949  0.00  0.00    +0.000 HD
ENDBRANCH  79  82
ENDBRANCH  75  76
ENDBRANCH   5  75
BRANCH  30  84
ATOM     84  C   UNL     1       2.272  -1.681  -2.657  0.00  0.00    +0.000 C 
BRANCH  84  85
ATOM     85  C   UNL     1       3.058  -2.896  -2.989  0.00  0.00    +0.000 C 
BRANCH  85  86
ATOM     86  C   UNL     1       2.568  -4.031  -2.095  0.00  0.00    +0.000 C 
ATOM     87  N   UNL     1       1.548  -3.830  -1.163  0.00  0.00    +0.000 N 
ATOM     88  O   UNL     1       3.085  -5.139  -2.213  0.00  0.00    +0.000 OA
ATOM     89  H   UNL     1       0.941  -3.035  -0.983  0.00  0.00    +0.000 HD
ATOM     90  H   UNL     1       1.246  -4.557  -0.541  0.00  0.00    +0.000 HD
ENDBRANCH  85  86
ENDBRANCH  84  85
ENDBRANCH  30  84
TORSDOF 18
