REMARK  Name = CHEMBL341339
REMARK  9 active torsions:
REMARK  status: ('A' for Active; 'I' for Inactive)
REMARK    1  A    between atoms: C_1  and  C_2
REMARK    2  A    between atoms: C_2  and  C_3
REMARK    3  A    between atoms: C_7  and  C_8
REMARK    4  A    between atoms: C_8  and  S_9
REMARK    5  A    between atoms: S_9  and  N_12
REMARK    6  A    between atoms: C_26  and  O_27
REMARK    7  A    between atoms: C_26  and  C_28
REMARK    8  A    between atoms: C_28  and  C_29
REMARK    9  A    between atoms: C_29  and  O_31
REMARK                            x       y       z     vdW  Elec       q    Type
REMARK                         _______ _______ _______ _____ _____    ______ ____
ROOT
ATOM      1  C   UNL     1       2.911  -2.708  -0.081  0.00  0.00    +0.000 C 
ENDROOT
BRANCH   1   8
ATOM      2  C   UNL     1       0.920  -0.053   0.125  0.00  0.00    +0.000 C 
ATOM      3  C   UNL     1       2.440  -0.055  -0.034  0.00  0.00    +0.000 C 
ATOM      4  C   UNL     1       2.687   0.125  -1.548  0.00  0.00    +0.000 C 
ATOM      5  C   UNL     1       3.205   0.967   0.863  0.00  0.00    +0.000 C 
ATOM      6  C   UNL     1       4.684   0.701   0.553  0.00  0.00    +0.000 C 
ATOM      7  C   UNL     1       4.700  -0.820   0.333  0.00  0.00    +0.000 C 
ATOM      8  C   UNL     1       3.148  -1.291   0.611  0.00  0.00    +0.000 C 
ATOM      9  C   UNL     1       2.889  -1.054   2.223  0.00  0.00    +0.000 C 
ATOM     10  C   UNL     1       2.993   0.482   2.319  0.00  0.00    +0.000 C 
BRANCH   9  11
ATOM     11  O   UNL     1       4.063  -1.843   2.385  0.00  0.00    +0.000 OA
ATOM     12  H   UNL     1       3.560  -2.686   2.323  0.00  0.00    +0.000 HD
ENDBRANCH   9  11
BRANCH   9  13
ATOM     13  C   UNL     1       2.585  -1.608   3.683  0.00  0.00    +0.000 C 
BRANCH  13  14
ATOM     14  C   UNL     1       1.185  -1.745   4.076  0.00  0.00    +0.000 C 
ATOM     15  O   UNL     1       0.247  -1.188   3.467  0.00  0.00    +0.000 OA
BRANCH  14  16
ATOM     16  O   UNL     1       0.989  -2.563   5.129  0.00  0.00    +0.000 OA
ATOM     17  H   UNL     1       1.805  -3.011   5.450  0.00  0.00    +0.000 HD
ENDBRANCH  14  16
ENDBRANCH  13  14
ENDBRANCH   9  13
ENDBRANCH   1   8
BRANCH   1  18
ATOM     18  S   UNL     1       3.323  -4.191   0.958  0.00  0.00    +0.000 S 
ATOM     19  O   UNL     1       4.765  -4.466   0.939  0.00  0.00    +0.000 OA
ATOM     20  O   UNL     1       2.709  -3.945   2.227  0.00  0.00    +0.000 OA
BRANCH  18  21
ATOM     21  N   UNL     1       2.440  -5.501   0.408  0.00  0.00    +0.000 NA
ATOM     22  C   UNL     1       2.977  -6.854   0.761  0.00  0.00    +0.000 C 
ATOM     23  C   UNL     1       2.370  -7.304   2.048  0.00  0.00    +0.000 C 
ATOM     24  C   UNL     1       0.583  -7.353   1.863  0.00  0.00    +0.000 C 
ATOM     25  C   UNL     1       0.947  -8.450   2.824  0.00  0.00    +0.000 C 
ATOM     26  C   UNL     1      -0.067  -8.713   3.628  0.00  0.00    +0.000 C 
ATOM     27  C   UNL     1      -0.834  -9.244   2.544  0.00  0.00    +0.000 A 
ATOM     28  C   UNL     1      -0.711 -10.614   2.133  0.00  0.00    +0.000 A 
ATOM     29  C   UNL     1      -1.414 -11.167   1.096  0.00  0.00    +0.000 A 
ATOM     30  C   UNL     1      -2.300 -10.279   0.564  0.00  0.00    +0.000 A 
ATOM     31  C   UNL     1      -2.059  -8.798   0.776  0.00  0.00    +0.000 A 
ATOM     32  C   UNL     1      -1.053  -8.203   1.671  0.00  0.00    +0.000 A 
ATOM     33  C   UNL     1       0.540  -5.837   2.205  0.00  0.00    +0.000 C 
ATOM     34  C   UNL     1       0.961  -5.310   0.805  0.00  0.00    +0.000 C 
ENDBRANCH  18  21
ENDBRANCH   1  18
TORSDOF 7
