REMARK  Name = CHEMBL3814395
REMARK  24 active torsions:
REMARK  status: ('A' for Active; 'I' for Inactive)
REMARK    1  A    between atoms: C_1  and  C_2
REMARK    2  A    between atoms: C_2  and  C_3
REMARK    3  A    between atoms: C_3  and  C_4
REMARK    4  A    between atoms: C_3  and  C_5
REMARK    5  A    between atoms: C_9  and  C_10
REMARK    6  A    between atoms: C_10  and  C_11
REMARK    7  A    between atoms: C_14  and  O_15
REMARK    8  A    between atoms: C_21  and  N_22
REMARK    9  A    between atoms: N_22  and  C_23
REMARK   10  A    between atoms: C_28  and  C_29
REMARK   11  A    between atoms: C_35  and  C_36
REMARK   12  A    between atoms: N_38  and  C_39
REMARK   13  A    between atoms: C_39  and  C_40
REMARK   14  A    between atoms: C_39  and  C_44
REMARK   15  A    between atoms: C_40  and  C_41
REMARK   16  A    between atoms: C_41  and  C_42
REMARK   17  A    between atoms: C_41  and  C_43
REMARK   18  A    between atoms: N_46  and  C_47
REMARK   19  A    between atoms: C_47  and  C_48
REMARK   20  A    between atoms: C_54  and  C_55
REMARK   21  A    between atoms: C_55  and  C_56
REMARK   22  A    between atoms: C_62  and  C_63
REMARK   23  A    between atoms: C_63  and  C_64
REMARK   24  A    between atoms: C_64  and  C_65
REMARK                            x       y       z     vdW  Elec       q    Type
REMARK                         _______ _______ _______ _____ _____    ______ ____
ROOT
ATOM      1  C   UNL     1       4.828  -3.081   4.032  0.00  0.00    +0.000 C 
ATOM      2  N   UNL     1       5.338  -4.819   5.387  0.00  0.00    +0.000 N 
ATOM      3  C   UNL     1       5.785  -6.071   6.797  0.00  0.00    +0.000 C 
ATOM      4  O   UNL     1       6.141  -5.521   8.051  0.00  0.00    +0.000 OA
ATOM      5  C   UNL     1       5.107  -8.123   7.131  0.00  0.00    +0.000 C 
ATOM      6  N   UNL     1       3.451  -8.720   7.603  0.00  0.00    +0.000 N 
ATOM      7  C   UNL     1       2.546  -7.763   8.046  0.00  0.00    +0.000 C 
ATOM      8  O   UNL     1       1.396  -8.027   8.373  0.00  0.00    +0.000 OA
ATOM      9  C   UNL     1       2.934  -6.304   8.089  0.00  0.00    +0.000 C 
ATOM     10  C   UNL     1       2.614  -5.556   6.832  0.00  0.00    +0.000 C 
ATOM     11  S   UNL     1       0.813  -5.734   7.128  0.00  0.00    +0.000 S 
ATOM     12  S   UNL     1      -0.165  -5.208   5.468  0.00  0.00    +0.000 S 
ATOM     13  C   UNL     1      -1.772  -3.878   5.962  0.00  0.00    +0.000 C 
ATOM     14  C   UNL     1      -2.222  -2.976   4.888  0.00  0.00    +0.000 C 
ATOM     15  N   UNL     1      -1.451  -1.701   4.875  0.00  0.00    +0.000 N 
ATOM     16  C   UNL     1      -0.141  -1.532   4.632  0.00  0.00    +0.000 C 
ATOM     17  O   UNL     1       0.311  -0.403   4.588  0.00  0.00    +0.000 OA
ATOM     18  C   UNL     1       0.651  -2.783   4.433  0.00  0.00    +0.000 C 
ATOM     19  N   UNL     1       1.041  -2.956   3.155  0.00  0.00    +0.000 N 
ATOM     20  C   UNL     1       2.219  -2.502   3.363  0.00  0.00    +0.000 C 
ATOM     21  O   UNL     1       2.908  -3.342   2.748  0.00  0.00    +0.000 OA
ATOM     22  C   UNL     1       2.690  -0.720   3.985  0.00  0.00    +0.000 C 
ATOM     23  N   UNL     1       4.289  -0.583   4.384  0.00  0.00    +0.000 N 
ATOM     24  C   UNL     1       5.358  -1.416   3.942  0.00  0.00    +0.000 C 
ATOM     25  O   UNL     1       6.275  -0.925   3.259  0.00  0.00    +0.000 OA
ATOM     26  H   UNL     1       6.196  -5.729   5.754  0.00  0.00    +0.000 HD
ATOM     27  H   UNL     1       3.064  -9.711   7.822  0.00  0.00    +0.000 HD
ATOM     28  H   UNL     1      -1.945  -0.817   5.016  0.00  0.00    +0.000 HD
ATOM     29  H   UNL     1       1.058  -3.716   2.428  0.00  0.00    +0.000 HD
ATOM     30  H   UNL     1       4.365  -0.949   5.281  0.00  0.00    +0.000 HD
ENDROOT
BRANCH  14  31
ATOM     31  C   UNL     1      -3.688  -2.731   5.206  0.00  0.00    +0.000 C 
ATOM     32  O   UNL     1      -3.971  -1.535   5.239  0.00  0.00    +0.000 OA
ATOM     33  N   UNL     1      -4.535  -3.865   5.310  0.00  0.00    +0.000 N 
ATOM     34  C   UNL     1      -4.307  -5.061   6.097  0.00  0.00    +0.000 C 
ATOM     35  C   UNL     1      -4.919  -6.153   5.281  0.00  0.00    +0.000 C 
ATOM     36  C   UNL     1      -6.230  -5.534   4.903  0.00  0.00    +0.000 C 
ATOM     37  C   UNL     1      -5.946  -4.037   4.816  0.00  0.00    +0.000 C 
BRANCH  37  38
ATOM     38  C   UNL     1      -7.037  -3.609   5.850  0.00  0.00    +0.000 C 
ATOM     39  O   UNL     1      -6.656  -3.228   6.967  0.00  0.00    +0.000 OA
ATOM     40  N   UNL     1      -8.337  -3.326   5.319  0.00  0.00    +0.000 N 
ATOM     41  H   UNL     1      -8.670  -3.715   4.438  0.00  0.00    +0.000 HD
BRANCH  40  42
ATOM     42  C   UNL     1      -9.302  -2.390   6.003  0.00  0.00    +0.000 C 
BRANCH  42  43
ATOM     43  C   UNL     1     -10.734  -2.561   5.403  0.00  0.00    +0.000 C 
ATOM     44  O   UNL     1     -10.903  -3.294   4.428  0.00  0.00    +0.000 OA
ATOM     45  N   UNL     1     -11.784  -1.877   5.991  0.00  0.00    +0.000 N 
ATOM     46  H   UNL     1     -11.633  -1.278   6.782  0.00  0.00    +0.000 HD
BRANCH  45  47
ATOM     47  C   UNL     1     -13.160  -1.990   5.497  0.00  0.00    +0.000 C 
BRANCH  47  48
ATOM     48  C   UNL     1     -14.191  -1.156   6.287  0.00  0.00    +0.000 C 
ATOM     49  N   UNL     1     -13.732  -0.406   7.347  0.00  0.00    +0.000 N 
ATOM     50  O   UNL     1     -15.384  -1.156   5.987  0.00  0.00    +0.000 OA
ATOM     51  H   UNL     1     -12.780  -0.347   7.660  0.00  0.00    +0.000 HD
ATOM     52  H   UNL     1     -14.382   0.154   7.888  0.00  0.00    +0.000 HD
ENDBRANCH  47  48
ENDBRANCH  45  47
ENDBRANCH  42  43
BRANCH  42  53
ATOM     53  C   UNL     1      -8.913  -0.894   5.924  0.00  0.00    +0.000 C 
BRANCH  53  54
ATOM     54  C   UNL     1      -7.542  -0.590   6.503  0.00  0.00    +0.000 C 
ATOM     55  C   UNL     1      -6.461  -1.056   5.604  0.00  0.00    +0.000 C 
ATOM     56  C   UNL     1      -7.150   0.834   6.456  0.00  0.00    +0.000 C 
ENDBRANCH  53  54
ENDBRANCH  42  53
ENDBRANCH  40  42
ENDBRANCH  37  38
ENDBRANCH  14  31
BRANCH   9  57
ATOM     57  N   UNL     1       4.266  -6.338   7.977  0.00  0.00    +0.000 NA
ATOM     58  C   UNL     1       5.094  -7.281   9.015  0.00  0.00    +0.000 C 
ATOM     59  H   UNL     1       4.711  -5.343   7.882  0.00  0.00    +0.000 HD
ENDBRANCH   9  57
BRANCH   1  60
ATOM     60  C   UNL     1       4.257  -1.789   2.338  0.00  0.00    +0.000 C 
ATOM     61  C   UNL     1       3.346  -0.659   0.761  0.00  0.00    +0.000 C 
BRANCH  60  63
ATOM     62  C   UNL     1       3.015  -2.986   0.547  0.00  0.00    +0.000 C 
ATOM     63  C   UNL     1       2.657  -1.727   1.513  0.00  0.00    +0.000 C 
ENDBRANCH  60  63
ENDBRANCH   1  60
BRANCH  18  64
ATOM     64  C   UNL     1       1.789  -2.968   5.551  0.00  0.00    +0.000 C 
BRANCH  64  65
ATOM     65  C   UNL     1       1.358  -3.066   7.017  0.00  0.00    +0.000 C 
ATOM     66  N   UNL     1       0.042  -3.125   7.237  0.00  0.00    +0.000 N 
ATOM     67  O   UNL     1       2.114  -3.297   7.943  0.00  0.00    +0.000 OA
ATOM     68  H   UNL     1      -0.190  -3.375   6.302  0.00  0.00    +0.000 HD
ATOM     69  H   UNL     1      -0.358  -3.940   7.784  0.00  0.00    +0.000 HD
ENDBRANCH  64  65
ENDBRANCH  18  64
BRANCH   5  70
ATOM     70  C   UNL     1       5.189  -8.212   5.786  0.00  0.00    +0.000 C 
BRANCH  70  71
ATOM     71  C   UNL     1       6.669  -8.247   5.779  0.00  0.00    +0.000 A 
ATOM     72  C   UNL     1       7.587  -8.656   6.798  0.00  0.00    +0.000 A 
ATOM     73  C   UNL     1       8.944  -8.537   6.585  0.00  0.00    +0.000 A 
ATOM     74  C   UNL     1       9.355  -7.978   5.391  0.00  0.00    +0.000 A 
ATOM     75  C   UNL     1       8.443  -7.449   4.488  0.00  0.00    +0.000 A 
ATOM     76  C   UNL     1       7.105  -7.551   4.695  0.00  0.00    +0.000 A 
BRANCH  74  77
ATOM     77  O   UNL     1      10.654  -7.905   5.008  0.00  0.00    +0.000 OA
ATOM     78  H   UNL     1      11.249  -8.302   5.661  0.00  0.00    +0.000 HD
ENDBRANCH  74  77
ENDBRANCH  70  71
ENDBRANCH   5  70
BRANCH  22  79
ATOM     79  C   UNL     1       2.307   0.670   3.246  0.00  0.00    +0.000 C 
BRANCH  79  80
ATOM     80  C   UNL     1       2.395   1.799   4.212  0.00  0.00    +0.000 C 
BRANCH  80  81
ATOM     81  C   UNL     1       1.690   3.016   3.659  0.00  0.00    +0.000 C 
ATOM     82  N   UNL     1       1.103   2.958   2.412  0.00  0.00    +0.000 N 
ATOM     83  O   UNL     1       1.653   4.041   4.332  0.00  0.00    +0.000 OA
ATOM     84  H   UNL     1       1.103   2.156   1.794  0.00  0.00    +0.000 HD
ATOM     85  H   UNL     1       0.616   3.765   2.046  0.00  0.00    +0.000 HD
ENDBRANCH  80  81
ENDBRANCH  79  80
ENDBRANCH  22  79
TORSDOF 19
