REMARK  Name = CHEMBL1779405
REMARK  15 active torsions:
REMARK  status: ('A' for Active; 'I' for Inactive)
REMARK    1  A    between atoms: C_1  and  O_2
REMARK    2  A    between atoms: O_2  and  C_3
REMARK    3  A    between atoms: C_6  and  S_7
REMARK    4  A    between atoms: S_7  and  N_10
REMARK    5  A    between atoms: C_13  and  C_14
REMARK    6  A    between atoms: C_13  and  N_28
REMARK    7  A    between atoms: C_17  and  C_18
REMARK    8  A    between atoms: C_18  and  N_19
REMARK    9  A    between atoms: C_25  and  O_26
REMARK   10  A    between atoms: O_26  and  C_27
REMARK   11  A    between atoms: C_32  and  C_33
REMARK   12  A    between atoms: N_35  and  C_36
REMARK   13  A    between atoms: N_35  and  C_37
REMARK   14  A    between atoms: C_45  and  O_46
REMARK   15  A    between atoms: O_46  and  C_47
REMARK                            x       y       z     vdW  Elec       q    Type
REMARK                         _______ _______ _______ _____ _____    ______ ____
ROOT
ATOM      1  N   UNL     1       5.999  -2.546  -7.275  0.00  0.00    +0.000 N 
ATOM      2  C   UNL     1       4.928  -3.334  -7.255  0.00  0.00    +0.000 C 
ATOM      3  O   UNL     1       5.513  -4.306  -6.880  0.00  0.00    +0.000 OA
ATOM      4  C   UNL     1       4.283  -2.574  -8.550  0.00  0.00    +0.000 C 
ATOM      5  C   UNL     1       4.923  -3.330  -9.670  0.00  0.00    +0.000 A 
ATOM      6  C   UNL     1       4.464  -4.411 -10.730  0.00  0.00    +0.000 A 
ATOM      7  C   UNL     1       5.400  -5.222 -11.357  0.00  0.00    +0.000 A 
ATOM      8 CL   UNL     1       5.315  -6.998 -11.367  0.00  0.00    +0.000 Cl
ATOM      9  C   UNL     1       6.646  -4.665 -11.265  0.00  0.00    +0.000 A 
ATOM     10  C   UNL     1       6.999  -3.602 -10.185  0.00  0.00    +0.000 A 
ATOM     11  C   UNL     1       6.165  -3.307  -9.026  0.00  0.00    +0.000 A 
ENDROOT
BRANCH   4  12
ATOM     12  C   UNL     1       2.894  -2.937  -8.547  0.00  0.00    +0.000 A 
ATOM     13  C   UNL     1       1.875  -1.968  -8.589  0.00  0.00    +0.000 A 
ATOM     14  C   UNL     1       0.588  -2.358  -8.414  0.00  0.00    +0.000 A 
ATOM     15  C   UNL     1       0.332  -3.655  -8.799  0.00  0.00    +0.000 A 
ATOM     16  C   UNL     1       1.418  -4.495  -9.181  0.00  0.00    +0.000 A 
ATOM     17  C   UNL     1       2.678  -4.307  -8.646  0.00  0.00    +0.000 A 
BRANCH  17  18
ATOM     18  O   UNL     1       3.512  -5.440  -8.382  0.00  0.00    +0.000 OA
ATOM     19  C   UNL     1       4.945  -5.865  -8.488  0.00  0.00    +0.000 C 
ENDBRANCH  17  18
BRANCH  15  20
ATOM     20  C   UNL     1      -1.065  -4.202  -8.620  0.00  0.00    +0.000 C 
BRANCH  20  21
ATOM     21  N   UNL     1      -1.146  -5.568  -8.041  0.00  0.00    +0.000 NA
ATOM     22  C   UNL     1      -0.495  -5.537  -6.706  0.00  0.00    +0.000 C 
ATOM     23  C   UNL     1       0.920  -6.015  -6.905  0.00  0.00    +0.000 C 
ATOM     24  C   UNL     1       0.801  -7.040  -8.034  0.00  0.00    +0.000 C 
ATOM     25  C   UNL     1      -0.527  -6.703  -8.762  0.00  0.00    +0.000 C 
ENDBRANCH  20  21
ENDBRANCH  15  20
ENDBRANCH   4  12
BRANCH   4  26
ATOM     26  N   UNL     1       4.796  -1.000  -8.745  0.00  0.00    +0.000 NA
ATOM     27  C   UNL     1       6.303  -0.639  -8.548  0.00  0.00    +0.000 C 
ATOM     28  C   UNL     1       6.482  -0.218  -7.091  0.00  0.00    +0.000 C 
ATOM     29  C   UNL     1       5.205   0.472  -6.819  0.00  0.00    +0.000 C 
ATOM     30  C   UNL     1       4.172   0.011  -7.870  0.00  0.00    +0.000 C 
BRANCH  30  31
ATOM     31  C   UNL     1       3.748   1.242  -8.743  0.00  0.00    +0.000 C 
ATOM     32  O   UNL     1       3.948   1.277  -9.961  0.00  0.00    +0.000 OA
ATOM     33  N   UNL     1       3.132   2.310  -8.094  0.00  0.00    +0.000 N 
ATOM     34  C   UNL     1       2.818   2.356  -6.695  0.00  0.00    +0.000 C 
ATOM     35  C   UNL     1       2.812   3.509  -8.829  0.00  0.00    +0.000 C 
ENDBRANCH  30  31
ENDBRANCH   4  26
BRANCH   1  36
ATOM     36  S   UNL     1       5.704  -2.789  -5.085  0.00  0.00    +0.000 S 
ATOM     37  O   UNL     1       7.077  -2.395  -4.606  0.00  0.00    +0.000 OA
ATOM     38  O   UNL     1       5.117  -4.046  -4.720  0.00  0.00    +0.000 OA
BRANCH  36  42
ATOM     39  C   UNL     1       3.085  -0.651  -1.199  0.00  0.00    +0.000 A 
ATOM     40  C   UNL     1       4.197  -1.458  -1.018  0.00  0.00    +0.000 A 
ATOM     41  C   UNL     1       4.967  -1.962  -2.167  0.00  0.00    +0.000 A 
ATOM     42  C   UNL     1       4.631  -1.709  -3.572  0.00  0.00    +0.000 A 
ATOM     43  C   UNL     1       3.451  -0.975  -3.695  0.00  0.00    +0.000 A 
ATOM     44  C   UNL     1       2.743  -0.408  -2.523  0.00  0.00    +0.000 A 
BRANCH  39  46
ATOM     45  C   UNL     1       1.037   0.008  -0.120  0.00  0.00    +0.000 C 
ATOM     46  O   UNL     1       2.472  -0.079  -0.107  0.00  0.00    +0.000 OA
ENDBRANCH  39  46
BRANCH  43  47
ATOM     47  O   UNL     1       2.958  -0.817  -4.947  0.00  0.00    +0.000 OA
ATOM     48  C   UNL     1       1.864   0.081  -5.018  0.00  0.00    +0.000 C 
ENDBRANCH  43  47
ENDBRANCH  36  42
ENDBRANCH   1  36
TORSDOF 10
