REMARK  Name = CHEMBL1630532
REMARK  15 active torsions:
REMARK  status: ('A' for Active; 'I' for Inactive)
REMARK    1  A    between atoms: CD1_1  and  CG1_2
REMARK    2  A    between atoms: CG1_2  and  CB_3
REMARK    3  A    between atoms: CB_3  and  CG2_4
REMARK    4  A    between atoms: CB_3  and  CA_5
REMARK    5  A    between atoms: CA_9  and  CB_10
REMARK    6  A    between atoms: CB_10  and  CG_11
REMARK    7  A    between atoms: CZ_14  and  OH_15
REMARK    8  A    between atoms: C_30  and  C_31
REMARK    9  A    between atoms: CA_37  and  CB_38
REMARK   10  A    between atoms: CB_38  and  CG_39
REMARK   11  A    between atoms: CG_39  and  CD_40
REMARK   12  A    between atoms: CA_56  and  CB_57
REMARK   13  A    between atoms: CB_57  and  CG_58
REMARK   14  A    between atoms: CG_58  and  CD1_59
REMARK   15  A    between atoms: CG_58  and  CD2_60
REMARK                            x       y       z     vdW  Elec       q    Type
REMARK                         _______ _______ _______ _____ _____    ______ ____
ROOT
ATOM      1  CA  ILE A   1       5.494   1.855   0.042  0.00  0.00    +0.000 C 
ATOM      2  N   ILE A   1       6.526   3.340   1.110  0.00  0.00    +0.000 N 
ATOM      3  C   TYR A   9       6.019   5.123   1.369  0.00  0.00    +0.000 C 
ATOM      4  O   TYR A   9       6.483   6.159   0.624  0.00  0.00    +0.000 OA
ATOM      5  CA  TYR A   9       3.917   5.011   1.576  0.00  0.00    +0.000 C 
ATOM      6  N   TYR A   9       3.764   4.850   2.953  0.00  0.00    +0.000 N 
ATOM      7  C   CYS A   8       3.126   5.904   3.011  0.00  0.00    +0.000 C 
ATOM      8  O   CYS A   8       2.307   5.457   3.990  0.00  0.00    +0.000 OA
ATOM      9  CA  CYS A   8       3.068   7.407   1.589  0.00  0.00    +0.000 C 
ATOM     10  CB  CYS A   8       1.562   8.067   0.989  0.00  0.00    +0.000 C 
ATOM     11  SG  CYS A   8       0.357   8.703   2.260  0.00  0.00    +0.000 S 
ATOM     12  SG  CYS A   4      -1.293   7.798   1.605  0.00  0.00    +0.000 S 
ATOM     13  CB  CYS A   4      -1.664   6.592   2.895  0.00  0.00    +0.000 C 
ATOM     14  CA  CYS A   4      -2.219   5.432   2.144  0.00  0.00    +0.000 C 
ATOM     15  N   CYS A   4      -1.583   5.199   0.892  0.00  0.00    +0.000 N 
ATOM     16  C   UNK A   3      -0.273   5.106   0.843  0.00  0.00    +0.000 C 
ATOM     17  O   UNK A   3       0.104   4.857  -0.294  0.00  0.00    +0.000 OA
ATOM     18  C   UNK A   3       0.408   5.163   2.330  0.00  0.00    +0.000 C 
ATOM     19  N   UNK A   3       1.391   4.245   2.541  0.00  0.00    +0.000 N 
ATOM     20  C   GLN A   2       1.937   4.052   1.460  0.00  0.00    +0.000 C 
ATOM     21  O   GLN A   2       2.939   3.425   1.395  0.00  0.00    +0.000 OA
ATOM     22  CA  GLN A   2       2.773   3.531   0.467  0.00  0.00    +0.000 C 
ATOM     23  N   GLN A   2       4.894   3.925   0.576  0.00  0.00    +0.000 N 
ATOM     24  C   ILE A   1       6.159   2.959  -0.192  0.00  0.00    +0.000 C 
ATOM     25  O   ILE A   1       7.261   2.742  -0.687  0.00  0.00    +0.000 OA
ATOM     26  C   CYS A   4      -2.123   4.242   2.979  0.00  0.00    +0.000 C 
ATOM     27  O   CYS A   4      -2.074   4.195   4.210  0.00  0.00    +0.000 OA
ATOM     28  N   PRO A   5      -2.394   3.110   1.772  0.00  0.00    +0.000 N 
ATOM     29  CD  PRO A   5      -3.133   1.880   1.836  0.00  0.00    +0.000 C 
ATOM     30  CG  PRO A   5      -3.181   2.347   3.147  0.00  0.00    +0.000 C 
ATOM     31  CB  PRO A   5      -1.196   2.278   2.823  0.00  0.00    +0.000 C 
ATOM     32  CA  PRO A   5      -1.301   2.463   1.374  0.00  0.00    +0.000 C 
ATOM     33  C   PRO A   5      -0.923   0.930   0.474  0.00  0.00    +0.000 C 
ATOM     34  O   PRO A   5      -1.877   0.422  -0.099  0.00  0.00    +0.000 OA
ATOM     35  N   LEU A   6       0.451   0.125   0.727  0.00  0.00    +0.000 N 
ATOM     36  CA  LEU A   6       1.969   0.299   1.677  0.00  0.00    +0.000 C 
ATOM     37  C   LEU A   6       4.030   0.614   1.550  0.00  0.00    +0.000 C 
ATOM     38  O   LEU A   6       4.639  -0.143   0.690  0.00  0.00    +0.000 OA
ATOM     39  N   GLY A   7       4.329   2.454   1.129  0.00  0.00    +0.000 N 
ATOM     40  CA  GLY A   7       4.022   3.881  -0.507  0.00  0.00    +0.000 C 
ATOM     41  C   GLY A   7       4.471   5.983   0.188  0.00  0.00    +0.000 C 
ATOM     42  O   GLY A   7       4.819   6.522   1.611  0.00  0.00    +0.000 OA
ATOM     43  N   CYS A   8       3.829   7.217   0.202  0.00  0.00    +0.000 N 
ATOM     44  H   ILE A   1       7.324   4.108   0.765  0.00  0.00    +0.000 HD
ATOM     45  H   TYR A   9       3.094   4.193   3.407  0.00  0.00    +0.000 HD
ATOM     46  H   CYS A   4      -2.005   5.108  -0.014  0.00  0.00    +0.000 HD
ATOM     47  H   UNK A   3       1.437   3.501   3.165  0.00  0.00    +0.000 HD
ATOM     48  H   GLN A   2       5.269   4.688  -0.110  0.00  0.00    +0.000 HD
ATOM     49  H   LEU A   6       0.594  -0.821   0.848  0.00  0.00    +0.000 HD
ATOM     50  H   GLY A   7       4.929   2.777   1.969  0.00  0.00    +0.000 HD
ATOM     51  H   CYS A   8       3.459   7.229  -0.722  0.00  0.00    +0.000 HD
ENDROOT
BRANCH  18  52
ATOM     52  C   UNK A   3       1.202   6.349   2.402  0.00  0.00    +0.000 C 
ATOM     53  N   UNK A   3       1.978   7.332   3.630  0.00  0.00    +0.000 N 
ATOM     54  O   UNK A   3       1.739   6.085   1.305  0.00  0.00    +0.000 OA
ATOM     55  H   UNK A   3       3.098   7.593   3.523  0.00  0.00    +0.000 HD
ATOM     56  H   UNK A   3       2.182   6.669   4.461  0.00  0.00    +0.000 HD
ENDBRANCH  18  52
BRANCH   1  57
ATOM     57  CB  ILE A   1       3.398   1.435   0.103  0.00  0.00    +0.000 C 
ATOM     58  CG2 ILE A   1       2.706  -0.333  -0.237  0.00  0.00    +0.000 C 
BRANCH  57  60
ATOM     59  CD1 ILE A   1       0.874   2.387   1.242  0.00  0.00    +0.000 C 
ATOM     60  CG1 ILE A   1       2.402   1.970   1.879  0.00  0.00    +0.000 C 
ENDBRANCH  57  60
ENDBRANCH   1  57
BRANCH   5  61
ATOM     61  CB  TYR A   9       2.843   5.426  -0.337  0.00  0.00    +0.000 C 
BRANCH  61  62
ATOM     62  CG  TYR A   9       3.803   5.296  -2.078  0.00  0.00    +0.000 A 
ATOM     63  CD1 TYR A   9       5.233   4.491  -2.247  0.00  0.00    +0.000 A 
ATOM     64  CE1 TYR A   9       5.578   3.334  -2.923  0.00  0.00    +0.000 A 
ATOM     65  CZ  TYR A   9       4.769   3.372  -3.963  0.00  0.00    +0.000 A 
ATOM     66  CE2 TYR A   9       3.501   4.073  -3.994  0.00  0.00    +0.000 A 
ATOM     67  CD2 TYR A   9       2.912   4.883  -3.018  0.00  0.00    +0.000 A 
BRANCH  65  68
ATOM     68  OH  TYR A   9       5.287   2.947  -5.128  0.00  0.00    +0.000 OA
ATOM     69  HH  TYR A   9       6.186   2.628  -4.925  0.00  0.00    +0.000 HD
ENDBRANCH  65  68
ENDBRANCH  61  62
ENDBRANCH   5  61
BRANCH  22  70
ATOM     70  CB  GLN A   2       1.900   2.829  -1.270  0.00  0.00    +0.000 C 
BRANCH  70  71
ATOM     71  CG  GLN A   2       2.151   1.406  -1.643  0.00  0.00    +0.000 C 
BRANCH  71  72
ATOM     72  CD  GLN A   2       2.148   0.593  -2.772  0.00  0.00    +0.000 C 
ATOM     73  NE2 GLN A   2       1.973   1.479  -3.720  0.00  0.00    +0.000 N 
ATOM     74  OE1 GLN A   2       2.391  -0.593  -2.797  0.00  0.00    +0.000 OA
ATOM     75 HE21 GLN A   2       1.871   2.469  -3.539  0.00  0.00    +0.000 HD
ATOM     76 HE22 GLN A   2       1.891   1.024  -4.572  0.00  0.00    +0.000 HD
ENDBRANCH  71  72
ENDBRANCH  70  71
ENDBRANCH  22  70
BRANCH  36  77
ATOM     77  CB  LEU A   6       1.663   1.069   3.501  0.00  0.00    +0.000 C 
BRANCH  77  78
ATOM     78  CG  LEU A   6       0.243   1.447   4.300  0.00  0.00    +0.000 C 
ATOM     79  CD1 LEU A   6      -0.531   0.111   3.545  0.00  0.00    +0.000 C 
ATOM     80  CD2 LEU A   6       0.710   1.745   5.610  0.00  0.00    +0.000 C 
ENDBRANCH  77  78
ENDBRANCH  36  77
TORSDOF 11
