REMARK  Name = CHEMBL1779403
REMARK  14 active torsions:
REMARK  status: ('A' for Active; 'I' for Inactive)
REMARK    1  A    between atoms: C_1  and  O_2
REMARK    2  A    between atoms: O_2  and  C_3
REMARK    3  A    between atoms: C_6  and  S_7
REMARK    4  A    between atoms: S_7  and  N_10
REMARK    5  A    between atoms: C_13  and  C_14
REMARK    6  A    between atoms: C_13  and  N_22
REMARK    7  A    between atoms: C_19  and  O_20
REMARK    8  A    between atoms: O_20  and  C_21
REMARK    9  A    between atoms: C_24  and  O_25
REMARK   10  A    between atoms: C_27  and  C_28
REMARK   11  A    between atoms: N_30  and  C_31
REMARK   12  A    between atoms: N_30  and  C_32
REMARK   13  A    between atoms: C_40  and  O_41
REMARK   14  A    between atoms: O_41  and  C_42
REMARK                            x       y       z     vdW  Elec       q    Type
REMARK                         _______ _______ _______ _____ _____    ______ ____
ROOT
ATOM      1  N   UNL     1       4.588   5.596  -5.485  0.00  0.00    +0.000 N 
ATOM      2  C   UNL     1       5.738   5.887  -6.089  0.00  0.00    +0.000 C 
ATOM      3  O   UNL     1       6.561   5.151  -6.557  0.00  0.00    +0.000 OA
ATOM      4  C   UNL     1       4.016   6.339  -6.363  0.00  0.00    +0.000 C 
ATOM      5  C   UNL     1       4.225   6.213  -7.999  0.00  0.00    +0.000 A 
ATOM      6  C   UNL     1       5.338   6.024  -8.911  0.00  0.00    +0.000 A 
ATOM      7  C   UNL     1       5.876   6.975  -9.765  0.00  0.00    +0.000 A 
ATOM      8 CL   UNL     1       7.402   6.682 -10.489  0.00  0.00    +0.000 Cl
ATOM      9  C   UNL     1       5.265   8.163  -9.659  0.00  0.00    +0.000 A 
ATOM     10  C   UNL     1       4.465   8.158  -8.360  0.00  0.00    +0.000 A 
ATOM     11  C   UNL     1       4.363   7.048  -7.038  0.00  0.00    +0.000 A 
ENDROOT
BRANCH   4  12
ATOM     12  C   UNL     1       2.461   5.907  -6.587  0.00  0.00    +0.000 A 
ATOM     13  N   UNL     1       1.694   7.013  -7.019  0.00  0.00    +0.000 NA
ATOM     14  C   UNL     1       0.395   6.806  -7.181  0.00  0.00    +0.000 A 
ATOM     15  C   UNL     1      -0.039   5.517  -7.090  0.00  0.00    +0.000 A 
ATOM     16  N   UNL     1       0.762   4.414  -6.885  0.00  0.00    +0.000 NA
ATOM     17  C   UNL     1       2.064   4.614  -6.654  0.00  0.00    +0.000 A 
BRANCH  17  18
ATOM     18  O   UNL     1       2.865   3.506  -6.571  0.00  0.00    +0.000 OA
ATOM     19  C   UNL     1       4.134   3.575  -7.201  0.00  0.00    +0.000 C 
ENDBRANCH  17  18
ENDBRANCH   4  12
BRANCH   4  20
ATOM     20  N   UNL     1       4.085   7.630  -5.017  0.00  0.00    +0.000 NA
ATOM     21  C   UNL     1       3.105   7.232  -4.010  0.00  0.00    +0.000 C 
ATOM     22  C   UNL     1       2.155   8.384  -4.082  0.00  0.00    +0.000 C 
ATOM     23  C   UNL     1       3.049   9.563  -4.457  0.00  0.00    +0.000 C 
ATOM     24  C   UNL     1       4.126   9.037  -5.382  0.00  0.00    +0.000 C 
BRANCH  24  25
ATOM     25  C   UNL     1       5.682   9.597  -5.258  0.00  0.00    +0.000 C 
ATOM     26  O   UNL     1       5.980  10.367  -4.349  0.00  0.00    +0.000 OA
ATOM     27  N   UNL     1       6.689   9.180  -6.169  0.00  0.00    +0.000 N 
ATOM     28  C   UNL     1       6.523   8.391  -7.257  0.00  0.00    +0.000 C 
ATOM     29  C   UNL     1       8.063   9.400  -6.262  0.00  0.00    +0.000 C 
ENDBRANCH  24  25
BRANCH  22  30
ATOM     30  O   UNL     1       1.183   8.230  -5.082  0.00  0.00    +0.000 OA
ATOM     31  H   UNL     1       1.702   8.046  -5.898  0.00  0.00    +0.000 HD
ENDBRANCH  22  30
ENDBRANCH   4  20
BRANCH   1  32
ATOM     32  S   UNL     1       5.228   3.645  -4.561  0.00  0.00    +0.000 S 
ATOM     33  O   UNL     1       6.605   3.813  -4.133  0.00  0.00    +0.000 OA
ATOM     34  O   UNL     1       4.956   2.458  -5.371  0.00  0.00    +0.000 OA
BRANCH  32  38
ATOM     35  C   UNL     1       3.134   0.683  -1.132  0.00  0.00    +0.000 A 
ATOM     36  C   UNL     1       4.240   0.183  -1.806  0.00  0.00    +0.000 A 
ATOM     37  C   UNL     1       4.938   1.055  -2.739  0.00  0.00    +0.000 A 
ATOM     38  C   UNL     1       4.488   2.444  -3.028  0.00  0.00    +0.000 A 
ATOM     39  C   UNL     1       3.340   2.820  -2.425  0.00  0.00    +0.000 A 
ATOM     40  C   UNL     1       2.713   1.975  -1.465  0.00  0.00    +0.000 A 
BRANCH  35  42
ATOM     41  C   UNL     1       1.118   0.044  -0.059  0.00  0.00    +0.000 C 
ATOM     42  O   UNL     1       2.552  -0.032  -0.110  0.00  0.00    +0.000 OA
ENDBRANCH  35  42
BRANCH  39  43
ATOM     43  O   UNL     1       2.946   4.049  -2.802  0.00  0.00    +0.000 OA
ATOM     44  C   UNL     1       1.871   4.534  -2.049  0.00  0.00    +0.000 C 
ENDBRANCH  39  43
ENDBRANCH  32  38
ENDBRANCH   1  32
TORSDOF 9
