REMARK  Name = CHEMBL481730
REMARK  7 active torsions:
REMARK  status: ('A' for Active; 'I' for Inactive)
REMARK    1  A    between atoms: C_2  and  C_3
REMARK    2  A    between atoms: C_6  and  C_7
REMARK    3  A    between atoms: C_12  and  C_13
REMARK    4  A    between atoms: N_19  and  C_20
REMARK    5  A    between atoms: N_19  and  C_24
REMARK    6  A    between atoms: C_20  and  C_21
REMARK    7  A    between atoms: C_24  and  C_25
REMARK                            x       y       z     vdW  Elec       q    Type
REMARK                         _______ _______ _______ _____ _____    ______ ____
ROOT
ATOM      1  C   UNL     1       3.070   1.321  -0.491  0.00  0.00    +0.000 A 
ATOM      2  C   UNL     1       4.099   1.171  -1.421  0.00  0.00    +0.000 A 
ATOM      3  C   UNL     1       4.797   2.303  -1.841  0.00  0.00    +0.000 A 
ATOM      4  C   UNL     1       4.346   3.588  -1.497  0.00  0.00    +0.000 A 
ATOM      5  C   UNL     1       3.194   3.716  -0.725  0.00  0.00    +0.000 A 
ATOM      6  C   UNL     1       2.576   2.597  -0.218  0.00  0.00    +0.000 A 
ENDROOT
BRANCH   4   7
ATOM      7  C   UNL     1       5.026   4.773  -2.001  0.00  0.00    +0.000 A 
ATOM      8  N   UNL     1       5.104   4.798  -3.358  0.00  0.00    +0.000 NA
ATOM      9  C   UNL     1       5.689   5.859  -3.937  0.00  0.00    +0.000 A 
ATOM     10  C   UNL     1       6.226   6.908  -3.219  0.00  0.00    +0.000 A 
ATOM     11  C   UNL     1       6.148   6.868  -1.831  0.00  0.00    +0.000 A 
ATOM     12  C   UNL     1       5.534   5.785  -1.189  0.00  0.00    +0.000 A 
BRANCH  12  13
ATOM     13  C   UNL     1       5.471   5.709   0.309  0.00  0.00    +0.000 C 
ATOM     14  F   UNL     1       4.206   5.757   0.812  0.00  0.00    +0.000 F 
ATOM     15  F   UNL     1       6.042   4.579   0.809  0.00  0.00    +0.000 F 
ATOM     16  F   UNL     1       6.119   6.743   0.920  0.00  0.00    +0.000 F 
ENDBRANCH  12  13
ENDBRANCH   4   7
BRANCH   1  18
ATOM     17  O   UNL     1       1.550   0.649   1.109  0.00  0.00    +0.000 OA
ATOM     18  C   UNL     1       2.460   0.281   0.380  0.00  0.00    +0.000 C 
ATOM     19  N   UNL     1       2.960  -1.021   0.410  0.00  0.00    +0.000 N 
BRANCH  19  20
ATOM     20  C   UNL     1       2.123  -2.046   1.028  0.00  0.00    +0.000 C 
BRANCH  20  21
ATOM     21  C   UNL     1       0.635  -1.929   0.903  0.00  0.00    +0.000 C 
ATOM     22  C   UNL     1      -0.124  -0.943   0.025  0.00  0.00    +0.000 C 
ATOM     23  C   UNL     1      -0.045  -2.373  -0.369  0.00  0.00    +0.000 C 
ENDBRANCH  20  21
ENDBRANCH  19  20
BRANCH  19  24
ATOM     24  C   UNL     1       4.411  -1.146   0.566  0.00  0.00    +0.000 C 
BRANCH  24  25
ATOM     25  C   UNL     1       5.048  -2.394   1.208  0.00  0.00    +0.000 C 
ATOM     26  C   UNL     1       6.340  -2.743   0.481  0.00  0.00    +0.000 C 
ATOM     27  C   UNL     1       6.390  -4.244   0.570  0.00  0.00    +0.000 C 
ATOM     28  C   UNL     1       4.937  -4.637   0.537  0.00  0.00    +0.000 C 
ATOM     29  O   UNL     1       4.242  -3.574   1.170  0.00  0.00    +0.000 OA
ENDBRANCH  24  25
ENDBRANCH  19  24
ENDBRANCH   1  18
TORSDOF 7
