REMARK  Name = CHEMBL4206233
REMARK  3 active torsions:
REMARK  status: ('A' for Active; 'I' for Inactive)
REMARK    1  A    between atoms: C_1  and  C_2
REMARK    2  A    between atoms: N_5  and  C_6
REMARK    3  A    between atoms: C_9  and  C_10
REMARK                            x       y       z     vdW  Elec       q    Type
REMARK                         _______ _______ _______ _____ _____    ______ ____
ROOT
ATOM      1  C   UNL     1      10.211  -4.836  -1.181  0.00  0.00    +0.000 C 
ATOM      2  O   UNL     1      10.362  -4.689   0.132  0.00  0.00    +0.000 OA
ATOM      3  N   UNL     1      11.392  -6.060  -2.190  0.00  0.00    +0.000 N 
ATOM      4  C   UNL     1      10.552  -6.498  -1.154  0.00  0.00    +0.000 C 
ATOM      5  C   UNL     1       9.887  -7.169  -2.260  0.00  0.00    +0.000 C 
ATOM      6  C   UNL     1      10.911  -8.210  -2.056  0.00  0.00    +0.000 C 
ATOM      7  C   UNL     1      10.877  -8.775  -3.501  0.00  0.00    +0.000 C 
ATOM      8  C   UNL     1      12.213  -9.172  -3.289  0.00  0.00    +0.000 A 
ATOM      9  C   UNL     1      12.261 -10.961  -3.606  0.00  0.00    +0.000 A 
ATOM     10  C   UNL     1      13.302 -11.821  -3.379  0.00  0.00    +0.000 A 
ATOM     11  C   UNL     1      14.249 -10.872  -3.097  0.00  0.00    +0.000 A 
ATOM     12  C   UNL     1      13.900  -9.041  -2.808  0.00  0.00    +0.000 A 
ATOM     13  C   UNL     1      12.768  -7.553  -2.848  0.00  0.00    +0.000 A 
ENDROOT
BRANCH   1  17
ATOM     14  C   UNL     1       5.604  -1.688   0.056  0.00  0.00    +0.000 A 
ATOM     15  C   UNL     1       6.651  -1.718   0.949  0.00  0.00    +0.000 A 
ATOM     16  C   UNL     1       8.037  -2.658   0.600  0.00  0.00    +0.000 A 
ATOM     17  C   UNL     1       8.551  -3.738  -0.671  0.00  0.00    +0.000 A 
ATOM     18  C   UNL     1       7.212  -3.526  -1.253  0.00  0.00    +0.000 A 
ATOM     19  C   UNL     1       5.845  -2.594  -0.977  0.00  0.00    +0.000 A 
BRANCH  14  24
ATOM     20  C   UNL     1       0.950  -0.080   0.011  0.00  0.00    +0.000 C 
ATOM     21  C   UNL     1       2.438  -0.079   0.011  0.00  0.00    +0.000 A 
ATOM     22  C   UNL     1       3.246   1.069   0.022  0.00  0.00    +0.000 A 
ATOM     23  C   UNL     1       4.534   0.598   0.062  0.00  0.00    +0.000 A 
ATOM     24  N   UNL     1       4.477  -0.783   0.067  0.00  0.00    +0.000 N 
ATOM     25  N   UNL     1       3.176  -1.206  -0.025  0.00  0.00    +0.000 NA
ENDBRANCH  14  24
ENDBRANCH   1  17
TORSDOF 2
