REMARK  Name = CHEMBL25611
REMARK  8 active torsions:
REMARK  status: ('A' for Active; 'I' for Inactive)
REMARK    1  A    between atoms: C_1  and  O_2
REMARK    2  A    between atoms: O_2  and  C_3
REMARK    3  A    between atoms: C_6  and  C_7
REMARK    4  A    between atoms: C_7  and  C_8
REMARK    5  A    between atoms: C_8  and  C_9
REMARK    6  A    between atoms: C_14  and  N_15
REMARK    7  A    between atoms: C_28  and  O_29
REMARK    8  A    between atoms: O_29  and  C_30
REMARK                            x       y       z     vdW  Elec       q    Type
REMARK                         _______ _______ _______ _____ _____    ______ ____
ROOT
ATOM      1  C   UNL     1       4.722   6.073  -4.622  0.00  0.00    +0.000 C 
ATOM      2  O   UNL     1       5.530   5.776  -5.495  0.00  0.00    +0.000 OA
ATOM      3  N   UNL     1       4.095   7.336  -4.492  0.00  0.00    +0.000 N 
ATOM      4  C   UNL     1       3.442   8.011  -5.620  0.00  0.00    +0.000 C 
ATOM      5  C   UNL     1       3.602   9.526  -5.548  0.00  0.00    +0.000 C 
ATOM      6  C   UNL     1       2.737  10.170  -4.131  0.00  0.00    +0.000 C 
ATOM      7  C   UNL     1       3.829   9.380  -3.112  0.00  0.00    +0.000 C 
ATOM      8  C   UNL     1       3.737   7.867  -3.179  0.00  0.00    +0.000 C 
ENDROOT
BRANCH   6   9
ATOM      9  N   UNL     1       0.937  10.464  -4.401  0.00  0.00    +0.000 N 
ATOM     10  C   UNL     1       1.404  11.549  -5.216  0.00  0.00    +0.000 C 
ATOM     11  O   UNL     1       2.275  11.568  -6.130  0.00  0.00    +0.000 OA
ATOM     12  O   UNL     1       1.062  12.741  -4.791  0.00  0.00    +0.000 OA
ATOM     13  C   UNL     1      -0.016  12.892  -5.624  0.00  0.00    +0.000 C 
ATOM     14  C   UNL     1      -0.958  12.535  -4.573  0.00  0.00    +0.000 A 
ATOM     15  C   UNL     1      -2.038  13.590  -4.521  0.00  0.00    +0.000 A 
ATOM     16  C   UNL     1      -3.224  13.462  -3.878  0.00  0.00    +0.000 A 
ATOM     17  C   UNL     1      -3.403  12.130  -3.586  0.00  0.00    +0.000 A 
ATOM     18  C   UNL     1      -2.195  11.007  -3.669  0.00  0.00    +0.000 A 
ATOM     19  C   UNL     1      -0.696  11.240  -3.972  0.00  0.00    +0.000 A 
ENDBRANCH   6   9
BRANCH   1  20
ATOM     20  C   UNL     1       4.226   5.055  -3.612  0.00  0.00    +0.000 C 
BRANCH  20  21
ATOM     21  C   UNL     1       4.878   3.675  -3.553  0.00  0.00    +0.000 C 
BRANCH  21  25
ATOM     22  C   UNL     1       2.955   0.783  -0.929  0.00  0.00    +0.000 A 
ATOM     23  C   UNL     1       4.063   0.430  -1.694  0.00  0.00    +0.000 A 
ATOM     24  C   UNL     1       4.728   1.401  -2.460  0.00  0.00    +0.000 A 
ATOM     25  C   UNL     1       4.238   2.720  -2.537  0.00  0.00    +0.000 A 
ATOM     26  C   UNL     1       3.150   3.064  -1.707  0.00  0.00    +0.000 A 
ATOM     27  C   UNL     1       2.533   2.102  -0.918  0.00  0.00    +0.000 A 
BRANCH  22  29
ATOM     28  C   UNL     1       0.944  -0.071  -0.069  0.00  0.00    +0.000 C 
ATOM     29  O   UNL     1       2.370  -0.167  -0.135  0.00  0.00    +0.000 OA
ENDBRANCH  22  29
BRANCH  26  30
ATOM     30  O   UNL     1       2.734   4.363  -1.684  0.00  0.00    +0.000 OA
ATOM     31  C   UNL     1       1.649   4.743  -0.859  0.00  0.00    +0.000 C 
ENDBRANCH  26  30
ENDBRANCH  21  25
ENDBRANCH  20  21
ENDBRANCH   1  20
TORSDOF 6
