REMARK  Name = CHEMBL24526
REMARK  9 active torsions:
REMARK  status: ('A' for Active; 'I' for Inactive)
REMARK    1  A    between atoms: C_1  and  C_2
REMARK    2  A    between atoms: C_7  and  O_8
REMARK    3  A    between atoms: O_8  and  C_9
REMARK    4  A    between atoms: C_12  and  C_13
REMARK    5  A    between atoms: C_13  and  C_14
REMARK    6  A    between atoms: C_19  and  N_20
REMARK    7  A    between atoms: C_33  and  O_34
REMARK    8  A    between atoms: O_34  and  C_35
REMARK    9  A    between atoms: C_35  and  C_36
REMARK                            x       y       z     vdW  Elec       q    Type
REMARK                         _______ _______ _______ _____ _____    ______ ____
ROOT
ATOM      1  C   UNL     1       6.425   3.172   3.413  0.00  0.00    +0.000 A 
ATOM      2  C   UNL     1       7.016   3.833   4.479  0.00  0.00    +0.000 A 
ATOM      3  C   UNL     1       7.963   4.863   4.235  0.00  0.00    +0.000 A 
ATOM      4  C   UNL     1       8.418   5.170   2.924  0.00  0.00    +0.000 A 
ATOM      5  C   UNL     1       7.728   4.543   1.886  0.00  0.00    +0.000 A 
ATOM      6  C   UNL     1       6.764   3.590   2.146  0.00  0.00    +0.000 A 
ENDROOT
BRANCH   1   7
ATOM      7  O   UNL     1       5.365   2.326   3.593  0.00  0.00    +0.000 OA
BRANCH   7  14
ATOM      8  C   UNL     1       1.139  -0.035   0.128  0.00  0.00    +0.000 C 
ATOM      9  C   UNL     1       2.654  -0.007   0.111  0.00  0.00    +0.000 C 
ATOM     10  O   UNL     1       3.280  -0.575  -0.783  0.00  0.00    +0.000 OA
ATOM     11  N   UNL     1       3.269   0.810   1.051  0.00  0.00    +0.000 N 
ATOM     12  C   UNL     1       4.496   1.505   0.714  0.00  0.00    +0.000 C 
ATOM     13  C   UNL     1       5.688   0.919   1.472  0.00  0.00    +0.000 C 
ATOM     14  C   UNL     1       5.471   1.009   2.996  0.00  0.00    +0.000 C 
ATOM     15  C   UNL     1       4.151   0.268   3.303  0.00  0.00    +0.000 C 
ATOM     16  C   UNL     1       2.963   0.812   2.479  0.00  0.00    +0.000 C 
ENDBRANCH   7  14
ENDBRANCH   1   7
BRANCH   4  17
ATOM     17  C   UNL     1       9.603   6.148   2.709  0.00  0.00    +0.000 C 
BRANCH  17  18
ATOM     18  C   UNL     1      10.174   6.367   1.260  0.00  0.00    +0.000 C 
ATOM     19  O   UNL     1       9.918   5.670   0.283  0.00  0.00    +0.000 OA
ATOM     20  N   UNL     1      11.013   7.440   0.987  0.00  0.00    +0.000 N 
ATOM     21  C   UNL     1      10.758   8.177  -0.256  0.00  0.00    +0.000 C 
ATOM     22  C   UNL     1      11.827   8.114  -1.337  0.00  0.00    +0.000 C 
ATOM     23  C   UNL     1      13.143   9.038  -0.752  0.00  0.00    +0.000 C 
ATOM     24  C   UNL     1      13.426   7.706   0.450  0.00  0.00    +0.000 C 
ATOM     25  C   UNL     1      12.353   7.564   1.539  0.00  0.00    +0.000 C 
BRANCH  23  26
ATOM     26  N   UNL     1      12.889  10.834  -1.132  0.00  0.00    +0.000 N 
ATOM     27  C   UNL     1      13.486  10.508  -2.358  0.00  0.00    +0.000 C 
ATOM     28  O   UNL     1      12.992   9.678  -3.210  0.00  0.00    +0.000 OA
ATOM     29  O   UNL     1      14.738  10.884  -2.522  0.00  0.00    +0.000 OA
ATOM     30  C   UNL     1      14.456  12.144  -3.009  0.00  0.00    +0.000 C 
ATOM     31  C   UNL     1      14.521  12.863  -1.721  0.00  0.00    +0.000 A 
ATOM     32  C   UNL     1      15.320  13.468  -0.740  0.00  0.00    +0.000 A 
ATOM     33  C   UNL     1      14.986  14.777  -0.235  0.00  0.00    +0.000 A 
ATOM     34  C   UNL     1      13.964  15.357  -0.886  0.00  0.00    +0.000 A 
ATOM     35  C   UNL     1      13.051  14.249  -1.396  0.00  0.00    +0.000 A 
ATOM     36  C   UNL     1      13.414  12.662  -1.126  0.00  0.00    +0.000 A 
ENDBRANCH  23  26
ENDBRANCH  17  18
ENDBRANCH   4  17
BRANCH   5  37
ATOM     37  O   UNL     1       7.839   5.010   0.623  0.00  0.00    +0.000 OA
BRANCH  37  38
ATOM     38  C   UNL     1       7.488   4.228  -0.523  0.00  0.00    +0.000 C 
BRANCH  38  39
ATOM     39  C   UNL     1       8.118   4.814  -1.783  0.00  0.00    +0.000 C 
ATOM     40  F   UNL     1       7.884   6.143  -1.889  0.00  0.00    +0.000 F 
ATOM     41  F   UNL     1       9.443   4.592  -1.891  0.00  0.00    +0.000 F 
ATOM     42  F   UNL     1       7.552   4.232  -2.874  0.00  0.00    +0.000 F 
ENDBRANCH  38  39
ENDBRANCH  37  38
ENDBRANCH   5  37
TORSDOF 8
