REMARK  Name = CHEMBL221436
REMARK  20 active torsions:
REMARK  status: ('A' for Active; 'I' for Inactive)
REMARK    1  A    between atoms: C_1  and  C_2
REMARK    2  A    between atoms: C_2  and  C_3
REMARK    3  A    between atoms: C_2  and  C_4
REMARK    4  A    between atoms: C_8  and  C_9
REMARK    5  A    between atoms: C_9  and  C_10
REMARK    6  A    between atoms: C_19  and  C_20
REMARK    7  A    between atoms: C_20  and  C_21
REMARK    8  A    between atoms: C_24  and  O_25
REMARK    9  A    between atoms: C_36  and  C_37
REMARK   10  A    between atoms: C_43  and  C_44
REMARK   11  A    between atoms: N_46  and  C_47
REMARK   12  A    between atoms: C_47  and  C_48
REMARK   13  A    between atoms: C_47  and  C_55
REMARK   14  A    between atoms: C_48  and  C_49
REMARK   15  A    between atoms: C_49  and  C_50
REMARK   16  A    between atoms: C_50  and  N_51
REMARK   17  A    between atoms: N_57  and  C_58
REMARK   18  A    between atoms: C_58  and  C_59
REMARK   19  A    between atoms: C_65  and  C_66
REMARK   20  A    between atoms: C_66  and  C_67
REMARK                            x       y       z     vdW  Elec       q    Type
REMARK                         _______ _______ _______ _____ _____    ______ ____
ROOT
ATOM      1  C   UNL     1       3.058   0.344   2.011  0.00  0.00    +0.000 C 
ATOM      2  N   UNL     1       3.746  -0.553   3.016  0.00  0.00    +0.000 N 
ATOM      3  C   UNL     1       4.001  -1.913   2.861  0.00  0.00    +0.000 C 
ATOM      4  O   UNL     1       5.121  -2.405   3.081  0.00  0.00    +0.000 OA
ATOM      5  C   UNL     1       2.787  -2.765   2.584  0.00  0.00    +0.000 C 
ATOM      6  N   UNL     1       2.558  -2.978   1.180  0.00  0.00    +0.000 N 
ATOM      7  C   UNL     1       3.029  -4.018   0.432  0.00  0.00    +0.000 C 
ATOM      8  O   UNL     1       2.206  -4.393  -0.417  0.00  0.00    +0.000 OA
ATOM      9  C   UNL     1       4.550  -4.728   0.641  0.00  0.00    +0.000 C 
ATOM     10  N   UNL     1       4.241  -6.101   0.388  0.00  0.00    +0.000 N 
ATOM     11  C   UNL     1       4.020  -6.621  -0.845  0.00  0.00    +0.000 C 
ATOM     12  O   UNL     1       3.838  -7.845  -0.883  0.00  0.00    +0.000 OA
ATOM     13  C   UNL     1       4.000  -5.788  -2.170  0.00  0.00    +0.000 C 
ATOM     14  C   UNL     1       4.262  -4.278  -2.303  0.00  0.00    +0.000 C 
ATOM     15  S   UNL     1       4.102  -3.398  -3.886  0.00  0.00    +0.000 S 
ATOM     16  S   UNL     1       5.349  -1.777  -3.431  0.00  0.00    +0.000 S 
ATOM     17  C   UNL     1       4.546  -0.312  -4.151  0.00  0.00    +0.000 C 
ATOM     18  C   UNL     1       5.003   1.106  -3.799  0.00  0.00    +0.000 C 
ATOM     19  N   UNL     1       4.093   1.766  -2.874  0.00  0.00    +0.000 N 
ATOM     20  C   UNL     1       4.068   1.684  -1.561  0.00  0.00    +0.000 C 
ATOM     21  O   UNL     1       3.430   2.617  -0.982  0.00  0.00    +0.000 OA
ATOM     22  C   UNL     1       4.415   0.446  -0.844  0.00  0.00    +0.000 C 
ATOM     23  N   UNL     1       4.713   1.152   0.479  0.00  0.00    +0.000 N 
ATOM     24  C   UNL     1       4.200   1.240   1.715  0.00  0.00    +0.000 C 
ATOM     25  O   UNL     1       4.974   1.647   2.593  0.00  0.00    +0.000 OA
ATOM     26  H   UNL     1       4.641  -0.162   3.347  0.00  0.00    +0.000 HD
ATOM     27  H   UNL     1       1.673  -2.609   0.819  0.00  0.00    +0.000 HD
ATOM     28  H   UNL     1       4.217  -6.746   1.172  0.00  0.00    +0.000 HD
ATOM     29  H   UNL     1       3.631   2.617  -3.197  0.00  0.00    +0.000 HD
ATOM     30  H   UNL     1       5.656   1.140   0.806  0.00  0.00    +0.000 HD
ENDROOT
BRANCH  18  31
ATOM     31  C   UNL     1       5.057   2.076  -5.027  0.00  0.00    +0.000 C 
ATOM     32  O   UNL     1       4.382   3.115  -5.028  0.00  0.00    +0.000 OA
ATOM     33  N   UNL     1       6.019   1.825  -5.981  0.00  0.00    +0.000 N 
ATOM     34  C   UNL     1       6.321   0.565  -6.626  0.00  0.00    +0.000 C 
ATOM     35  C   UNL     1       7.777   0.716  -6.927  0.00  0.00    +0.000 C 
ATOM     36  C   UNL     1       7.840   2.128  -7.466  0.00  0.00    +0.000 C 
ATOM     37  C   UNL     1       6.709   2.888  -6.743  0.00  0.00    +0.000 C 
BRANCH  37  38
ATOM     38  C   UNL     1       5.851   3.478  -7.873  0.00  0.00    +0.000 C 
ATOM     39  O   UNL     1       4.833   2.900  -8.255  0.00  0.00    +0.000 OA
ATOM     40  N   UNL     1       6.327   4.632  -8.480  0.00  0.00    +0.000 N 
ATOM     41  H   UNL     1       7.300   4.909  -8.379  0.00  0.00    +0.000 HD
BRANCH  40  42
ATOM     42  C   UNL     1       5.525   5.408  -9.448  0.00  0.00    +0.000 C 
BRANCH  42  43
ATOM     43  C   UNL     1       6.425   6.441 -10.211  0.00  0.00    +0.000 C 
ATOM     44  O   UNL     1       7.628   6.545  -9.979  0.00  0.00    +0.000 OA
ATOM     45  N   UNL     1       5.782   7.215 -11.161  0.00  0.00    +0.000 N 
ATOM     46  H   UNL     1       4.803   7.065 -11.330  0.00  0.00    +0.000 HD
BRANCH  45  47
ATOM     47  C   UNL     1       6.478   8.244 -11.940  0.00  0.00    +0.000 C 
BRANCH  47  48
ATOM     48  C   UNL     1       5.626   9.036 -12.951  0.00  0.00    +0.000 C 
ATOM     49  N   UNL     1       4.297   8.738 -13.053  0.00  0.00    +0.000 N 
ATOM     50  O   UNL     1       6.097   9.920 -13.662  0.00  0.00    +0.000 OA
ATOM     51  H   UNL     1       3.802   8.040 -12.530  0.00  0.00    +0.000 HD
ATOM     52  H   UNL     1       3.761   9.273 -13.727  0.00  0.00    +0.000 HD
ENDBRANCH  47  48
ENDBRANCH  45  47
ENDBRANCH  42  43
BRANCH  42  53
ATOM     53  C   UNL     1       4.376   6.150  -8.726  0.00  0.00    +0.000 C 
BRANCH  53  54
ATOM     54  C   UNL     1       3.457   5.205  -7.946  0.00  0.00    +0.000 C 
BRANCH  54  55
ATOM     55  C   UNL     1       2.327   5.879  -7.218  0.00  0.00    +0.000 C 
BRANCH  55  56
ATOM     56  N   UNL     1       1.497   4.908  -6.524  0.00  0.00    +0.000 N 
ATOM     57  C   UNL     1       0.488   5.271  -5.707  0.00  0.00    +0.000 C 
ATOM     58  N   UNL     1       0.084   6.477  -5.517  0.00  0.00    +0.000 NA
ATOM     59  N   UNL     1      -0.142   4.284  -5.064  0.00  0.00    +0.000 N 
ATOM     60  H   UNL     1       1.858   3.960  -6.459  0.00  0.00    +0.000 HD
ATOM     61  H   UNL     1       0.671   7.104  -6.064  0.00  0.00    +0.000 HD
ATOM     62  H   UNL     1       0.045   3.304  -5.177  0.00  0.00    +0.000 HD
ATOM     63  H   UNL     1      -0.953   4.570  -4.529  0.00  0.00    +0.000 HD
ENDBRANCH  55  56
ENDBRANCH  54  55
ENDBRANCH  53  54
ENDBRANCH  42  53
ENDBRANCH  40  42
ENDBRANCH  37  38
ENDBRANCH  18  31
BRANCH   1  65
ATOM     64  C   UNL     1       0.565   0.172   1.912  0.00  0.00    +0.000 C 
ATOM     65  C   UNL     1       1.738   1.126   2.151  0.00  0.00    +0.000 C 
ATOM     66  C   UNL     1       1.507   2.261   1.105  0.00  0.00    +0.000 C 
ENDBRANCH   1  65
BRANCH   9  67
ATOM     67  C   UNL     1       6.045  -4.471   0.008  0.00  0.00    +0.000 C 
BRANCH  67  68
ATOM     68  C   UNL     1       6.536  -3.070  -0.165  0.00  0.00    +0.000 A 
ATOM     69  C   UNL     1       5.789  -2.213   0.513  0.00  0.00    +0.000 A 
ATOM     70  C   UNL     1       6.190  -0.945   0.798  0.00  0.00    +0.000 A 
ATOM     71  C   UNL     1       7.182  -0.287   0.119  0.00  0.00    +0.000 A 
ATOM     72  C   UNL     1       7.847  -1.071  -0.778  0.00  0.00    +0.000 A 
ATOM     73  C   UNL     1       7.586  -2.474  -0.863  0.00  0.00    +0.000 A 
BRANCH  71  74
ATOM     74  O   UNL     1       7.428   1.060   0.080  0.00  0.00    +0.000 OA
ATOM     75  H   UNL     1       6.771   1.784   0.133  0.00  0.00    +0.000 HD
ENDBRANCH  71  74
ENDBRANCH  67  68
ENDBRANCH   9  67
BRANCH   5  76
ATOM     76  C   UNL     1       2.742  -4.046   3.400  0.00  0.00    +0.000 C 
BRANCH  76  77
ATOM     77  C   UNL     1       3.201  -3.886   4.823  0.00  0.00    +0.000 A 
ATOM     78  C   UNL     1       3.587  -2.660   5.394  0.00  0.00    +0.000 A 
ATOM     79  C   UNL     1       4.378  -2.589   6.517  0.00  0.00    +0.000 A 
ATOM     80  C   UNL     1       4.510  -3.731   7.271  0.00  0.00    +0.000 A 
ATOM     81  C   UNL     1       3.997  -4.947   6.807  0.00  0.00    +0.000 A 
ATOM     82  C   UNL     1       3.397  -5.041   5.559  0.00  0.00    +0.000 A 
ENDBRANCH  76  77
ENDBRANCH   5  76
BRANCH  22  83
ATOM     83  C   UNL     1       3.402  -0.727  -0.966  0.00  0.00    +0.000 C 
BRANCH  83  84
ATOM     84  C   UNL     1       1.950  -0.479  -1.275  0.00  0.00    +0.000 C 
ATOM     85  N   UNL     1       1.614   0.680  -1.894  0.00  0.00    +0.000 N 
ATOM     86  O   UNL     1       1.095  -1.289  -0.991  0.00  0.00    +0.000 OA
ATOM     87  H   UNL     1       2.157   1.512  -1.730  0.00  0.00    +0.000 HD
ATOM     88  H   UNL     1       0.646   0.932  -1.788  0.00  0.00    +0.000 HD
ENDBRANCH  83  84
ENDBRANCH  22  83
TORSDOF 18
