REMARK  Name = CHEMBL2391300
REMARK  15 active torsions:
REMARK  status: ('A' for Active; 'I' for Inactive)
REMARK    1  A    between atoms: C_1  and  N_2
REMARK    2  A    between atoms: N_2  and  C_3
REMARK    3  A    between atoms: C_3  and  C_4
REMARK    4  A    between atoms: C_3  and  C_10
REMARK    5  A    between atoms: C_4  and  C_5
REMARK    6  A    between atoms: C_5  and  S_6
REMARK    7  A    between atoms: S_6  and  C_7
REMARK    8  A    between atoms: N_12  and  C_13
REMARK    9  A    between atoms: C_18  and  C_19
REMARK   10  A    between atoms: C_19  and  S_20
REMARK   11  A    between atoms: S_20  and  N_23
REMARK   12  A    between atoms: N_26  and  C_27
REMARK   13  A    between atoms: C_32  and  C_33
REMARK   14  A    between atoms: C_36  and  C_37
REMARK   15  A    between atoms: C_36  and  C_38
REMARK                            x       y       z     vdW  Elec       q    Type
REMARK                         _______ _______ _______ _____ _____    ______ ____
ROOT
ATOM      1  C   UNL     1       4.234   1.951   3.086  0.00  0.00    +0.000 C 
ATOM      2  C   UNL     1       4.371   1.183   4.304  0.00  0.00    +0.000 C 
ATOM      3  C   UNL     1       3.140   0.731   5.003  0.00  0.00    +0.000 C 
ATOM      4  C   UNL     1       2.637   1.929   5.740  0.00  0.00    +0.000 C 
ATOM      5  C   UNL     1       2.264   2.751   4.493  0.00  0.00    +0.000 C 
ATOM      6  C   UNL     1       2.725   1.891   3.216  0.00  0.00    +0.000 C 
ATOM      7  C   UNL     1       2.140   0.543   3.839  0.00  0.00    +0.000 C 
ATOM      8  C   UNL     1       2.470  -0.661   3.578  0.00  0.00    +0.000 C 
ATOM      9  C   UNL     1       1.382  -1.116   3.134  0.00  0.00    +0.000 C 
ENDROOT
BRANCH   1  12
ATOM     10  C   UNL     1       6.420   2.965   3.720  0.00  0.00    +0.000 C 
ATOM     11  O   UNL     1       7.223   3.892   3.621  0.00  0.00    +0.000 OA
ATOM     12  N   UNL     1       5.070   3.135   3.285  0.00  0.00    +0.000 N 
ATOM     13  H   UNL     1       4.735   4.074   3.033  0.00  0.00    +0.000 HD
BRANCH  10  14
ATOM     14  C   UNL     1       6.839   1.444   4.295  0.00  0.00    +0.000 C 
BRANCH  14  16
ATOM     15  C   UNL     1       8.513  -0.222   4.431  0.00  0.00    +0.000 C 
ATOM     16  N   UNL     1       8.285   1.205   4.245  0.00  0.00    +0.000 NA
ATOM     17  H   UNL     1       8.620   1.493   3.324  0.00  0.00    +0.000 HD
ENDBRANCH  14  16
BRANCH  14  18
ATOM     18  C   UNL     1       6.271   0.913   5.818  0.00  0.00    +0.000 C 
BRANCH  18  19
ATOM     19  C   UNL     1       5.942  -0.619   5.993  0.00  0.00    +0.000 C 
BRANCH  19  20
ATOM     20  S   UNL     1       4.936  -1.099   7.434  0.00  0.00    +0.000 S 
ATOM     21  C   UNL     1       5.493   0.084   8.610  0.00  0.00    +0.000 C 
ATOM     22  O   UNL     1       3.506  -0.891   7.337  0.00  0.00    +0.000 OA
ATOM     23  O   UNL     1       5.403  -2.424   7.794  0.00  0.00    +0.000 OA
ENDBRANCH  19  20
ENDBRANCH  18  19
ENDBRANCH  14  18
ENDBRANCH  10  14
ENDBRANCH   1  12
BRANCH   6  24
ATOM     24  C   UNL     1       2.254   2.136   1.859  0.00  0.00    +0.000 C 
BRANCH  24  25
ATOM     25  S   UNL     1       1.734   3.806   1.767  0.00  0.00    +0.000 S 
ATOM     26  O   UNL     1       0.737   4.009   2.791  0.00  0.00    +0.000 OA
ATOM     27  O   UNL     1       2.913   4.638   1.746  0.00  0.00    +0.000 OA
BRANCH  25  28
ATOM     28  N   UNL     1       0.946   3.852   0.285  0.00  0.00    +0.000 NA
ATOM     29  C   UNL     1       0.626   2.527  -0.369  0.00  0.00    +0.000 C 
ATOM     30  C   UNL     1      -0.461   1.750   0.412  0.00  0.00    +0.000 C 
ATOM     31  N   UNL     1      -1.629   2.593   0.473  0.00  0.00    +0.000 N 
ATOM     32  C   UNL     1      -1.458   3.884   1.147  0.00  0.00    +0.000 C 
ATOM     33  C   UNL     1      -0.329   4.668   0.409  0.00  0.00    +0.000 C 
BRANCH  31  34
ATOM     34  C   UNL     1      -2.865   2.078   0.198  0.00  0.00    +0.000 A 
ATOM     35  C   UNL     1      -3.329   0.916   0.829  0.00  0.00    +0.000 A 
ATOM     36  C   UNL     1      -4.592   0.403   0.538  0.00  0.00    +0.000 A 
ATOM     37  C   UNL     1      -5.396   1.039  -0.400  0.00  0.00    +0.000 A 
ATOM     38  C   UNL     1      -4.930   2.170  -1.064  0.00  0.00    +0.000 A 
ATOM     39  C   UNL     1      -3.667   2.694  -0.777  0.00  0.00    +0.000 A 
ATOM     40  C   UNL     1      -3.161   3.870  -1.566  0.00  0.00    +0.000 C 
ENDBRANCH  31  34
ENDBRANCH  25  28
ENDBRANCH  24  25
ENDBRANCH   6  24
TORSDOF 10
