REMARK  Name = CHEMBL1089682
REMARK  7 active torsions:
REMARK  status: ('A' for Active; 'I' for Inactive)
REMARK    1  A    between atoms: C_1  and  O_2
REMARK    2  A    between atoms: O_2  and  C_3
REMARK    3  A    between atoms: C_6  and  N_7
REMARK    4  A    between atoms: N_7  and  C_8
REMARK    5  A    between atoms: C_9  and  C_11
REMARK    6  A    between atoms: C_14  and  C_15
REMARK    7  A    between atoms: C_20  and  C_21
REMARK                            x       y       z     vdW  Elec       q    Type
REMARK                         _______ _______ _______ _____ _____    ______ ____
ROOT
ATOM      1  C   UNL     1       6.326  -5.460   4.425  0.00  0.00    +0.000 A 
ATOM      2  C   UNL     1       6.666  -4.988   5.678  0.00  0.00    +0.000 A 
ATOM      3  N   UNL     1       7.570  -5.599   6.470  0.00  0.00    +0.000 NA
ATOM      4  C   UNL     1       8.042  -6.790   6.026  0.00  0.00    +0.000 A 
ATOM      5  C   UNL     1       7.619  -7.319   4.809  0.00  0.00    +0.000 A 
ATOM      6  N   UNL     1       6.776  -6.662   3.971  0.00  0.00    +0.000 NA
ENDROOT
BRANCH   4   7
ATOM      7  C   UNL     1       8.956  -7.484   6.934  0.00  0.00    +0.000 A 
ATOM      8  C   UNL     1      10.262  -7.802   6.517  0.00  0.00    +0.000 A 
ATOM      9  C   UNL     1      11.156  -8.437   7.380  0.00  0.00    +0.000 A 
ATOM     10  C   UNL     1      10.760  -8.761   8.674  0.00  0.00    +0.000 A 
ATOM     11  C   UNL     1       9.468  -8.464   9.104  0.00  0.00    +0.000 A 
ATOM     12  C   UNL     1       8.557  -7.831   8.247  0.00  0.00    +0.000 A 
ATOM     13  C   UNL     1       7.157  -7.557   8.734  0.00  0.00    +0.000 C 
ENDBRANCH   4   7
BRANCH   1  16
ATOM     14  N   UNL     1       5.675  -3.295   3.305  0.00  0.00    +0.000 N 
ATOM     15  C   UNL     1       6.907  -2.678   3.828  0.00  0.00    +0.000 C 
ATOM     16  C   UNL     1       5.408  -4.678   3.552  0.00  0.00    +0.000 C 
ATOM     17  O   UNL     1       4.450  -5.323   3.113  0.00  0.00    +0.000 OA
BRANCH  14  21
ATOM     18  C   UNL     1       3.185  -0.832   0.873  0.00  0.00    +0.000 A 
ATOM     19  C   UNL     1       2.826  -2.151   1.068  0.00  0.00    +0.000 A 
ATOM     20  C   UNL     1       3.637  -2.965   1.871  0.00  0.00    +0.000 A 
ATOM     21  C   UNL     1       4.800  -2.478   2.475  0.00  0.00    +0.000 A 
ATOM     22  C   UNL     1       5.051  -1.129   2.197  0.00  0.00    +0.000 A 
ATOM     23  N   UNL     1       4.289  -0.309   1.424  0.00  0.00    +0.000 NA
BRANCH  18  25
ATOM     24  C   UNL     1       1.124  -0.032   0.075  0.00  0.00    +0.000 C 
ATOM     25  O   UNL     1       2.542   0.021   0.026  0.00  0.00    +0.000 OA
ENDBRANCH  18  25
ENDBRANCH  14  21
ENDBRANCH   1  16
TORSDOF 4
