REMARK  Name = CHEMBL3814744
REMARK  24 active torsions:
REMARK  status: ('A' for Active; 'I' for Inactive)
REMARK    1  A    between atoms: C_1  and  C_2
REMARK    2  A    between atoms: C_2  and  C_3
REMARK    3  A    between atoms: C_3  and  C_4
REMARK    4  A    between atoms: C_3  and  C_5
REMARK    5  A    between atoms: C_9  and  C_10
REMARK    6  A    between atoms: C_10  and  C_11
REMARK    7  A    between atoms: C_14  and  O_15
REMARK    8  A    between atoms: C_21  and  N_22
REMARK    9  A    between atoms: C_27  and  C_28
REMARK   10  A    between atoms: C_34  and  C_35
REMARK   11  A    between atoms: N_37  and  C_38
REMARK   12  A    between atoms: N_37  and  C_39
REMARK   13  A    between atoms: C_39  and  C_40
REMARK   14  A    between atoms: C_39  and  C_44
REMARK   15  A    between atoms: C_40  and  C_41
REMARK   16  A    between atoms: C_41  and  C_42
REMARK   17  A    between atoms: C_41  and  C_43
REMARK   18  A    between atoms: N_46  and  C_47
REMARK   19  A    between atoms: C_47  and  C_48
REMARK   20  A    between atoms: C_54  and  C_55
REMARK   21  A    between atoms: C_55  and  C_56
REMARK   22  A    between atoms: C_62  and  C_63
REMARK   23  A    between atoms: C_63  and  C_64
REMARK   24  A    between atoms: C_64  and  C_65
REMARK                            x       y       z     vdW  Elec       q    Type
REMARK                         _______ _______ _______ _____ _____    ______ ____
ROOT
ATOM      1  C   UNL     1       4.901  -4.760   1.691  0.00  0.00    +0.000 C 
ATOM      2  N   UNL     1       5.323  -6.968   2.107  0.00  0.00    +0.000 N 
ATOM      3  C   UNL     1       5.702  -8.895   2.315  0.00  0.00    +0.000 C 
ATOM      4  O   UNL     1       6.056  -9.834   3.461  0.00  0.00    +0.000 OA
ATOM      5  C   UNL     1       4.914 -10.786   1.766  0.00  0.00    +0.000 C 
ATOM      6  N   UNL     1       3.403 -11.420   1.995  0.00  0.00    +0.000 N 
ATOM      7  C   UNL     1       2.482 -10.755   2.758  0.00  0.00    +0.000 C 
ATOM      8  O   UNL     1       1.302 -11.077   2.830  0.00  0.00    +0.000 OA
ATOM      9  C   UNL     1       2.818  -9.521   3.543  0.00  0.00    +0.000 C 
ATOM     10  C   UNL     1       2.491  -8.218   2.918  0.00  0.00    +0.000 C 
ATOM     11  S   UNL     1       0.784  -8.389   3.489  0.00  0.00    +0.000 S 
ATOM     12  S   UNL     1      -0.298  -7.233   2.331  0.00  0.00    +0.000 S 
ATOM     13  C   UNL     1      -1.704  -6.404   3.120  0.00  0.00    +0.000 C 
ATOM     14  C   UNL     1      -2.298  -5.096   2.587  0.00  0.00    +0.000 C 
ATOM     15  N   UNL     1      -1.622  -3.913   3.157  0.00  0.00    +0.000 N 
ATOM     16  C   UNL     1      -0.341  -3.594   2.966  0.00  0.00    +0.000 C 
ATOM     17  O   UNL     1       0.067  -2.661   3.647  0.00  0.00    +0.000 OA
ATOM     18  C   UNL     1       0.452  -4.642   2.093  0.00  0.00    +0.000 C 
ATOM     19  N   UNL     1       0.758  -4.100   0.795  0.00  0.00    +0.000 N 
ATOM     20  C   UNL     1       1.274  -2.873   0.802  0.00  0.00    +0.000 C 
ATOM     21  O   UNL     1       1.761  -2.661  -0.532  0.00  0.00    +0.000 OA
ATOM     22  C   UNL     1       2.246  -2.046   2.594  0.00  0.00    +0.000 C 
ATOM     23  N   UNL     1       4.089  -2.376   3.195  0.00  0.00    +0.000 N 
ATOM     24  C   UNL     1       5.320  -3.102   2.501  0.00  0.00    +0.000 C 
ATOM     25  O   UNL     1       6.268  -2.343   2.210  0.00  0.00    +0.000 OA
ATOM     26  H   UNL     1       6.081  -7.772   2.754  0.00  0.00    +0.000 HD
ATOM     27  H   UNL     1       2.959 -12.296   1.542  0.00  0.00    +0.000 HD
ATOM     28  H   UNL     1      -2.098  -3.257   3.784  0.00  0.00    +0.000 HD
ATOM     29  H   UNL     1       0.877  -4.539  -0.121  0.00  0.00    +0.000 HD
ATOM     30  H   UNL     1       4.208  -3.160   3.815  0.00  0.00    +0.000 HD
ENDROOT
BRANCH  14  31
ATOM     31  C   UNL     1      -3.776  -5.026   2.958  0.00  0.00    +0.000 C 
ATOM     32  O   UNL     1      -4.059  -4.008   3.592  0.00  0.00    +0.000 OA
ATOM     33  N   UNL     1      -4.642  -6.009   2.440  0.00  0.00    +0.000 N 
ATOM     34  C   UNL     1      -4.453  -7.447   2.440  0.00  0.00    +0.000 C 
ATOM     35  C   UNL     1      -5.093  -7.885   1.153  0.00  0.00    +0.000 C 
ATOM     36  C   UNL     1      -6.367  -7.101   1.152  0.00  0.00    +0.000 C 
ATOM     37  C   UNL     1      -6.028  -5.816   1.902  0.00  0.00    +0.000 C 
BRANCH  37  38
ATOM     38  C   UNL     1      -7.157  -5.956   2.976  0.00  0.00    +0.000 C 
ATOM     39  O   UNL     1      -6.815  -6.253   4.132  0.00  0.00    +0.000 OA
ATOM     40  N   UNL     1      -8.423  -5.338   2.641  0.00  0.00    +0.000 N 
ATOM     41  C   UNL     1      -8.845  -5.215   1.258  0.00  0.00    +0.000 C 
BRANCH  40  42
ATOM     42  C   UNL     1      -9.403  -4.897   3.714  0.00  0.00    +0.000 C 
BRANCH  42  43
ATOM     43  C   UNL     1     -10.842  -4.625   3.137  0.00  0.00    +0.000 C 
ATOM     44  O   UNL     1     -11.105  -4.671   1.937  0.00  0.00    +0.000 OA
ATOM     45  N   UNL     1     -11.870  -4.325   3.985  0.00  0.00    +0.000 N 
ATOM     46  H   UNL     1     -11.725  -4.269   4.970  0.00  0.00    +0.000 HD
BRANCH  45  47
ATOM     47  C   UNL     1     -13.216  -4.079   3.464  0.00  0.00    +0.000 C 
BRANCH  47  48
ATOM     48  C   UNL     1     -14.248  -3.761   4.557  0.00  0.00    +0.000 C 
ATOM     49  N   UNL     1     -13.809  -3.741   5.863  0.00  0.00    +0.000 N 
ATOM     50  O   UNL     1     -15.424  -3.533   4.282  0.00  0.00    +0.000 OA
ATOM     51  H   UNL     1     -12.871  -3.915   6.173  0.00  0.00    +0.000 HD
ATOM     52  H   UNL     1     -14.461  -3.535   6.612  0.00  0.00    +0.000 HD
ENDBRANCH  47  48
ENDBRANCH  45  47
ENDBRANCH  42  43
BRANCH  42  53
ATOM     53  C   UNL     1      -8.952  -3.631   4.492  0.00  0.00    +0.000 C 
BRANCH  53  54
ATOM     54  C   UNL     1      -7.599  -3.772   5.170  0.00  0.00    +0.000 C 
ATOM     55  C   UNL     1      -6.496  -3.729   4.187  0.00  0.00    +0.000 C 
ATOM     56  C   UNL     1      -7.153  -2.578   5.918  0.00  0.00    +0.000 C 
ENDBRANCH  53  54
ENDBRANCH  42  53
ENDBRANCH  40  42
ENDBRANCH  37  38
ENDBRANCH  14  31
BRANCH   9  57
ATOM     57  N   UNL     1       4.116  -9.252   3.466  0.00  0.00    +0.000 NA
ATOM     58  H   UNL     1       4.125  -9.320   2.463  0.00  0.00    +0.000 HD
ATOM     59  H   UNL     1       4.609 -10.128   3.712  0.00  0.00    +0.000 HD
ENDBRANCH   9  57
BRANCH   1  60
ATOM     60  C   UNL     1       4.387  -2.760   0.877  0.00  0.00    +0.000 C 
ATOM     61  C   UNL     1       3.373  -0.968   0.138  0.00  0.00    +0.000 C 
BRANCH  60  63
ATOM     62  C   UNL     1       2.690  -3.797   2.151  0.00  0.00    +0.000 C 
ATOM     63  C   UNL     1       3.067  -2.724   1.007  0.00  0.00    +0.000 C 
ENDBRANCH  60  63
ENDBRANCH   1  60
BRANCH  18  64
ATOM     64  C   UNL     1       1.562  -5.476   3.113  0.00  0.00    +0.000 C 
BRANCH  64  65
ATOM     65  C   UNL     1       1.142  -5.695   4.519  0.00  0.00    +0.000 C 
ATOM     66  N   UNL     1      -0.106  -5.328   4.841  0.00  0.00    +0.000 N 
ATOM     67  O   UNL     1       1.876  -6.266   5.311  0.00  0.00    +0.000 OA
ATOM     68  H   UNL     1      -0.752  -4.979   4.166  0.00  0.00    +0.000 HD
ATOM     69  H   UNL     1      -0.608  -5.704   5.618  0.00  0.00    +0.000 HD
ENDBRANCH  64  65
ENDBRANCH  18  64
BRANCH   5  70
ATOM     70  C   UNL     1       5.029 -10.052   0.590  0.00  0.00    +0.000 C 
BRANCH  70  71
ATOM     71  C   UNL     1       6.530  -9.992   0.496  0.00  0.00    +0.000 A 
ATOM     72  C   UNL     1       7.470 -10.843   1.155  0.00  0.00    +0.000 A 
ATOM     73  C   UNL     1       8.822 -10.601   1.022  0.00  0.00    +0.000 A 
ATOM     74  C   UNL     1       9.212  -9.485   0.308  0.00  0.00    +0.000 A 
ATOM     75  C   UNL     1       8.280  -8.568  -0.157  0.00  0.00    +0.000 A 
ATOM     76  C   UNL     1       6.943  -8.792  -0.021  0.00  0.00    +0.000 A 
BRANCH  74  77
ATOM     77  O   UNL     1      10.505  -9.198   0.008  0.00  0.00    +0.000 OA
ATOM     78  H   UNL     1      11.118  -9.871   0.339  0.00  0.00    +0.000 HD
ENDBRANCH  74  77
ENDBRANCH  70  71
ENDBRANCH   5  70
BRANCH  22  79
ATOM     79  C   UNL     1       2.033  -0.753   3.064  0.00  0.00    +0.000 C 
BRANCH  79  80
ATOM     80  C   UNL     1       3.089   0.255   3.128  0.00  0.00    +0.000 C 
BRANCH  80  81
ATOM     81  C   UNL     1       2.246   1.477   3.314  0.00  0.00    +0.000 C 
ATOM     82  N   UNL     1       0.864   1.336   3.316  0.00  0.00    +0.000 N 
ATOM     83  O   UNL     1       2.779   2.568   3.449  0.00  0.00    +0.000 OA
ATOM     84  H   UNL     1       0.351   0.461   3.219  0.00  0.00    +0.000 HD
ATOM     85  H   UNL     1       0.270   2.133   3.449  0.00  0.00    +0.000 HD
ENDBRANCH  80  81
ENDBRANCH  79  80
ENDBRANCH  22  79
TORSDOF 19
