REMARK  Name = CHEMBL482322
REMARK  7 active torsions:
REMARK  status: ('A' for Active; 'I' for Inactive)
REMARK    1  A    between atoms: C_2  and  C_3
REMARK    2  A    between atoms: C_6  and  C_7
REMARK    3  A    between atoms: C_12  and  C_13
REMARK    4  A    between atoms: N_19  and  C_20
REMARK    5  A    between atoms: N_19  and  C_27
REMARK    6  A    between atoms: C_20  and  C_21
REMARK    7  A    between atoms: C_27  and  C_28
REMARK                            x       y       z     vdW  Elec       q    Type
REMARK                         _______ _______ _______ _____ _____    ______ ____
ROOT
ATOM      1  O   UNL     1       1.257  -0.151  -0.940  0.00  0.00    +0.000 OA
ATOM      2  C   UNL     1       2.326  -0.059  -0.363  0.00  0.00    +0.000 C 
ATOM      3  N   UNL     1       2.842   1.141   0.180  0.00  0.00    +0.000 N 
ENDROOT
BRANCH   2   4
ATOM      4  C   UNL     1       3.059  -1.340  -0.275  0.00  0.00    +0.000 A 
ATOM      5  C   UNL     1       4.096  -1.652   0.600  0.00  0.00    +0.000 A 
ATOM      6  C   UNL     1       4.861  -2.784   0.354  0.00  0.00    +0.000 A 
ATOM      7  C   UNL     1       4.449  -3.712  -0.612  0.00  0.00    +0.000 A 
ATOM      8  C   UNL     1       3.274  -3.489  -1.329  0.00  0.00    +0.000 A 
ATOM      9  C   UNL     1       2.614  -2.294  -1.196  0.00  0.00    +0.000 A 
BRANCH   7  10
ATOM     10  C   UNL     1       5.214  -4.914  -0.871  0.00  0.00    +0.000 A 
ATOM     11  N   UNL     1       5.326  -5.731   0.208  0.00  0.00    +0.000 NA
ATOM     12  C   UNL     1       5.954  -6.904   0.035  0.00  0.00    +0.000 A 
ATOM     13  C   UNL     1       6.492  -7.301  -1.174  0.00  0.00    +0.000 A 
ATOM     14  C   UNL     1       6.384  -6.443  -2.265  0.00  0.00    +0.000 A 
ATOM     15  C   UNL     1       5.734  -5.215  -2.129  0.00  0.00    +0.000 A 
BRANCH  15  16
ATOM     16  C   UNL     1       5.635  -4.247  -3.275  0.00  0.00    +0.000 C 
ATOM     17  F   UNL     1       4.363  -4.024  -3.710  0.00  0.00    +0.000 F 
ATOM     18  F   UNL     1       6.161  -3.024  -2.986  0.00  0.00    +0.000 F 
ATOM     19  F   UNL     1       6.300  -4.675  -4.387  0.00  0.00    +0.000 F 
ENDBRANCH  15  16
ENDBRANCH   7  10
ENDBRANCH   2   4
BRANCH   3  20
ATOM     20  C   UNL     1       1.999   2.340   0.230  0.00  0.00    +0.000 C 
BRANCH  20  21
ATOM     21  C   UNL     1       0.521   2.257   0.442  0.00  0.00    +0.000 A 
ATOM     22  C   UNL     1      -0.338   3.342   0.277  0.00  0.00    +0.000 A 
ATOM     23  C   UNL     1      -1.711   3.120   0.405  0.00  0.00    +0.000 A 
ATOM     24  C   UNL     1      -2.209   1.815   0.441  0.00  0.00    +0.000 A 
ATOM     25  C   UNL     1      -1.340   0.761   0.605  0.00  0.00    +0.000 A 
ATOM     26  C   UNL     1      -0.025   1.056   0.860  0.00  0.00    +0.000 A 
ENDBRANCH  20  21
ENDBRANCH   3  20
BRANCH   3  27
ATOM     27  C   UNL     1       4.286   1.362   0.139  0.00  0.00    +0.000 C 
BRANCH  27  28
ATOM     28  C   UNL     1       4.964   2.743   0.305  0.00  0.00    +0.000 C 
ATOM     29  C   UNL     1       4.262   4.095   0.422  0.00  0.00    +0.000 C 
ATOM     30  C   UNL     1       5.224   5.046  -0.232  0.00  0.00    +0.000 C 
ATOM     31  C   UNL     1       5.831   4.187  -1.313  0.00  0.00    +0.000 C 
ATOM     32  O   UNL     1       5.903   2.866  -0.785  0.00  0.00    +0.000 OA
ENDBRANCH  27  28
ENDBRANCH   3  27
TORSDOF 7
