REMARK  Name = CHEMBL458654
REMARK  9 active torsions:
REMARK  status: ('A' for Active; 'I' for Inactive)
REMARK    1  A    between atoms: C_1  and  O_2
REMARK    2  A    between atoms: O_2  and  C_3
REMARK    3  A    between atoms: C_6  and  N_7
REMARK    4  A    between atoms: N_7  and  C_8
REMARK    5  A    between atoms: N_7  and  S_22
REMARK    6  A    between atoms: C_8  and  C_9
REMARK    7  A    between atoms: C_12  and  C_13
REMARK    8  A    between atoms: C_18  and  C_19
REMARK    9  A    between atoms: S_22  and  C_25
REMARK                            x       y       z     vdW  Elec       q    Type
REMARK                         _______ _______ _______ _____ _____    ______ ____
ROOT
ATOM      1  N   UNL     1       4.773   2.111  -4.477  0.00  0.00    +0.000 N 
ENDROOT
BRANCH   1   5
ATOM      2  C   UNL     1       2.826   0.670  -0.953  0.00  0.00    +0.000 A 
ATOM      3  C   UNL     1       2.478   1.920  -1.428  0.00  0.00    +0.000 A 
ATOM      4  C   UNL     1       3.102   2.428  -2.588  0.00  0.00    +0.000 A 
ATOM      5  C   UNL     1       4.033   1.668  -3.287  0.00  0.00    +0.000 A 
ATOM      6  C   UNL     1       4.149   0.393  -2.762  0.00  0.00    +0.000 A 
ATOM      7  N   UNL     1       3.680  -0.098  -1.597  0.00  0.00    +0.000 NA
BRANCH   2   9
ATOM      8  C   UNL     1       0.892  -0.026   0.044  0.00  0.00    +0.000 C 
ATOM      9  O   UNL     1       2.302   0.083   0.154  0.00  0.00    +0.000 OA
ENDBRANCH   2   9
ENDBRANCH   1   5
BRANCH   1  10
ATOM     10  S   UNL     1       4.349   3.608  -5.175  0.00  0.00    +0.000 S 
ATOM     11  O   UNL     1       2.975   3.495  -5.650  0.00  0.00    +0.000 OA
ATOM     12  O   UNL     1       4.689   4.636  -4.218  0.00  0.00    +0.000 OA
BRANCH  10  13
ATOM     13  C   UNL     1       5.247   4.135  -6.640  0.00  0.00    +0.000 A 
ATOM     14  C   UNL     1       5.450   5.418  -7.130  0.00  0.00    +0.000 A 
ATOM     15  C   UNL     1       6.214   5.442  -8.333  0.00  0.00    +0.000 A 
ATOM     16  C   UNL     1       6.572   4.177  -8.736  0.00  0.00    +0.000 A 
ATOM     17  S   UNL     1       5.880   2.989  -7.735  0.00  0.00    +0.000 S 
ENDBRANCH  10  13
ENDBRANCH   1  10
BRANCH   1  18
ATOM     18  C   UNL     1       5.940   1.385  -5.075  0.00  0.00    +0.000 C 
BRANCH  18  19
ATOM     19  C   UNL     1       6.451   0.091  -4.470  0.00  0.00    +0.000 A 
ATOM     20  C   UNL     1       7.021   0.107  -3.197  0.00  0.00    +0.000 A 
ATOM     21  C   UNL     1       7.019  -1.082  -2.465  0.00  0.00    +0.000 A 
ATOM     22  C   UNL     1       6.508  -2.264  -3.021  0.00  0.00    +0.000 A 
ATOM     23  C   UNL     1       6.043  -2.194  -4.334  0.00  0.00    +0.000 A 
ATOM     24  N   UNL     1       6.015  -1.055  -5.069  0.00  0.00    +0.000 NA
BRANCH  22  25
ATOM     25  C   UNL     1       6.493  -3.522  -2.271  0.00  0.00    +0.000 A 
ATOM     26  C   UNL     1       7.321  -4.554  -2.742  0.00  0.00    +0.000 A 
ATOM     27  C   UNL     1       7.444  -5.754  -2.050  0.00  0.00    +0.000 A 
ATOM     28  C   UNL     1       6.733  -5.948  -0.873  0.00  0.00    +0.000 A 
ATOM     29  C   UNL     1       5.877  -4.954  -0.403  0.00  0.00    +0.000 A 
ATOM     30  C   UNL     1       5.740  -3.739  -1.093  0.00  0.00    +0.000 A 
ATOM     31  C   UNL     1       4.764  -2.726  -0.560  0.00  0.00    +0.000 C 
ENDBRANCH  22  25
ENDBRANCH  18  19
ENDBRANCH   1  18
TORSDOF 7
