REMARK  Name = CHEMBL25942
REMARK  10 active torsions:
REMARK  status: ('A' for Active; 'I' for Inactive)
REMARK    1  A    between atoms: C_2  and  C_4
REMARK    2  A    between atoms: C_4  and  C_5
REMARK    3  A    between atoms: C_4  and  N_14
REMARK    4  A    between atoms: C_5  and  C_6
REMARK    5  A    between atoms: C_15  and  C_17
REMARK    6  A    between atoms: C_17  and  N_18
REMARK    7  A    between atoms: C_21  and  N_22
REMARK    8  A    between atoms: C_23  and  C_25
REMARK    9  A    between atoms: C_25  and  N_26
REMARK   10  A    between atoms: C_33  and  C_34
REMARK                            x       y       z     vdW  Elec       q    Type
REMARK                         _______ _______ _______ _____ _____    ______ ____
ROOT
ATOM      1  N   UNL     1       7.947   3.133   0.279  0.00  0.00    +0.000 N 
ATOM      2  C   UNL     1       8.870   3.007   1.312  0.00  0.00    +0.000 C 
ATOM      3  O   UNL     1       8.970   1.975   1.991  0.00  0.00    +0.000 OA
ATOM      4  C   UNL     1       9.846   4.170   1.509  0.00  0.00    +0.000 C 
ATOM      5  N   UNL     1       9.112   5.303   2.031  0.00  0.00    +0.000 NA
ATOM      6  C   UNL     1       8.366   5.986   1.241  0.00  0.00    +0.000 C 
ATOM      7  C   UNL     1       8.055   5.613  -0.167  0.00  0.00    +0.000 A 
ATOM      8  C   UNL     1       7.877   6.668  -1.081  0.00  0.00    +0.000 A 
ATOM      9  C   UNL     1       7.478   6.420  -2.391  0.00  0.00    +0.000 A 
ATOM     10  C   UNL     1       7.242   5.118  -2.802  0.00  0.00    +0.000 A 
ATOM     11  C   UNL     1       7.409   4.067  -1.903  0.00  0.00    +0.000 A 
ATOM     12  C   UNL     1       7.832   4.281  -0.576  0.00  0.00    +0.000 A 
ENDROOT
BRANCH   6  13
ATOM     13  C   UNL     1       7.734   7.207   1.818  0.00  0.00    +0.000 A 
ATOM     14  C   UNL     1       8.506   8.251   2.346  0.00  0.00    +0.000 A 
ATOM     15  C   UNL     1       7.871   9.312   2.999  0.00  0.00    +0.000 A 
ATOM     16  C   UNL     1       6.476   9.370   3.044  0.00  0.00    +0.000 A 
ATOM     17  C   UNL     1       5.714   8.377   2.427  0.00  0.00    +0.000 A 
ATOM     18  C   UNL     1       6.341   7.270   1.860  0.00  0.00    +0.000 A 
ENDBRANCH   6  13
BRANCH   4  19
ATOM     19  N   UNL     1      10.802   3.775   2.510  0.00  0.00    +0.000 N 
ATOM     20  C   UNL     1      11.656   4.719   3.025  0.00  0.00    +0.000 C 
ATOM     21  O   UNL     1      11.686   5.868   2.591  0.00  0.00    +0.000 OA
ATOM     22  H   UNL     1      10.707   2.840   2.894  0.00  0.00    +0.000 HD
BRANCH  20  23
ATOM     23  C   UNL     1      12.595   4.194   4.104  0.00  0.00    +0.000 C 
BRANCH  23  24
ATOM     24  N   UNL     1      13.966   4.801   4.129  0.00  0.00    +0.000 NA
ATOM     25  C   UNL     1      14.326   5.718   3.006  0.00  0.00    +0.000 C 
ATOM     26  C   UNL     1      14.341   5.032   1.620  0.00  0.00    +0.000 C 
ATOM     27  O   UNL     1      15.217   3.887   1.630  0.00  0.00    +0.000 OA
ATOM     28  C   UNL     1      14.830   2.984   2.677  0.00  0.00    +0.000 C 
ATOM     29  C   UNL     1      14.928   3.681   4.054  0.00  0.00    +0.000 C 
ENDBRANCH  23  24
ENDBRANCH  20  23
ENDBRANCH   4  19
BRANCH   1  30
ATOM     30  C   UNL     1       7.037   2.008   0.065  0.00  0.00    +0.000 C 
BRANCH  30  32
ATOM     31  N   UNL     1       4.673   1.464  -0.262  0.00  0.00    +0.000 N 
ATOM     32  C   UNL     1       5.557   2.463   0.065  0.00  0.00    +0.000 C 
ATOM     33  O   UNL     1       5.175   3.577   0.393  0.00  0.00    +0.000 OA
ATOM     34  H   UNL     1       5.026   0.663  -0.774  0.00  0.00    +0.000 HD
BRANCH  31  35
ATOM     35  C   UNL     1       3.230   1.495   0.041  0.00  0.00    +0.000 C 
BRANCH  35  37
ATOM     36  N   UNL     1       2.756   3.450   1.469  0.00  0.00    +0.000 N 
ATOM     37  C   UNL     1       2.875   2.081   1.439  0.00  0.00    +0.000 C 
ATOM     38  O   UNL     1       2.732   1.422   2.449  0.00  0.00    +0.000 OA
ATOM     39  H   UNL     1       2.711   3.849   2.398  0.00  0.00    +0.000 HD
ATOM     40  H   UNL     1       3.343   3.969   0.816  0.00  0.00    +0.000 HD
ENDBRANCH  35  37
BRANCH  35  41
ATOM     41  C   UNL     1       2.581   0.072  -0.020  0.00  0.00    +0.000 C 
BRANCH  41  42
ATOM     42  C   UNL     1       3.450  -1.134   0.331  0.00  0.00    +0.000 A 
ATOM     43  C   UNL     1       4.737  -1.011   0.874  0.00  0.00    +0.000 A 
ATOM     44  C   UNL     1       5.625  -2.073   0.939  0.00  0.00    +0.000 A 
ATOM     45  C   UNL     1       5.152  -3.355   0.724  0.00  0.00    +0.000 A 
ATOM     46 CL   UNL     1       6.244  -4.649   1.045  0.00  0.00    +0.000 Cl
ATOM     47  C   UNL     1       3.815  -3.541   0.348  0.00  0.00    +0.000 A 
ATOM     48 CL   UNL     1       3.133  -5.118   0.185  0.00  0.00    +0.000 Cl
ATOM     49  C   UNL     1       2.981  -2.434   0.108  0.00  0.00    +0.000 A 
ENDBRANCH  41  42
ENDBRANCH  35  41
ENDBRANCH  31  35
ENDBRANCH  30  32
ENDBRANCH   1  30
TORSDOF 10
