REMARK  Name = CHEMBL428694
REMARK  9 active torsions:
REMARK  status: ('A' for Active; 'I' for Inactive)
REMARK    1  A    between atoms: C_1  and  C_2
REMARK    2  A    between atoms: N_4  and  C_5
REMARK    3  A    between atoms: C_7  and  C_8
REMARK    4  A    between atoms: N_20  and  C_21
REMARK    5  A    between atoms: C_21  and  C_22
REMARK    6  A    between atoms: N_24  and  C_25
REMARK    7  A    between atoms: N_24  and  C_26
REMARK    8  A    between atoms: C_26  and  C_27
REMARK    9  A    between atoms: C_27  and  C_28
REMARK                            x       y       z     vdW  Elec       q    Type
REMARK                         _______ _______ _______ _____ _____    ______ ____
ROOT
ATOM      1  C   UNL     1       4.768  -0.951  -0.899  0.00  0.00    +0.000 C 
ATOM      2  N   UNL     1       5.203  -2.053  -1.770  0.00  0.00    +0.000 NA
ATOM      3  C   UNL     1       6.472  -2.211  -2.002  0.00  0.00    +0.000 C 
ATOM      4  C   UNL     1       7.562  -1.298  -1.528  0.00  0.00    +0.000 A 
ATOM      5  C   UNL     1       8.662  -1.067  -2.374  0.00  0.00    +0.000 A 
ATOM      6  C   UNL     1       9.727  -0.258  -1.965  0.00  0.00    +0.000 A 
ATOM      7  C   UNL     1       9.676   0.385  -0.738  0.00  0.00    +0.000 A 
ATOM      8  C   UNL     1       8.562   0.218   0.078  0.00  0.00    +0.000 A 
ATOM      9  C   UNL     1       7.546  -0.695  -0.258  0.00  0.00    +0.000 A 
ATOM     10  N   UNL     1       6.640  -1.092   0.761  0.00  0.00    +0.000 N 
ATOM     11  C   UNL     1       5.275  -1.258   0.544  0.00  0.00    +0.000 C 
ATOM     12  O   UNL     1       4.528  -1.611   1.466  0.00  0.00    +0.000 OA
ENDROOT
BRANCH   3  13
ATOM     13  C   UNL     1       6.863  -3.411  -2.818  0.00  0.00    +0.000 A 
ATOM     14  C   UNL     1       6.371  -3.541  -4.120  0.00  0.00    +0.000 A 
ATOM     15  C   UNL     1       6.482  -4.765  -4.786  0.00  0.00    +0.000 A 
ATOM     16  C   UNL     1       7.174  -5.822  -4.198  0.00  0.00    +0.000 A 
ATOM     17  C   UNL     1       7.798  -5.642  -2.962  0.00  0.00    +0.000 A 
ATOM     18  C   UNL     1       7.611  -4.450  -2.250  0.00  0.00    +0.000 A 
ENDBRANCH   3  13
BRANCH   1  22
ATOM     19  C   UNL     1       1.152  -0.085  -0.110  0.00  0.00    +0.000 C 
ATOM     20  C   UNL     1       2.656   0.017  -0.119  0.00  0.00    +0.000 C 
ATOM     21  O   UNL     1       3.239   0.883   0.532  0.00  0.00    +0.000 OA
ATOM     22  N   UNL     1       3.317  -0.912  -0.894  0.00  0.00    +0.000 N 
ATOM     23  H   UNL     1       2.833  -1.592  -1.459  0.00  0.00    +0.000 HD
ENDBRANCH   1  22
BRANCH  10  24
ATOM     24  C   UNL     1       7.119  -1.368   2.123  0.00  0.00    +0.000 C 
BRANCH  24  25
ATOM     25  C   UNL     1       8.629  -1.576   2.375  0.00  0.00    +0.000 C 
ATOM     26  O   UNL     1       9.430  -1.850   1.468  0.00  0.00    +0.000 OA
ATOM     27  N   UNL     1       9.101  -1.467   3.671  0.00  0.00    +0.000 N 
ATOM     28  C   UNL     1       8.263  -1.741   4.828  0.00  0.00    +0.000 C 
BRANCH  27  29
ATOM     29  C   UNL     1      10.562  -1.438   3.818  0.00  0.00    +0.000 C 
BRANCH  29  30
ATOM     30  C   UNL     1      11.073  -1.671   5.235  0.00  0.00    +0.000 C 
BRANCH  30  31
ATOM     31  C   UNL     1      12.570  -1.622   5.307  0.00  0.00    +0.000 A 
ATOM     32  C   UNL     1      13.233  -0.389   5.291  0.00  0.00    +0.000 A 
ATOM     33  C   UNL     1      14.624  -0.345   5.309  0.00  0.00    +0.000 A 
ATOM     34  C   UNL     1      15.357  -1.529   5.229  0.00  0.00    +0.000 A 
ATOM     35  C   UNL     1      14.698  -2.757   5.242  0.00  0.00    +0.000 A 
ATOM     36 CL   UNL     1      15.594  -4.217   5.091  0.00  0.00    +0.000 Cl
ATOM     37  C   UNL     1      13.312  -2.809   5.342  0.00  0.00    +0.000 A 
ENDBRANCH  30  31
ENDBRANCH  29  30
ENDBRANCH  27  29
ENDBRANCH  24  25
ENDBRANCH  10  24
TORSDOF 7
