REMARK  Name = CHEMBL482323
REMARK  7 active torsions:
REMARK  status: ('A' for Active; 'I' for Inactive)
REMARK    1  A    between atoms: C_1  and  C_2
REMARK    2  A    between atoms: C_8  and  C_9
REMARK    3  A    between atoms: C_12  and  C_13
REMARK    4  A    between atoms: N_15  and  C_16
REMARK    5  A    between atoms: N_15  and  C_23
REMARK    6  A    between atoms: C_16  and  C_17
REMARK    7  A    between atoms: C_23  and  C_24
REMARK                            x       y       z     vdW  Elec       q    Type
REMARK                         _______ _______ _______ _____ _____    ______ ____
ROOT
ATOM      1  C   UNL     1       6.473  -3.867  -0.430  0.00  0.00    +0.000 C 
ATOM      2  O   UNL     1       6.792  -4.763  -1.263  0.00  0.00    +0.000 OA
ATOM      3  N   UNL     1       7.352  -3.595   0.679  0.00  0.00    +0.000 N 
ENDROOT
BRANCH   1   7
ATOM      4  C   UNL     1       2.652  -1.679  -0.815  0.00  0.00    +0.000 A 
ATOM      5  C   UNL     1       2.843  -2.859  -1.552  0.00  0.00    +0.000 A 
ATOM      6  C   UNL     1       4.086  -3.607  -1.512  0.00  0.00    +0.000 A 
ATOM      7  C   UNL     1       5.171  -3.166  -0.753  0.00  0.00    +0.000 A 
ATOM      8  C   UNL     1       5.003  -1.893  -0.308  0.00  0.00    +0.000 A 
ATOM      9  C   UNL     1       3.827  -1.169  -0.353  0.00  0.00    +0.000 A 
BRANCH   4  17
ATOM     10  C   UNL     1       2.399   1.395  -0.112  0.00  0.00    +0.000 C 
ATOM     11  C   UNL     1       1.251   0.417  -0.227  0.00  0.00    +0.000 A 
ATOM     12  C   UNL     1      -0.015   0.993  -0.046  0.00  0.00    +0.000 A 
ATOM     13  C   UNL     1      -1.143   0.198   0.019  0.00  0.00    +0.000 A 
ATOM     14  F   UNL     1      -2.346   0.780   0.084  0.00  0.00    +0.000 F 
ATOM     15  C   UNL     1      -1.034  -1.183   0.025  0.00  0.00    +0.000 A 
ATOM     16  C   UNL     1       0.218  -1.778  -0.175  0.00  0.00    +0.000 A 
ATOM     17  C   UNL     1       1.372  -1.000  -0.434  0.00  0.00    +0.000 A 
ENDBRANCH   4  17
ENDBRANCH   1   7
BRANCH   3  18
ATOM     18  C   UNL     1       7.193  -2.717   1.872  0.00  0.00    +0.000 C 
BRANCH  18  19
ATOM     19  C   UNL     1       5.886  -2.239   2.408  0.00  0.00    +0.000 A 
ATOM     20  C   UNL     1       5.675  -0.838   2.508  0.00  0.00    +0.000 A 
ATOM     21  C   UNL     1       4.385  -0.350   2.653  0.00  0.00    +0.000 A 
ATOM     22  C   UNL     1       3.315  -1.251   2.627  0.00  0.00    +0.000 A 
ATOM     23  C   UNL     1       3.534  -2.630   2.511  0.00  0.00    +0.000 A 
ATOM     24  C   UNL     1       4.825  -3.137   2.484  0.00  0.00    +0.000 A 
ENDBRANCH  18  19
ENDBRANCH   3  18
BRANCH   3  25
ATOM     25  C   UNL     1       8.725  -4.208   0.600  0.00  0.00    +0.000 C 
BRANCH  25  26
ATOM     26  C   UNL     1       9.771  -3.774   1.687  0.00  0.00    +0.000 C 
ATOM     27  C   UNL     1      10.209  -2.315   1.571  0.00  0.00    +0.000 C 
ATOM     28  C   UNL     1      11.566  -2.302   2.202  0.00  0.00    +0.000 C 
ATOM     29  C   UNL     1      12.103  -3.666   1.850  0.00  0.00    +0.000 C 
ATOM     30  O   UNL     1      10.986  -4.544   1.631  0.00  0.00    +0.000 OA
ENDBRANCH  25  26
ENDBRANCH   3  25
TORSDOF 6
