REMARK  Name = CHEMBL302029
REMARK  7 active torsions:
REMARK  status: ('A' for Active; 'I' for Inactive)
REMARK    1  A    between atoms: C_1  and  O_2
REMARK    2  A    between atoms: O_2  and  C_3
REMARK    3  A    between atoms: C_5  and  O_6
REMARK    4  A    between atoms: O_6  and  C_7
REMARK    5  A    between atoms: N_10  and  C_11
REMARK    6  A    between atoms: C_26  and  C_27
REMARK    7  A    between atoms: C_32  and  N_33
REMARK                            x       y       z     vdW  Elec       q    Type
REMARK                         _______ _______ _______ _____ _____    ______ ____
ROOT
ATOM      1  C   UNL     1       2.803  -1.005  -0.133  0.00  0.00    +0.000 A 
ATOM      2  C   UNL     1       2.436  -2.337  -0.706  0.00  0.00    +0.000 A 
ATOM      3  C   UNL     1       3.173  -3.410  -0.423  0.00  0.00    +0.000 A 
ATOM      4  C   UNL     1       4.086  -2.914   0.375  0.00  0.00    +0.000 A 
ATOM      5  F   UNL     1       5.074  -3.672   0.269  0.00  0.00    +0.000 F 
ATOM      6  C   UNL     1       3.996  -1.973   1.395  0.00  0.00    +0.000 A 
ATOM      7  C   UNL     1       3.714  -0.794   0.902  0.00  0.00    +0.000 A 
ENDROOT
BRANCH   7   8
ATOM      8  C   UNL     1       4.360   0.423   1.592  0.00  0.00    +0.000 C 
ATOM      9  O   UNL     1       5.263   0.462   2.423  0.00  0.00    +0.000 OA
ATOM     10  N   UNL     1       3.668   1.539   1.353  0.00  0.00    +0.000 N 
ATOM     11  C   UNL     1       4.188   2.709   0.675  0.00  0.00    +0.000 C 
ATOM     12  C   UNL     1       3.857   3.932   1.498  0.00  0.00    +0.000 C 
ATOM     13  C   UNL     1       2.373   3.922   1.940  0.00  0.00    +0.000 C 
ATOM     14  C   UNL     1       2.041   2.655   2.734  0.00  0.00    +0.000 C 
ATOM     15  C   UNL     1       2.356   1.479   1.903  0.00  0.00    +0.000 C 
BRANCH  13  16
ATOM     16  N   UNL     1       1.454   4.250   0.788  0.00  0.00    +0.000 N 
ATOM     17  C   UNL     1       1.447   3.610  -0.443  0.00  0.00    +0.000 C 
ATOM     18  O   UNL     1       1.481   2.397  -0.680  0.00  0.00    +0.000 OA
ATOM     19  O   UNL     1       1.455   4.418  -1.516  0.00  0.00    +0.000 OA
ATOM     20  C   UNL     1       0.206   5.049  -1.616  0.00  0.00    +0.000 C 
ATOM     21  C   UNL     1      -0.083   5.747  -0.327  0.00  0.00    +0.000 A 
ATOM     22  C   UNL     1      -1.002   6.787  -0.330  0.00  0.00    +0.000 A 
ATOM     23  C   UNL     1      -1.287   7.444   0.856  0.00  0.00    +0.000 A 
ATOM     24  C   UNL     1      -0.676   7.045   2.043  0.00  0.00    +0.000 A 
ATOM     25  C   UNL     1       0.240   5.996   2.055  0.00  0.00    +0.000 A 
ATOM     26  C   UNL     1       0.558   5.349   0.865  0.00  0.00    +0.000 A 
ENDBRANCH  13  16
ENDBRANCH   7   8
BRANCH   1  28
ATOM     27  C   UNL     1       0.763  -0.212  -0.227  0.00  0.00    +0.000 C 
ATOM     28  O   UNL     1       2.110   0.039  -0.606  0.00  0.00    +0.000 OA
ENDBRANCH   1  28
BRANCH   3  29
ATOM     29  O   UNL     1       3.250  -4.729  -0.798  0.00  0.00    +0.000 OA
BRANCH  29  30
ATOM     30  C   UNL     1       3.945  -5.827   0.090  0.00  0.00    +0.000 C 
ATOM     31  C   UNL     1       3.555  -5.767   1.594  0.00  0.00    +0.000 C 
ATOM     32  C   UNL     1       4.353  -4.671   2.341  0.00  0.00    +0.000 C 
ATOM     33  N   UNL     1       5.864  -4.532   1.984  0.00  0.00    +0.000 NA
ATOM     34  C   UNL     1       6.406  -5.071   0.593  0.00  0.00    +0.000 C 
ATOM     35  C   UNL     1       5.497  -6.133  -0.001  0.00  0.00    +0.000 C 
BRANCH  33  36
ATOM     36  C   UNL     1       6.634  -3.201   2.284  0.00  0.00    +0.000 C 
ATOM     37  C   UNL     1       6.669  -1.943   1.308  0.00  0.00    +0.000 C 
ATOM     38  C   UNL     1       7.677  -0.874   1.615  0.00  0.00    +0.000 C 
ATOM     39  C   UNL     1       8.925  -1.479   1.104  0.00  0.00    +0.000 C 
ATOM     40  C   UNL     1       9.114  -2.843   1.728  0.00  0.00    +0.000 A 
ATOM     41  N   UNL     1      10.331  -3.369   1.559  0.00  0.00    +0.000 NA
ATOM     42  C   UNL     1      10.522  -4.626   2.014  0.00  0.00    +0.000 A 
ATOM     43  C   UNL     1       9.582  -5.419   2.642  0.00  0.00    +0.000 A 
ATOM     44  C   UNL     1       8.355  -4.868   2.863  0.00  0.00    +0.000 A 
ATOM     45  C   UNL     1       8.090  -3.589   2.351  0.00  0.00    +0.000 A 
ENDBRANCH  33  36
ENDBRANCH  29  30
ENDBRANCH   3  29
TORSDOF 6
