REMARK  Name = CHEMBL271057
REMARK  13 active torsions:
REMARK  status: ('A' for Active; 'I' for Inactive)
REMARK    1  A    between atoms: C_1  and  N_2
REMARK    2  A    between atoms: C_3  and  C_5
REMARK    3  A    between atoms: C_8  and  C_9
REMARK    4  A    between atoms: C_9  and  C_10
REMARK    5  A    between atoms: C_9  and  N_16
REMARK    6  A    between atoms: N_12  and  C_13
REMARK    7  A    between atoms: C_13  and  C_14
REMARK    8  A    between atoms: C_13  and  C_15
REMARK    9  A    between atoms: C_19  and  C_20
REMARK   10  A    between atoms: CA_32  and  CB_33
REMARK   11  A    between atoms: CB_33  and  CG_34
REMARK   12  A    between atoms: CG_34  and  CD1_35
REMARK   13  A    between atoms: CG_34  and  CD2_36
REMARK                            x       y       z     vdW  Elec       q    Type
REMARK                         _______ _______ _______ _____ _____    ______ ____
ROOT
ATOM      1  N   LEU A   1       9.255  -1.502   0.591  0.00  0.00    +0.000 N 
ATOM      2  C   UNK A   2       9.544  -0.798   1.755  0.00  0.00    +0.000 C 
ATOM      3  O   UNK A   2       8.728  -0.736   2.670  0.00  0.00    +0.000 OA
ATOM      4  C   UNK A   2      10.887  -0.016   1.743  0.00  0.00    +0.000 C 
ATOM      5  N   UNK A   2      11.916  -0.890   1.237  0.00  0.00    +0.000 N 
ATOM      6  C   LEU A   1      11.769  -1.252  -0.063  0.00  0.00    +0.000 C 
ATOM      7  O   LEU A   1      12.764  -1.366  -0.769  0.00  0.00    +0.000 OA
ATOM      8  CA  LEU A   1      10.305  -1.480  -0.512  0.00  0.00    +0.000 C 
ATOM      9  H   UNK A   2      12.889  -0.766   1.502  0.00  0.00    +0.000 HD
ENDROOT
BRANCH   4  10
ATOM     10  C   UNK A   2      11.294   0.497   3.099  0.00  0.00    +0.000 C 
ATOM     11  C   UNK A   2      10.261   1.471   3.693  0.00  0.00    +0.000 C 
ATOM     12  C   UNK A   2      10.412   1.171   5.143  0.00  0.00    +0.000 A 
ATOM     13  C   UNK A   2       9.911   1.904   6.196  0.00  0.00    +0.000 A 
ATOM     14  C   UNK A   2      10.177   1.455   7.487  0.00  0.00    +0.000 A 
ATOM     15  C   UNK A   2      10.901   0.271   7.706  0.00  0.00    +0.000 A 
ATOM     16  C   UNK A   2      11.366  -0.487   6.636  0.00  0.00    +0.000 A 
ATOM     17  C   UNK A   2      11.120  -0.017   5.362  0.00  0.00    +0.000 A 
ATOM     18  C   UNK A   2      11.489  -0.675   4.085  0.00  0.00    +0.000 C 
ENDBRANCH   4  10
BRANCH   1  19
ATOM     19  C   UNK A   0       7.976  -2.352   0.645  0.00  0.00    +0.000 C 
BRANCH  19  23
ATOM     20  C   UNK A   0       7.113  -4.312  -2.353  0.00  0.00    +0.000 A 
ATOM     21  C   UNK A   0       8.087  -5.139  -1.860  0.00  0.00    +0.000 A 
ATOM     22  C   UNK A   0       8.348  -4.730  -0.542  0.00  0.00    +0.000 A 
ATOM     23  C   UNK A   0       7.769  -3.469  -0.402  0.00  0.00    +0.000 A 
ATOM     24  O   UNK A   0       6.954  -3.243  -1.501  0.00  0.00    +0.000 OA
BRANCH  20  27
ATOM     25  C   UNK A   0       5.519  -6.244  -5.092  0.00  0.00    +0.000 C 
ATOM     26  N   UNK A   0       6.289  -5.822  -3.959  0.00  0.00    +0.000 N 
ATOM     27  C   UNK A   0       6.379  -4.473  -3.596  0.00  0.00    +0.000 C 
ATOM     28  O   UNK A   0       5.908  -3.579  -4.266  0.00  0.00    +0.000 OA
ATOM     29  H   UNK A   0       6.638  -6.534  -3.333  0.00  0.00    +0.000 HD
ENDBRANCH  20  27
ENDBRANCH  19  23
BRANCH  19  30
ATOM     30  C   UNK A   0       6.605  -1.633   0.772  0.00  0.00    +0.000 C 
ATOM     31  O   UNK A   0       5.587  -2.326   0.891  0.00  0.00    +0.000 OA
ATOM     32  N   UNK A   0       6.520  -0.249   0.736  0.00  0.00    +0.000 N 
ATOM     33  H   UNK A   0       7.355   0.321   0.773  0.00  0.00    +0.000 HD
BRANCH  32  34
ATOM     34  C   UNK A   0       5.198   0.368   0.832  0.00  0.00    +0.000 C 
ATOM     35  C   UNK A   0       4.480  -0.007   2.135  0.00  0.00    +0.000 C 
ATOM     36  C   UNK A   0       5.223   1.892   0.721  0.00  0.00    +0.000 C 
ENDBRANCH  32  34
ENDBRANCH  19  30
ENDBRANCH   1  19
BRANCH   8  37
ATOM     37  CB  LEU A   1      10.308  -2.818  -1.204  0.00  0.00    +0.000 C 
BRANCH  37  38
ATOM     38  CG  LEU A   1      11.497  -3.687  -1.598  0.00  0.00    +0.000 C 
ATOM     39  CD1 LEU A   1      12.216  -4.215  -0.337  0.00  0.00    +0.000 C 
ATOM     40  CD2 LEU A   1      11.089  -4.950  -2.366  0.00  0.00    +0.000 C 
ENDBRANCH  37  38
ENDBRANCH   8  37
TORSDOF 8
