REMARK  Name = CHEMBL30865
REMARK  8 active torsions:
REMARK  status: ('A' for Active; 'I' for Inactive)
REMARK    1  A    between atoms: C_1  and  C_2
REMARK    2  A    between atoms: C_3  and  C_4
REMARK    3  A    between atoms: N_5  and  C_6
REMARK    4  A    between atoms: C_6  and  C_7
REMARK    5  A    between atoms: N_11  and  S_12
REMARK    6  A    between atoms: S_12  and  C_13
REMARK    7  A    between atoms: C_19  and  C_20
REMARK    8  A    between atoms: C_25  and  N_26
REMARK                            x       y       z     vdW  Elec       q    Type
REMARK                         _______ _______ _______ _____ _____    ______ ____
ROOT
ATOM      1  C   UNL     1       6.532  -4.045   4.148  0.00  0.00    +0.000 C 
ATOM      2  C   UNL     1       7.271  -3.760   2.893  0.00  0.00    +0.000 A 
ATOM      3  C   UNL     1       6.932  -2.772   1.993  0.00  0.00    +0.000 A 
ATOM      4  C   UNL     1       5.722  -1.895   2.173  0.00  0.00    +0.000 C 
ATOM      5  N   UNL     1       7.891  -2.787   0.967  0.00  0.00    +0.000 N 
ATOM      6  C   UNL     1       8.767  -3.855   1.187  0.00  0.00    +0.000 A 
ATOM      7  C   UNL     1       9.849  -4.356   0.444  0.00  0.00    +0.000 A 
ATOM      8  C   UNL     1      10.527  -5.487   0.930  0.00  0.00    +0.000 A 
ATOM      9  C   UNL     1      10.194  -6.105   2.131  0.00  0.00    +0.000 A 
ATOM     10  C   UNL     1       9.099  -5.601   2.855  0.00  0.00    +0.000 A 
ATOM     11  C   UNL     1       8.389  -4.468   2.385  0.00  0.00    +0.000 A 
ENDROOT
BRANCH   9  12
ATOM     12  C   UNL     1      10.895  -7.353   2.598  0.00  0.00    +0.000 C 
ATOM     13  O   UNL     1      10.451  -7.930   3.592  0.00  0.00    +0.000 OA
ATOM     14  N   UNL     1      11.908  -7.927   1.799  0.00  0.00    +0.000 N 
ATOM     15  C   UNL     1      11.623  -9.213   1.190  0.00  0.00    +0.000 C 
ATOM     16  C   UNL     1      12.796 -10.160   1.304  0.00  0.00    +0.000 C 
ATOM     17  C   UNL     1      14.112  -9.603   0.239  0.00  0.00    +0.000 C 
ATOM     18  C   UNL     1      14.336  -8.240   1.291  0.00  0.00    +0.000 C 
ATOM     19  C   UNL     1      13.142  -7.276   1.325  0.00  0.00    +0.000 C 
BRANCH  17  20
ATOM     20  N   UNL     1      13.925 -10.086  -1.546  0.00  0.00    +0.000 N 
ATOM     21  C   UNL     1      14.189 -11.399  -1.040  0.00  0.00    +0.000 C 
ATOM     22  O   UNL     1      13.695 -12.022  -0.058  0.00  0.00    +0.000 OA
ATOM     23  O   UNL     1      15.276 -11.953  -1.510  0.00  0.00    +0.000 OA
ATOM     24  C   UNL     1      14.649 -12.722  -2.457  0.00  0.00    +0.000 C 
ATOM     25  C   UNL     1      14.999 -11.801  -3.524  0.00  0.00    +0.000 A 
ATOM     26  C   UNL     1      15.610 -12.622  -4.666  0.00  0.00    +0.000 A 
ATOM     27  C   UNL     1      15.889 -12.160  -5.908  0.00  0.00    +0.000 A 
ATOM     28  C   UNL     1      15.225 -10.966  -6.051  0.00  0.00    +0.000 A 
ATOM     29  C   UNL     1      14.486 -10.155  -4.794  0.00  0.00    +0.000 A 
ATOM     30  C   UNL     1      14.577 -10.431  -3.264  0.00  0.00    +0.000 A 
ENDBRANCH  17  20
ENDBRANCH   9  12
BRANCH   5  31
ATOM     31  C   UNL     1       8.027  -1.852  -0.178  0.00  0.00    +0.000 C 
BRANCH  31  32
ATOM     32  C   UNL     1       7.014  -0.711  -0.099  0.00  0.00    +0.000 C 
ATOM     33  C   UNL     1       7.287   0.156   1.133  0.00  0.00    +0.000 C 
ATOM     34  C   UNL     1       8.276   1.183   0.718  0.00  0.00    +0.000 C 
ATOM     35  C   UNL     1       8.025   1.357  -0.766  0.00  0.00    +0.000 C 
ATOM     36  N   UNL     1       7.025   0.318  -1.168  0.00  0.00    +0.000 NA
BRANCH  36  37
ATOM     37  S   UNL     1       5.450   0.917  -1.588  0.00  0.00    +0.000 S 
ATOM     38  C   UNL     1       4.795   1.649  -0.075  0.00  0.00    +0.000 C 
ATOM     39  O   UNL     1       5.641   1.985  -2.544  0.00  0.00    +0.000 OA
ATOM     40  O   UNL     1       4.613  -0.223  -1.899  0.00  0.00    +0.000 OA
ENDBRANCH  36  37
ENDBRANCH  31  32
ENDBRANCH   5  31
TORSDOF 5
