REMARK  Name = CHEMBL457544
REMARK  10 active torsions:
REMARK  status: ('A' for Active; 'I' for Inactive)
REMARK    1  A    between atoms: C_1  and  O_2
REMARK    2  A    between atoms: O_2  and  C_3
REMARK    3  A    between atoms: C_6  and  S_7
REMARK    4  A    between atoms: S_7  and  N_10
REMARK    5  A    between atoms: N_10  and  C_11
REMARK    6  A    between atoms: N_10  and  C_25
REMARK    7  A    between atoms: C_11  and  C_12
REMARK    8  A    between atoms: C_15  and  C_16
REMARK    9  A    between atoms: C_28  and  O_29
REMARK   10  A    between atoms: O_29  and  C_30
REMARK                            x       y       z     vdW  Elec       q    Type
REMARK                         _______ _______ _______ _____ _____    ______ ____
ROOT
ATOM      1  N   UNL     1       4.744  -4.269  -4.636  0.00  0.00    +0.000 N 
ENDROOT
BRANCH   1   2
ATOM      2  C   UNL     1       5.348  -5.233  -5.538  0.00  0.00    +0.000 A 
ATOM      3  C   UNL     1       5.601  -6.548  -5.177  0.00  0.00    +0.000 A 
ATOM      4  C   UNL     1       6.228  -7.398  -6.088  0.00  0.00    +0.000 A 
ATOM      5  C   UNL     1       6.554  -6.938  -7.357  0.00  0.00    +0.000 A 
ATOM      6  N   UNL     1       6.269  -5.679  -7.754  0.00  0.00    +0.000 NA
ATOM      7  C   UNL     1       5.686  -4.865  -6.839  0.00  0.00    +0.000 A 
BRANCH   5   8
ATOM      8  O   UNL     1       7.171  -7.708  -8.309  0.00  0.00    +0.000 OA
ATOM      9  C   UNL     1       7.472  -9.051  -7.930  0.00  0.00    +0.000 C 
ENDBRANCH   5   8
ENDBRANCH   1   2
BRANCH   1  10
ATOM     10  S   UNL     1       5.586  -4.081  -3.132  0.00  0.00    +0.000 S 
ATOM     11  O   UNL     1       6.968  -3.737  -3.378  0.00  0.00    +0.000 OA
ATOM     12  O   UNL     1       5.249  -5.244  -2.326  0.00  0.00    +0.000 OA
BRANCH  10  16
ATOM     13  C   UNL     1       2.290  -1.179  -0.375  0.00  0.00    +0.000 A 
ATOM     14  C   UNL     1       3.852  -1.931   0.213  0.00  0.00    +0.000 A 
ATOM     15  C   UNL     1       5.103  -2.560  -0.771  0.00  0.00    +0.000 A 
ATOM     16  C   UNL     1       5.016  -2.653  -2.272  0.00  0.00    +0.000 A 
ATOM     17  C   UNL     1       3.785  -1.964  -3.024  0.00  0.00    +0.000 A 
ATOM     18  C   UNL     1       2.067  -1.181  -2.261  0.00  0.00    +0.000 A 
BRANCH  13  20
ATOM     19  C   UNL     1       0.533  -0.060   0.147  0.00  0.00    +0.000 C 
ATOM     20  O   UNL     1       1.760  -0.458   0.618  0.00  0.00    +0.000 OA
ENDBRANCH  13  20
ENDBRANCH  10  16
ENDBRANCH   1  10
BRANCH   1  21
ATOM     21  C   UNL     1       3.538  -3.538  -5.257  0.00  0.00    +0.000 C 
BRANCH  21  22
ATOM     22  C   UNL     1       2.482  -2.568  -4.473  0.00  0.00    +0.000 A 
ATOM     23  C   UNL     1       2.288  -3.397  -2.941  0.00  0.00    +0.000 A 
ATOM     24  C   UNL     1       2.957  -2.596  -1.517  0.00  0.00    +0.000 A 
ATOM     25  C   UNL     1       3.752  -0.662  -1.715  0.00  0.00    +0.000 A 
ATOM     26  C   UNL     1       3.617   0.018  -3.403  0.00  0.00    +0.000 A 
ATOM     27  N   UNL     1       2.968  -0.897  -4.708  0.00  0.00    +0.000 NA
BRANCH  25  28
ATOM     28  C   UNL     1       3.404   0.812  -0.942  0.00  0.00    +0.000 A 
ATOM     29  C   UNL     1       2.337   1.768  -1.172  0.00  0.00    +0.000 A 
ATOM     30  C   UNL     1       2.192   2.751  -0.175  0.00  0.00    +0.000 A 
ATOM     31  C   UNL     1       2.800   2.625   1.089  0.00  0.00    +0.000 A 
ATOM     32  C   UNL     1       3.647   1.609   1.351  0.00  0.00    +0.000 A 
ATOM     33  C   UNL     1       4.026   0.865   0.300  0.00  0.00    +0.000 A 
ATOM     34  F   UNL     1       4.774  -0.117   0.751  0.00  0.00    +0.000 F 
ENDBRANCH  25  28
ENDBRANCH  21  22
ENDBRANCH   1  21
TORSDOF 8
