REMARK  Name = CHEMBL281403
REMARK  12 active torsions:
REMARK  status: ('A' for Active; 'I' for Inactive)
REMARK    1  A    between atoms: C_1  and  C_2
REMARK    2  A    between atoms: C_2  and  C_4
REMARK    3  A    between atoms: C_4  and  C_5
REMARK    4  A    between atoms: C_5  and  C_6
REMARK    5  A    between atoms: C_6  and  C_7
REMARK    6  A    between atoms: N_9  and  C_10
REMARK    7  A    between atoms: C_12  and  C_13
REMARK    8  A    between atoms: N_25  and  C_26
REMARK    9  A    between atoms: C_26  and  C_27
REMARK   10  A    between atoms: N_29  and  C_30
REMARK   11  A    between atoms: C_30  and  C_31
REMARK   12  A    between atoms: C_31  and  C_32
REMARK                            x       y       z     vdW  Elec       q    Type
REMARK                         _______ _______ _______ _____ _____    ______ ____
ROOT
ATOM      1  C   UNL     1       9.338  -2.156   1.972  0.00  0.00    +0.000 C 
ATOM      2  N   UNL     1      10.011  -3.321   2.568  0.00  0.00    +0.000 NA
ATOM      3  C   UNL     1      11.298  -3.424   2.427  0.00  0.00    +0.000 C 
ATOM      4  C   UNL     1      12.166  -2.461   1.670  0.00  0.00    +0.000 A 
ATOM      5  C   UNL     1      13.262  -2.981   0.951  0.00  0.00    +0.000 A 
ATOM      6  C   UNL     1      14.153  -2.136   0.287  0.00  0.00    +0.000 A 
ATOM      7  C   UNL     1      13.921  -0.769   0.267  0.00  0.00    +0.000 A 
ATOM      8  C   UNL     1      12.802  -0.252   0.916  0.00  0.00    +0.000 A 
ATOM      9  C   UNL     1      11.971  -1.069   1.705  0.00  0.00    +0.000 A 
ATOM     10  N   UNL     1      11.070  -0.440   2.615  0.00  0.00    +0.000 N 
ATOM     11  C   UNL     1       9.754  -0.882   2.785  0.00  0.00    +0.000 C 
ATOM     12  O   UNL     1       8.971  -0.274   3.526  0.00  0.00    +0.000 OA
ENDROOT
BRANCH   3  13
ATOM     13  C   UNL     1      11.981  -4.595   3.076  0.00  0.00    +0.000 A 
ATOM     14  C   UNL     1      11.606  -5.906   2.760  0.00  0.00    +0.000 A 
ATOM     15  C   UNL     1      12.179  -6.979   3.453  0.00  0.00    +0.000 A 
ATOM     16  C   UNL     1      13.188  -6.752   4.391  0.00  0.00    +0.000 A 
ATOM     17  C   UNL     1      13.640  -5.453   4.623  0.00  0.00    +0.000 A 
ATOM     18  C   UNL     1      13.008  -4.372   4.002  0.00  0.00    +0.000 A 
ENDBRANCH   3  13
BRANCH   1  21
ATOM     19  C   UNL     1       7.055  -1.550   1.350  0.00  0.00    +0.000 C 
ATOM     20  O   UNL     1       7.485  -0.714   0.556  0.00  0.00    +0.000 OA
ATOM     21  N   UNL     1       7.903  -2.372   2.061  0.00  0.00    +0.000 N 
ATOM     22  H   UNL     1       7.577  -2.924   2.839  0.00  0.00    +0.000 HD
BRANCH  19  23
ATOM     23  C   UNL     1       5.558  -1.753   1.595  0.00  0.00    +0.000 C 
BRANCH  23  24
ATOM     24  C   UNL     1       4.732  -0.822   0.694  0.00  0.00    +0.000 C 
BRANCH  24  25
ATOM     25  C   UNL     1       3.218  -0.978   0.849  0.00  0.00    +0.000 C 
BRANCH  25  27
ATOM     26  C   UNL     1       0.964  -0.070  -0.041  0.00  0.00    +0.000 C 
ATOM     27  C   UNL     1       2.469  -0.029  -0.082  0.00  0.00    +0.000 C 
ATOM     28  O   UNL     1       3.045   0.747  -0.844  0.00  0.00    +0.000 OA
ENDBRANCH  25  27
ENDBRANCH  24  25
ENDBRANCH  23  24
ENDBRANCH  19  23
ENDBRANCH   1  21
BRANCH  10  29
ATOM     29  C   UNL     1      11.505   0.739   3.403  0.00  0.00    +0.000 C 
BRANCH  29  30
ATOM     30  C   UNL     1      13.014   1.043   3.499  0.00  0.00    +0.000 C 
ATOM     31  O   UNL     1      13.892   0.195   3.293  0.00  0.00    +0.000 OA
ATOM     32  N   UNL     1      13.391   2.322   3.851  0.00  0.00    +0.000 N 
ATOM     33  H   UNL     1      12.789   2.877   4.449  0.00  0.00    +0.000 HD
BRANCH  32  34
ATOM     34  C   UNL     1      14.805   2.621   3.737  0.00  0.00    +0.000 C 
BRANCH  34  35
ATOM     35  C   UNL     1      15.272   3.830   4.531  0.00  0.00    +0.000 C 
BRANCH  35  36
ATOM     36  C   UNL     1      16.742   4.116   4.305  0.00  0.00    +0.000 A 
ATOM     37  C   UNL     1      17.178   5.441   4.212  0.00  0.00    +0.000 A 
ATOM     38  C   UNL     1      18.516   5.725   3.933  0.00  0.00    +0.000 A 
ATOM     39  C   UNL     1      19.411   4.692   3.642  0.00  0.00    +0.000 A 
ATOM     40 CL   UNL     1      20.998   5.122   3.115  0.00  0.00    +0.000 Cl
ATOM     41  C   UNL     1      18.997   3.366   3.761  0.00  0.00    +0.000 A 
ATOM     42 CL   UNL     1      20.018   2.028   3.370  0.00  0.00    +0.000 Cl
ATOM     43  C   UNL     1      17.690   3.086   4.169  0.00  0.00    +0.000 A 
ENDBRANCH  35  36
ENDBRANCH  34  35
ENDBRANCH  32  34
ENDBRANCH  29  30
ENDBRANCH  10  29
TORSDOF 11
