REMARK  Name = CHEMBL459291
REMARK  8 active torsions:
REMARK  status: ('A' for Active; 'I' for Inactive)
REMARK    1  A    between atoms: C_1  and  O_2
REMARK    2  A    between atoms: O_2  and  C_3
REMARK    3  A    between atoms: C_6  and  N_7
REMARK    4  A    between atoms: N_7  and  C_8
REMARK    5  A    between atoms: N_7  and  S_20
REMARK    6  A    between atoms: C_8  and  C_9
REMARK    7  A    between atoms: C_11  and  C_12
REMARK    8  A    between atoms: S_20  and  C_23
REMARK                            x       y       z     vdW  Elec       q    Type
REMARK                         _______ _______ _______ _____ _____    ______ ____
ROOT
ATOM      1  N   UNL     1       5.188   2.196   4.277  0.00  0.00    +0.000 N 
ENDROOT
BRANCH   1   5
ATOM      2  C   UNL     1       2.845   0.443   1.143  0.00  0.00    +0.000 A 
ATOM      3  C   UNL     1       2.484   0.193   2.451  0.00  0.00    +0.000 A 
ATOM      4  C   UNL     1       3.239   0.756   3.502  0.00  0.00    +0.000 A 
ATOM      5  C   UNL     1       4.332   1.582   3.246  0.00  0.00    +0.000 A 
ATOM      6  C   UNL     1       4.444   1.869   1.898  0.00  0.00    +0.000 A 
ATOM      7  N   UNL     1       3.803   1.304   0.852  0.00  0.00    +0.000 NA
BRANCH   2   9
ATOM      8  C   UNL     1       0.892  -0.064   0.030  0.00  0.00    +0.000 C 
ATOM      9  O   UNL     1       2.305  -0.143   0.044  0.00  0.00    +0.000 OA
ENDBRANCH   2   9
ENDBRANCH   1   5
BRANCH   1  10
ATOM     10  S   UNL     1       4.754   1.896   5.924  0.00  0.00    +0.000 S 
ATOM     11  O   UNL     1       3.461   2.550   6.116  0.00  0.00    +0.000 OA
ATOM     12  O   UNL     1       4.874   0.480   6.179  0.00  0.00    +0.000 OA
BRANCH  10  13
ATOM     13  C   UNL     1       5.896   2.777   7.000  0.00  0.00    +0.000 A 
ATOM     14  C   UNL     1       5.753   4.145   7.163  0.00  0.00    +0.000 A 
ATOM     15  C   UNL     1       6.598   4.782   8.065  0.00  0.00    +0.000 A 
ATOM     16  C   UNL     1       7.508   4.029   8.802  0.00  0.00    +0.000 A 
ATOM     17  C   UNL     1       7.546   2.656   8.603  0.00  0.00    +0.000 A 
ATOM     18  N   UNL     1       6.773   2.007   7.702  0.00  0.00    +0.000 NA
ENDBRANCH  10  13
ENDBRANCH   1  10
BRANCH   1  19
ATOM     19  C   UNL     1       6.513   2.883   4.017  0.00  0.00    +0.000 C 
BRANCH  19  20
ATOM     20  C   UNL     1       7.020   2.907   2.597  0.00  0.00    +0.000 A 
ATOM     21  N   UNL     1       7.357   1.900   1.813  0.00  0.00    +0.000 NA
ATOM     22  C   UNL     1       7.259   2.440   0.543  0.00  0.00    +0.000 A 
ATOM     23  N   UNL     1       7.041   3.770   0.542  0.00  0.00    +0.000 NA
ATOM     24  O   UNL     1       6.871   4.083   1.901  0.00  0.00    +0.000 OA
BRANCH  22  25
ATOM     25  C   UNL     1       7.357   1.633  -0.669  0.00  0.00    +0.000 A 
ATOM     26  C   UNL     1       8.502   1.771  -1.448  0.00  0.00    +0.000 A 
ATOM     27  C   UNL     1       8.648   1.046  -2.632  0.00  0.00    +0.000 A 
ATOM     28  C   UNL     1       7.678   0.126  -3.025  0.00  0.00    +0.000 A 
ATOM     29  C   UNL     1       6.526  -0.026  -2.263  0.00  0.00    +0.000 A 
ATOM     30  C   UNL     1       6.364   0.730  -1.094  0.00  0.00    +0.000 A 
ENDBRANCH  22  25
ENDBRANCH  19  20
ENDBRANCH   1  19
TORSDOF 7
