REMARK  Name = CHEMBL1765664
REMARK  25 active torsions:
REMARK  status: ('A' for Active; 'I' for Inactive)
REMARK    1  A    between atoms: CD1_1  and  CG_2
REMARK    2  A    between atoms: CG_2  and  CD2_3
REMARK    3  A    between atoms: CG_2  and  CB_4
REMARK    4  A    between atoms: CB_4  and  CA_5
REMARK    5  A    between atoms: CA_9  and  CB_10
REMARK    6  A    between atoms: CB_10  and  CG_11
REMARK    7  A    between atoms: CA_20  and  CB_21
REMARK    8  A    between atoms: CB_21  and  CG_22
REMARK    9  A    between atoms: CZ_25  and  OH_26
REMARK   10  A    between atoms: C_37  and  C_38
REMARK   11  A    between atoms: CA_44  and  C_45
REMARK   12  A    between atoms: N_47  and  C_48
REMARK   13  A    between atoms: C_48  and  C_49
REMARK   14  A    between atoms: C_48  and  C_63
REMARK   15  A    between atoms: C_49  and  C_50
REMARK   16  A    between atoms: C_50  and  C_51
REMARK   17  A    between atoms: C_51  and  C_52
REMARK   18  A    between atoms: C_52  and  N_53
REMARK   19  A    between atoms: C_54  and  C_56
REMARK   20  A    between atoms: C_61  and  N_62
REMARK   21  A    between atoms: N_65  and  CA_66
REMARK   22  A    between atoms: CA_66  and  C_67
REMARK   23  A    between atoms: C_67  and  OXT_69
REMARK   24  A    between atoms: CA_73  and  CB_74
REMARK   25  A    between atoms: CB_74  and  CG_75
REMARK                            x       y       z     vdW  Elec       q    Type
REMARK                         _______ _______ _______ _____ _____    ______ ____
ROOT
ATOM      1  CA  TYR A   1       5.053  -0.749   1.265  0.00  0.00    +0.000 C 
ATOM      2  N   TYR A   1       5.974   0.006   2.327  0.00  0.00    +0.000 N 
ATOM      3  C   TYR A   1       5.889   1.097   3.196  0.00  0.00    +0.000 C 
ATOM      4  O   TYR A   1       6.483   1.038   4.282  0.00  0.00    +0.000 OA
ATOM      5  CA  TYR A   1       4.996   2.361   2.806  0.00  0.00    +0.000 C 
ATOM      6  N   TYR A   1       3.545   2.516   3.068  0.00  0.00    +0.000 N 
ATOM      7  C   TYR A   1       2.754   2.617   4.237  0.00  0.00    +0.000 C 
ATOM      8  O   TYR A   1       1.611   3.059   4.072  0.00  0.00    +0.000 OA
ATOM      9  CA  TYR A   1       3.310   1.938   5.765  0.00  0.00    +0.000 C 
ATOM     10  N   TYR A   1       2.673   2.925   6.575  0.00  0.00    +0.000 N 
ATOM     11  C   UNK A   0       1.317   2.993   6.725  0.00  0.00    +0.000 C 
ATOM     12  O   UNK A   0       0.899   4.027   7.258  0.00  0.00    +0.000 OA
ATOM     13  C   UNK A   0       0.311   1.857   6.307  0.00  0.00    +0.000 C 
ATOM     14  C   UNK A   0       0.635   0.611   5.465  0.00  0.00    +0.000 C 
ATOM     15  S   UNK A   3      -0.702  -0.555   4.992  0.00  0.00    +0.000 S 
ATOM     16  S   UNK A   3       0.350  -2.375   5.007  0.00  0.00    +0.000 S 
ATOM     17  C   UNK A   3      -0.130  -3.268   3.465  0.00  0.00    +0.000 C 
ATOM     18  C   UNK A   3       0.650  -4.403   2.768  0.00  0.00    +0.000 C 
ATOM     19  N   UNK A   3       1.242  -3.962   1.492  0.00  0.00    +0.000 N 
ATOM     20  C   ASN A   2       2.170  -3.012   1.294  0.00  0.00    +0.000 C 
ATOM     21  O   ASN A   2       2.488  -2.612   0.174  0.00  0.00    +0.000 OA
ATOM     22  CA  ASN A   2       2.794  -2.428   2.511  0.00  0.00    +0.000 C 
ATOM     23  N   ASN A   2       4.135  -2.829   2.188  0.00  0.00    +0.000 N 
ATOM     24  C   TYR A   1       5.209  -2.209   1.634  0.00  0.00    +0.000 C 
ATOM     25  O   TYR A   1       6.323  -2.716   1.806  0.00  0.00    +0.000 OA
ATOM     26  H   TYR A   1       6.719  -0.614   2.692  0.00  0.00    +0.000 HD
ATOM     27  H   TYR A   1       2.944   2.446   2.231  0.00  0.00    +0.000 HD
ATOM     28  H   TYR A   1       3.165   3.805   6.698  0.00  0.00    +0.000 HD
ATOM     29  H   UNK A   3       0.932  -4.387   0.622  0.00  0.00    +0.000 HD
ATOM     30  H   ASN A   2       4.321  -3.720   2.643  0.00  0.00    +0.000 HD
ENDROOT
BRANCH  18  31
ATOM     31  C   UNK A   3      -0.244  -5.656   2.440  0.00  0.00    +0.000 C 
ATOM     32  O   UNK A   3      -0.225  -6.124   1.295  0.00  0.00    +0.000 OA
ATOM     33  N   PRO A   4      -0.828  -6.341   3.497  0.00  0.00    +0.000 N 
ATOM     34  CD  PRO A   4      -1.642  -5.839   4.595  0.00  0.00    +0.000 C 
ATOM     35  CG  PRO A   4      -1.247  -6.771   5.703  0.00  0.00    +0.000 C 
ATOM     36  CB  PRO A   4      -1.307  -8.115   5.003  0.00  0.00    +0.000 C 
ATOM     37  CA  PRO A   4      -0.933  -7.823   3.532  0.00  0.00    +0.000 C 
BRANCH  37  38
ATOM     38  C   PRO A   4      -2.114  -8.382   2.714  0.00  0.00    +0.000 C 
ATOM     39  O   PRO A   4      -3.015  -7.630   2.341  0.00  0.00    +0.000 OA
ATOM     40  N   UNK A   5      -2.156  -9.760   2.508  0.00  0.00    +0.000 N 
ATOM     41  H   UNK A   5      -1.587 -10.386   3.070  0.00  0.00    +0.000 HD
BRANCH  40  42
ATOM     42  C   UNK A   5      -3.130 -10.413   1.587  0.00  0.00    +0.000 C 
BRANCH  42  43
ATOM     43  C   UNK A   5      -3.142 -11.975   1.780  0.00  0.00    +0.000 C 
ATOM     44  O   UNK A   5      -2.404 -12.524   2.601  0.00  0.00    +0.000 OA
ATOM     45  N   GLY A   6      -4.014 -12.713   0.996  0.00  0.00    +0.000 N 
ATOM     46  H   GLY A   6      -4.635 -12.265   0.326  0.00  0.00    +0.000 HD
BRANCH  45  47
ATOM     47  CA  GLY A   6      -4.099 -14.183   1.066  0.00  0.00    +0.000 C 
BRANCH  47  48
ATOM     48  C   GLY A   6      -5.136 -14.736   0.082  0.00  0.00    +0.000 C 
ATOM     49  O   GLY A   6      -5.795 -14.021  -0.664  0.00  0.00    +0.000 OA
BRANCH  48  50
ATOM     50  OXT GLY A   6      -5.285 -16.082   0.082  0.00  0.00    +0.000 OA
ATOM     51  HXT GLY A   6      -4.733 -16.601   0.697  0.00  0.00    +0.000 HD
ENDBRANCH  48  50
ENDBRANCH  47  48
ENDBRANCH  45  47
ENDBRANCH  42  43
BRANCH  42  52
ATOM     52  C   UNK A   5      -2.776 -10.090   0.119  0.00  0.00    +0.000 C 
BRANCH  52  53
ATOM     53  C   UNK A   5      -2.736  -8.593  -0.151  0.00  0.00    +0.000 C 
BRANCH  53  54
ATOM     54  C   UNK A   5      -2.388  -8.190  -1.557  0.00  0.00    +0.000 C 
BRANCH  54  55
ATOM     55  C   UNK A   5      -2.348  -6.665  -1.634  0.00  0.00    +0.000 C 
BRANCH  55  56
ATOM     56  N   UNK A   5      -1.978  -6.238  -2.959  0.00  0.00    +0.000 N 
ATOM     57  C   UNK A   5      -1.850  -4.907  -3.289  0.00  0.00    +0.000 C 
ATOM     58  O   UNK A   5      -2.032  -3.985  -2.502  0.00  0.00    +0.000 OA
ATOM     59  H   UNK A   5      -1.692  -6.935  -3.640  0.00  0.00    +0.000 HD
BRANCH  57  60
ATOM     60  C   UNK A   5      -1.515  -4.627  -4.713  0.00  0.00    +0.000 A 
ATOM     61  C   UNK A   5      -0.607  -3.594  -4.998  0.00  0.00    +0.000 A 
ATOM     62  C   UNK A   5      -0.372  -3.213  -6.321  0.00  0.00    +0.000 A 
ATOM     63  C   UNK A   5      -0.984  -3.909  -7.360  0.00  0.00    +0.000 A 
ATOM     64  C   UNK A   5      -1.878  -4.947  -7.077  0.00  0.00    +0.000 A 
ATOM     65  C   UNK A   5      -2.182  -5.305  -5.756  0.00  0.00    +0.000 A 
BRANCH  65  66
ATOM     66  N   UNK A   5      -2.950  -6.461  -5.523  0.00  0.00    +0.000 N 
ATOM     67  H   UNK A   5      -3.566  -6.756  -6.271  0.00  0.00    +0.000 HD
ATOM     68  H   UNK A   5      -3.388  -6.485  -4.600  0.00  0.00    +0.000 HD
ENDBRANCH  65  66
ENDBRANCH  57  60
ENDBRANCH  55  56
ENDBRANCH  54  55
ENDBRANCH  53  54
ENDBRANCH  52  53
ENDBRANCH  42  52
ENDBRANCH  40  42
ENDBRANCH  37  38
ENDBRANCH  18  31
BRANCH  22  69
ATOM     69  CB  ASN A   2       2.068  -1.133   2.539  0.00  0.00    +0.000 C 
BRANCH  69  70
ATOM     70  CG  ASN A   2       2.453   0.237   2.673  0.00  0.00    +0.000 C 
ATOM     71  ND2 ASN A   2       3.497   0.229   3.540  0.00  0.00    +0.000 N 
ATOM     72  OD1 ASN A   2       1.795   1.118   2.254  0.00  0.00    +0.000 OA
ATOM     73 HD21 ASN A   2       4.326  -0.130   3.130  0.00  0.00    +0.000 HD
ATOM     74 HD22 ASN A   2       3.822   1.089   3.896  0.00  0.00    +0.000 HD
ENDBRANCH  69  70
ENDBRANCH  22  69
BRANCH   9  75
ATOM     75  CB  TYR A   1       3.246   0.489   6.702  0.00  0.00    +0.000 C 
BRANCH  75  76
ATOM     76  CG  TYR A   1       3.715  -0.911   6.260  0.00  0.00    +0.000 A 
ATOM     77  CD1 TYR A   1       4.788  -0.827   5.460  0.00  0.00    +0.000 A 
ATOM     78  CE1 TYR A   1       5.233  -1.859   4.661  0.00  0.00    +0.000 A 
ATOM     79  CZ  TYR A   1       5.001  -3.166   4.884  0.00  0.00    +0.000 A 
ATOM     80  CE2 TYR A   1       4.072  -3.363   5.867  0.00  0.00    +0.000 A 
ATOM     81  CD2 TYR A   1       3.428  -2.247   6.559  0.00  0.00    +0.000 A 
BRANCH  79  82
ATOM     82  OH  TYR A   1       5.418  -4.135   4.015  0.00  0.00    +0.000 OA
ATOM     83  HH  TYR A   1       5.974  -3.764   3.276  0.00  0.00    +0.000 HD
ENDBRANCH  79  82
ENDBRANCH  75  76
ENDBRANCH   9  75
BRANCH   5  84
ATOM     84  CB  TYR A   1       5.464   3.584   3.497  0.00  0.00    +0.000 C 
BRANCH  84  85
ATOM     85  CG  TYR A   1       6.924   3.716   3.542  0.00  0.00    +0.000 A 
ATOM     86  CD1 TYR A   1       7.830   2.851   2.898  0.00  0.00    +0.000 A 
ATOM     87  CE1 TYR A   1       9.122   2.774   3.337  0.00  0.00    +0.000 A 
ATOM     88  CZ  TYR A   1       9.566   3.791   4.158  0.00  0.00    +0.000 A 
ATOM     89  CE2 TYR A   1       8.685   4.732   4.707  0.00  0.00    +0.000 A 
ATOM     90  CD2 TYR A   1       7.342   4.653   4.458  0.00  0.00    +0.000 A 
ENDBRANCH  84  85
ENDBRANCH   5  84
BRANCH   1  91
ATOM     91  CB  TYR A   1       4.921  -0.538  -0.235  0.00  0.00    +0.000 C 
BRANCH  91  93
ATOM     92  CD1 TYR A   1       7.156   0.348  -0.332  0.00  0.00    +0.000 C 
ATOM     93  CG  TYR A   1       5.710   0.650  -0.676  0.00  0.00    +0.000 C 
ATOM     94  CD2 TYR A   1       5.562   0.898  -2.164  0.00  0.00    +0.000 C 
ENDBRANCH  91  93
ENDBRANCH   1  91
TORSDOF 23
