REMARK  Name = CHEMBL66992
REMARK  7 active torsions:
REMARK  status: ('A' for Active; 'I' for Inactive)
REMARK    1  A    between atoms: C_1  and  O_2
REMARK    2  A    between atoms: O_2  and  C_3
REMARK    3  A    between atoms: C_5  and  O_6
REMARK    4  A    between atoms: O_6  and  C_7
REMARK    5  A    between atoms: N_10  and  C_11
REMARK    6  A    between atoms: C_27  and  C_28
REMARK    7  A    between atoms: C_33  and  N_34
REMARK                            x       y       z     vdW  Elec       q    Type
REMARK                         _______ _______ _______ _____ _____    ______ ____
ROOT
ATOM      1  C   UNL     1       2.615  -0.694   0.455  0.00  0.00    +0.000 A 
ATOM      2  C   UNL     1       2.253  -2.113   0.880  0.00  0.00    +0.000 A 
ATOM      3  C   UNL     1       2.983  -2.824   1.765  0.00  0.00    +0.000 A 
ATOM      4  C   UNL     1       3.939  -1.982   2.120  0.00  0.00    +0.000 A 
ATOM      5  F   UNL     1       4.887  -2.652   2.578  0.00  0.00    +0.000 F 
ATOM      6  C   UNL     1       4.127  -0.606   1.934  0.00  0.00    +0.000 A 
ATOM      7  C   UNL     1       3.583   0.095   1.019  0.00  0.00    +0.000 A 
ENDROOT
BRANCH   7   8
ATOM      8  C   UNL     1       4.286   1.442   0.897  0.00  0.00    +0.000 C 
ATOM      9  O   UNL     1       5.296   1.847   1.485  0.00  0.00    +0.000 OA
ATOM     10  N   UNL     1       3.624   2.275   0.130  0.00  0.00    +0.000 N 
ATOM     11  C   UNL     1       4.224   2.773  -1.074  0.00  0.00    +0.000 C 
ATOM     12  C   UNL     1       4.057   4.261  -1.067  0.00  0.00    +0.000 C 
ATOM     13  C   UNL     1       2.584   4.622  -0.761  0.00  0.00    +0.000 C 
ATOM     14  C   UNL     1       2.107   4.059   0.583  0.00  0.00    +0.000 C 
ATOM     15  C   UNL     1       2.310   2.596   0.583  0.00  0.00    +0.000 C 
BRANCH  13  16
ATOM     16  N   UNL     1       1.695   4.319  -1.935  0.00  0.00    +0.000 N 
ATOM     17  C   UNL     1       1.541   3.059  -2.539  0.00  0.00    +0.000 C 
ATOM     18  O   UNL     1       1.319   1.999  -2.036  0.00  0.00    +0.000 OA
ATOM     19  O   UNL     1       1.674   3.102  -3.891  0.00  0.00    +0.000 OA
ATOM     20  C   UNL     1       0.543   3.732  -4.436  0.00  0.00    +0.000 C 
ATOM     21  C   UNL     1       0.360   5.072  -3.795  0.00  0.00    +0.000 A 
ATOM     22  C   UNL     1      -0.425   6.022  -4.432  0.00  0.00    +0.000 A 
ATOM     23  C   UNL     1      -0.613   7.262  -3.840  0.00  0.00    +0.000 A 
ATOM     24  C   UNL     1      -0.036   7.546  -2.604  0.00  0.00    +0.000 A 
ATOM     25  C   UNL     1       0.745   6.595  -1.956  0.00  0.00    +0.000 A 
ATOM     26  C   UNL     1       0.959   5.356  -2.553  0.00  0.00    +0.000 A 
ENDBRANCH  13  16
ENDBRANCH   7   8
BRANCH   1  28
ATOM     27  C   UNL     1       0.631  -0.062  -0.137  0.00  0.00    +0.000 C 
ATOM     28  O   UNL     1       1.963  -0.151  -0.585  0.00  0.00    +0.000 OA
ENDBRANCH   1  28
BRANCH   3  29
ATOM     29  O   UNL     1       3.040  -4.116   2.229  0.00  0.00    +0.000 OA
BRANCH  29  30
ATOM     30  C   UNL     1       4.079  -4.692   3.264  0.00  0.00    +0.000 C 
ATOM     31  C   UNL     1       4.125  -4.060   4.687  0.00  0.00    +0.000 C 
ATOM     32  C   UNL     1       5.066  -2.852   4.783  0.00  0.00    +0.000 C 
ATOM     33  N   UNL     1       6.553  -3.036   4.147  0.00  0.00    +0.000 NA
ATOM     34  C   UNL     1       6.579  -3.830   2.843  0.00  0.00    +0.000 C 
ATOM     35  C   UNL     1       5.568  -5.009   2.808  0.00  0.00    +0.000 C 
BRANCH  33  36
ATOM     36  C   UNL     1       7.155  -1.641   4.042  0.00  0.00    +0.000 C 
ATOM     37  C   UNL     1       6.445  -0.835   3.067  0.00  0.00    +0.000 C 
ATOM     38  C   UNL     1       6.853  -0.980   1.513  0.00  0.00    +0.000 C 
ATOM     39  C   UNL     1       7.883   0.061   1.360  0.00  0.00    +0.000 C 
ATOM     40  C   UNL     1       8.784  -0.166   2.532  0.00  0.00    +0.000 A 
ATOM     41  C   UNL     1       8.512  -1.037   3.703  0.00  0.00    +0.000 A 
ATOM     42  C   UNL     1       9.321  -0.903   4.804  0.00  0.00    +0.000 A 
ATOM     43  C   UNL     1      10.402  -0.052   4.738  0.00  0.00    +0.000 A 
ATOM     44  C   UNL     1      10.666   0.711   3.598  0.00  0.00    +0.000 A 
ATOM     45  N   UNL     1       9.847   0.700   2.506  0.00  0.00    +0.000 N 
ATOM     46  O   UNL     1      10.070   1.478   1.525  0.00  0.00    +0.000 OA
ENDBRANCH  33  36
ENDBRANCH  29  30
ENDBRANCH   3  29
TORSDOF 6
