REMARK  Name = CHEMBL68914
REMARK  8 active torsions:
REMARK  status: ('A' for Active; 'I' for Inactive)
REMARK    1  A    between atoms: C_1  and  O_2
REMARK    2  A    between atoms: O_2  and  C_3
REMARK    3  A    between atoms: C_5  and  O_6
REMARK    4  A    between atoms: O_6  and  C_7
REMARK    5  A    between atoms: N_10  and  C_11
REMARK    6  A    between atoms: C_11  and  C_12
REMARK    7  A    between atoms: C_22  and  C_23
REMARK    8  A    between atoms: C_28  and  N_29
REMARK                            x       y       z     vdW  Elec       q    Type
REMARK                         _______ _______ _______ _____ _____    ______ ____
ROOT
ATOM      1  C   UNL     1       3.189  -1.111   0.413  0.00  0.00    +0.000 A 
ATOM      2  C   UNL     1       4.357  -1.178   1.205  0.00  0.00    +0.000 A 
ATOM      3  C   UNL     1       5.049  -2.355   1.360  0.00  0.00    +0.000 A 
ATOM      4  C   UNL     1       4.475  -3.475   0.819  0.00  0.00    +0.000 A 
ATOM      5  C   UNL     1       3.405  -3.431  -0.092  0.00  0.00    +0.000 A 
ATOM      6  C   UNL     1       2.685  -2.230  -0.306  0.00  0.00    +0.000 A 
ENDROOT
BRANCH   6   7
ATOM      7  C   UNL     1       1.379  -2.335  -1.159  0.00  0.00    +0.000 C 
ATOM      8  O   UNL     1       1.020  -3.478  -1.469  0.00  0.00    +0.000 OA
ATOM      9  N   UNL     1       0.608  -1.155  -1.581  0.00  0.00    +0.000 N 
ATOM     10  C   UNL     1      -0.734  -0.789  -0.936  0.00  0.00    +0.000 C 
ATOM     11  C   UNL     1      -1.568   0.207  -1.786  0.00  0.00    +0.000 C 
ATOM     12  C   UNL     1      -0.847   1.884  -2.245  0.00  0.00    +0.000 C 
ATOM     13  C   UNL     1       0.523   0.995  -2.959  0.00  0.00    +0.000 C 
ATOM     14  C   UNL     1       1.352   0.005  -2.105  0.00  0.00    +0.000 C 
BRANCH  12  15
ATOM     15  N   UNL     1      -1.128   3.366  -1.141  0.00  0.00    +0.000 N 
ATOM     16  C   UNL     1      -2.369   2.791  -0.941  0.00  0.00    +0.000 C 
ATOM     17  O   UNL     1      -3.178   2.292  -1.804  0.00  0.00    +0.000 OA
ATOM     18  O   UNL     1      -2.676   2.755   0.305  0.00  0.00    +0.000 OA
ATOM     19  C   UNL     1      -3.486   3.862   0.293  0.00  0.00    +0.000 C 
ATOM     20  C   UNL     1      -2.363   4.771   0.617  0.00  0.00    +0.000 A 
ATOM     21  C   UNL     1      -2.606   5.223   2.125  0.00  0.00    +0.000 A 
ATOM     22  C   UNL     1      -2.547   6.462   2.669  0.00  0.00    +0.000 A 
ATOM     23  C   UNL     1      -2.176   7.253   1.638  0.00  0.00    +0.000 A 
ATOM     24  C   UNL     1      -1.739   6.577   0.121  0.00  0.00    +0.000 A 
ATOM     25  C   UNL     1      -1.737   5.113  -0.648  0.00  0.00    +0.000 A 
ENDBRANCH  12  15
ENDBRANCH   6   7
BRANCH   1  27
ATOM     26  C   UNL     1       1.369   0.264   0.814  0.00  0.00    +0.000 C 
ATOM     27  O   UNL     1       2.728   0.183   0.495  0.00  0.00    +0.000 OA
ENDBRANCH   1  27
BRANCH   3  28
ATOM     28  O   UNL     1       6.172  -2.435   2.124  0.00  0.00    +0.000 OA
BRANCH  28  29
ATOM     29  C   UNL     1       7.299  -3.241   1.681  0.00  0.00    +0.000 C 
ATOM     30  C   UNL     1       7.409  -3.570   0.169  0.00  0.00    +0.000 C 
ATOM     31  C   UNL     1       6.885  -4.972  -0.252  0.00  0.00    +0.000 C 
ATOM     32  N   UNL     1       7.458  -6.038   0.571  0.00  0.00    +0.000 NA
ATOM     33  C   UNL     1       7.222  -5.758   1.991  0.00  0.00    +0.000 C 
ATOM     34  C   UNL     1       7.761  -4.448   2.481  0.00  0.00    +0.000 C 
BRANCH  32  35
ATOM     35  C   UNL     1       6.840  -7.335   0.208  0.00  0.00    +0.000 C 
BRANCH  35  36
ATOM     36  C   UNL     1       7.480  -8.523   0.881  0.00  0.00    +0.000 A 
ATOM     37  C   UNL     1       7.481  -8.726   2.270  0.00  0.00    +0.000 A 
ATOM     38  C   UNL     1       8.140  -9.801   2.832  0.00  0.00    +0.000 A 
ATOM     39  C   UNL     1       8.674 -10.730   1.969  0.00  0.00    +0.000 A 
ATOM     40  N   UNL     1       8.653 -10.617   0.622  0.00  0.00    +0.000 NA
ATOM     41  C   UNL     1       8.080  -9.505   0.111  0.00  0.00    +0.000 A 
ENDBRANCH  35  36
ENDBRANCH  32  35
ENDBRANCH  28  29
ENDBRANCH   3  28
TORSDOF 7
