REMARK  Name = CHEMBL319646
REMARK  7 active torsions:
REMARK  status: ('A' for Active; 'I' for Inactive)
REMARK    1  A    between atoms: C_1  and  O_2
REMARK    2  A    between atoms: O_2  and  C_3
REMARK    3  A    between atoms: C_5  and  O_6
REMARK    4  A    between atoms: O_6  and  C_7
REMARK    5  A    between atoms: C_7  and  C_8
REMARK    6  A    between atoms: C_16  and  C_17
REMARK    7  A    between atoms: C_22  and  N_23
REMARK                            x       y       z     vdW  Elec       q    Type
REMARK                         _______ _______ _______ _____ _____    ______ ____
ROOT
ATOM      1  C   UNL     1       1.297   2.495   0.095  0.00  0.00    +0.000 C 
ATOM      2  O   UNL     1       0.807   3.608  -0.134  0.00  0.00    +0.000 OA
ATOM      3  N   UNL     1       0.632   1.580   0.992  0.00  0.00    +0.000 N 
ATOM      4  C   UNL     1      -0.762   1.168   0.665  0.00  0.00    +0.000 C 
ATOM      5  C   UNL     1      -1.614   0.775   1.863  0.00  0.00    +0.000 C 
ATOM      6  C   UNL     1      -0.953  -0.567   2.794  0.00  0.00    +0.000 C 
ATOM      7  C   UNL     1       0.489   0.287   3.152  0.00  0.00    +0.000 C 
ATOM      8  C   UNL     1       1.347   0.711   1.948  0.00  0.00    +0.000 C 
ENDROOT
BRANCH   6   9
ATOM      9  N   UNL     1      -1.403  -2.320   2.604  0.00  0.00    +0.000 N 
ATOM     10  C   UNL     1      -2.772  -1.766   2.567  0.00  0.00    +0.000 C 
ATOM     11  O   UNL     1      -3.277  -0.782   3.239  0.00  0.00    +0.000 OA
ATOM     12  O   UNL     1      -3.482  -2.183   1.564  0.00  0.00    +0.000 OA
ATOM     13  C   UNL     1      -4.403  -3.036   2.149  0.00  0.00    +0.000 C 
ATOM     14  C   UNL     1      -3.560  -4.221   2.301  0.00  0.00    +0.000 A 
ATOM     15  C   UNL     1      -4.489  -5.432   2.186  0.00  0.00    +0.000 A 
ATOM     16  C   UNL     1      -4.097  -6.730   2.192  0.00  0.00    +0.000 A 
ATOM     17  C   UNL     1      -2.717  -6.777   2.217  0.00  0.00    +0.000 A 
ATOM     18  C   UNL     1      -1.730  -5.469   2.333  0.00  0.00    +0.000 A 
ATOM     19  C   UNL     1      -2.127  -4.005   2.436  0.00  0.00    +0.000 A 
ENDBRANCH   6   9
BRANCH   1  25
ATOM     20  C   UNL     1       3.040   0.810  -0.938  0.00  0.00    +0.000 A 
ATOM     21  C   UNL     1       4.169   0.573  -1.737  0.00  0.00    +0.000 A 
ATOM     22  C   UNL     1       4.805   1.600  -2.417  0.00  0.00    +0.000 A 
ATOM     23  C   UNL     1       4.247   2.867  -2.373  0.00  0.00    +0.000 A 
ATOM     24  C   UNL     1       3.142   3.124  -1.533  0.00  0.00    +0.000 A 
ATOM     25  C   UNL     1       2.533   2.109  -0.742  0.00  0.00    +0.000 A 
BRANCH  20  27
ATOM     26  C   UNL     1       1.185  -0.552  -0.782  0.00  0.00    +0.000 C 
ATOM     27  O   UNL     1       2.547  -0.371  -0.450  0.00  0.00    +0.000 OA
ENDBRANCH  20  27
BRANCH  22  28
ATOM     28  O   UNL     1       5.941   1.246  -3.077  0.00  0.00    +0.000 OA
BRANCH  28  29
ATOM     29  C   UNL     1       6.725   2.306  -3.634  0.00  0.00    +0.000 C 
BRANCH  29  30
ATOM     30  C   UNL     1       8.058   1.776  -4.107  0.00  0.00    +0.000 A 
ATOM     31  C   UNL     1       8.277   0.401  -4.262  0.00  0.00    +0.000 A 
ATOM     32  C   UNL     1       9.544  -0.082  -4.575  0.00  0.00    +0.000 A 
ATOM     33  C   UNL     1      10.580   0.807  -4.844  0.00  0.00    +0.000 A 
ATOM     34  C   UNL     1      10.362   2.181  -4.755  0.00  0.00    +0.000 A 
ATOM     35  C   UNL     1       9.108   2.666  -4.381  0.00  0.00    +0.000 A 
ENDBRANCH  29  30
ENDBRANCH  28  29
ENDBRANCH  22  28
ENDBRANCH   1  25
TORSDOF 6
