REMARK  Name = CHEMBL1092457
REMARK  11 active torsions:
REMARK  status: ('A' for Active; 'I' for Inactive)
REMARK    1  A    between atoms: C_1  and  O_2
REMARK    2  A    between atoms: O_2  and  C_3
REMARK    3  A    between atoms: C_3  and  C_4
REMARK    4  A    between atoms: C_4  and  N_5
REMARK    5  A    between atoms: N_5  and  C_23
REMARK    6  A    between atoms: C_6  and  C_8
REMARK    7  A    between atoms: C_11  and  C_12
REMARK    8  A    between atoms: C_15  and  C_16
REMARK    9  A    between atoms: C_19  and  C_20
REMARK   10  A    between atoms: C_26  and  O_27
REMARK   11  A    between atoms: O_27  and  C_28
REMARK                            x       y       z     vdW  Elec       q    Type
REMARK                         _______ _______ _______ _____ _____    ______ ____
ROOT
ATOM      1  N   UNL     1       4.888  -1.616   2.143  0.00  0.00    +0.000 N 
ATOM      2  C   UNL     1       4.012  -2.386   2.985  0.00  0.00    +0.000 C 
ATOM      3  O   UNL     1       4.435  -3.056   3.932  0.00  0.00    +0.000 OA
ENDROOT
BRANCH   2   4
ATOM      4  C   UNL     1       2.514  -2.407   2.832  0.00  0.00    +0.000 A 
ATOM      5  C   UNL     1       1.893  -2.842   1.672  0.00  0.00    +0.000 A 
ATOM      6  N   UNL     1       0.574  -2.600   1.388  0.00  0.00    +0.000 NA
ATOM      7  C   UNL     1      -0.171  -2.049   2.380  0.00  0.00    +0.000 A 
ATOM      8  C   UNL     1       0.427  -1.807   3.612  0.00  0.00    +0.000 A 
ATOM      9  N   UNL     1       1.766  -1.914   3.854  0.00  0.00    +0.000 NA
BRANCH   7  10
ATOM     10  C   UNL     1      -1.599  -1.782   2.086  0.00  0.00    +0.000 A 
ATOM     11  C   UNL     1      -2.349  -2.773   1.424  0.00  0.00    +0.000 A 
ATOM     12  C   UNL     1      -3.669  -2.555   1.013  0.00  0.00    +0.000 A 
ATOM     13  C   UNL     1      -4.324  -1.379   1.368  0.00  0.00    +0.000 A 
ATOM     14  C   UNL     1      -3.647  -0.431   2.141  0.00  0.00    +0.000 A 
ATOM     15  C   UNL     1      -2.270  -0.579   2.429  0.00  0.00    +0.000 A 
ATOM     16  C   UNL     1      -1.540   0.595   3.031  0.00  0.00    +0.000 C 
BRANCH  13  17
ATOM     17  C   UNL     1      -5.665  -1.131   0.901  0.00  0.00    +0.000 C 
ATOM     18  N   UNL     1      -6.725  -0.930   0.494  0.00  0.00    +0.000 NA
ENDBRANCH  13  17
ENDBRANCH   7  10
ENDBRANCH   2   4
BRANCH   1  19
ATOM     19  C   UNL     1       6.330  -1.790   2.313  0.00  0.00    +0.000 A 
ATOM     20  C   UNL     1       7.204  -0.702   2.261  0.00  0.00    +0.000 A 
ATOM     21  C   UNL     1       8.586  -0.875   2.418  0.00  0.00    +0.000 A 
ATOM     22  C   UNL     1       9.111  -2.153   2.460  0.00  0.00    +0.000 A 
ATOM     23  N   UNL     1       8.304  -3.233   2.536  0.00  0.00    +0.000 NA
ATOM     24  C   UNL     1       6.949  -3.023   2.535  0.00  0.00    +0.000 A 
BRANCH  22  25
ATOM     25  O   UNL     1      10.453  -2.440   2.413  0.00  0.00    +0.000 OA
ATOM     26  C   UNL     1      11.344  -1.329   2.324  0.00  0.00    +0.000 C 
ENDBRANCH  22  25
ENDBRANCH   1  19
BRANCH   1  27
ATOM     27  C   UNL     1       4.518  -0.632   1.043  0.00  0.00    +0.000 C 
BRANCH  27  28
ATOM     28  C   UNL     1       3.039  -0.363   0.878  0.00  0.00    +0.000 C 
BRANCH  28  30
ATOM     29  C   UNL     1       1.085   0.246  -0.160  0.00  0.00    +0.000 C 
ATOM     30  O   UNL     1       2.515   0.472  -0.138  0.00  0.00    +0.000 OA
ENDBRANCH  28  30
ENDBRANCH  27  28
ENDBRANCH   1  27
TORSDOF 8
