REMARK  Name = CHEMBL2035011
REMARK  13 active torsions:
REMARK  status: ('A' for Active; 'I' for Inactive)
REMARK    1  A    between atoms: C_1  and  C_2
REMARK    2  A    between atoms: C_2  and  C_3
REMARK    3  A    between atoms: C_8  and  C_9
REMARK    4  A    between atoms: C_9  and  C_10
REMARK    5  A    between atoms: C_9  and  N_16
REMARK    6  A    between atoms: N_12  and  C_13
REMARK    7  A    between atoms: C_13  and  C_14
REMARK    8  A    between atoms: C_13  and  C_15
REMARK    9  A    between atoms: C_19  and  C_20
REMARK   10  A    between atoms: CA_32  and  CB_33
REMARK   11  A    between atoms: CB_33  and  CG_34
REMARK   12  A    between atoms: CG_34  and  CD1_35
REMARK   13  A    between atoms: CG_34  and  CD2_36
REMARK                            x       y       z     vdW  Elec       q    Type
REMARK                         _______ _______ _______ _____ _____    ______ ____
ROOT
ATOM      1  N   LEU A   1       2.209   1.115  -2.082  0.00  0.00    +0.000 N 
ATOM      2  C   UNK A   2       1.326   0.234  -1.429  0.00  0.00    +0.000 C 
ATOM      3  O   UNK A   2       0.656   0.651  -0.499  0.00  0.00    +0.000 OA
ATOM      4  C   UNK A   2       1.310  -1.286  -1.947  0.00  0.00    +0.000 C 
ATOM      5  N   UNK A   2       1.287  -1.165  -3.385  0.00  0.00    +0.000 N 
ATOM      6  C   LEU A   1       2.234  -0.392  -4.027  0.00  0.00    +0.000 C 
ATOM      7  O   LEU A   1       2.350  -0.450  -5.225  0.00  0.00    +0.000 OA
ATOM      8  CA  LEU A   1       3.125   0.456  -3.057  0.00  0.00    +0.000 C 
ATOM      9  H   UNK A   2       0.733  -1.757  -3.990  0.00  0.00    +0.000 HD
ENDROOT
BRANCH   4  10
ATOM     10  C   UNK A   2       0.080  -1.999  -1.369  0.00  0.00    +0.000 C 
ATOM     11  C   UNK A   2       0.195  -1.907   0.135  0.00  0.00    +0.000 C 
ATOM     12  C   UNK A   2      -1.078  -2.559   0.441  0.00  0.00    +0.000 A 
ATOM     13  C   UNK A   2      -2.158  -1.974   1.063  0.00  0.00    +0.000 A 
ATOM     14  C   UNK A   2      -3.161  -2.797   1.504  0.00  0.00    +0.000 A 
ATOM     15  C   UNK A   2      -3.027  -4.169   1.273  0.00  0.00    +0.000 A 
ATOM     16  C   UNK A   2      -2.014  -4.673   0.395  0.00  0.00    +0.000 A 
ATOM     17  C   UNK A   2      -1.149  -3.768  -0.209  0.00  0.00    +0.000 A 
ATOM     18  C   UNK A   2      -0.287  -3.568  -1.497  0.00  0.00    +0.000 C 
ENDBRANCH   4  10
BRANCH   1  19
ATOM     19  C   UNK A   0       2.280   2.520  -1.427  0.00  0.00    +0.000 C 
BRANCH  19  25
ATOM     20  C   UNK A   0       4.110   4.481  -1.770  0.00  0.00    +0.000 A 
ATOM     21  C   UNK A   0       4.841   5.403  -2.576  0.00  0.00    +0.000 A 
ATOM     22  C   UNK A   0       4.443   5.656  -3.887  0.00  0.00    +0.000 A 
ATOM     23  C   UNK A   0       3.292   4.990  -4.364  0.00  0.00    +0.000 A 
ATOM     24  C   UNK A   0       2.505   4.137  -3.519  0.00  0.00    +0.000 A 
ATOM     25  C   UNK A   0       2.955   3.752  -2.225  0.00  0.00    +0.000 A 
BRANCH  20  27
ATOM     26  C   UNK A   0       3.389   5.366   0.174  0.00  0.00    +0.000 C 
ATOM     27  C   UNK A   0       4.510   4.469  -0.337  0.00  0.00    +0.000 C 
ENDBRANCH  20  27
ENDBRANCH  19  25
BRANCH  19  28
ATOM     28  C   UNK A   0       2.737   2.253   0.124  0.00  0.00    +0.000 C 
ATOM     29  O   UNK A   0       3.555   1.373   0.417  0.00  0.00    +0.000 OA
ATOM     30  N   UNK A   0       2.209   3.091   1.111  0.00  0.00    +0.000 N 
ATOM     31  H   UNK A   0       1.392   3.636   0.861  0.00  0.00    +0.000 HD
BRANCH  30  32
ATOM     32  C   UNK A   0       2.711   3.236   2.505  0.00  0.00    +0.000 C 
ATOM     33  C   UNK A   0       4.228   3.521   2.645  0.00  0.00    +0.000 C 
ATOM     34  C   UNK A   0       1.943   4.357   3.239  0.00  0.00    +0.000 C 
ENDBRANCH  30  32
ENDBRANCH  19  28
ENDBRANCH   1  19
BRANCH   8  35
ATOM     35  CB  LEU A   1       3.885   1.386  -3.949  0.00  0.00    +0.000 C 
BRANCH  35  36
ATOM     36  CG  LEU A   1       5.152   1.900  -3.285  0.00  0.00    +0.000 C 
ATOM     37  CD1 LEU A   1       6.319   0.992  -3.196  0.00  0.00    +0.000 C 
ATOM     38  CD2 LEU A   1       5.677   3.028  -4.109  0.00  0.00    +0.000 C 
ENDBRANCH  35  36
ENDBRANCH   8  35
TORSDOF 8
