REMARK  Name = CHEMBL284419
REMARK  7 active torsions:
REMARK  status: ('A' for Active; 'I' for Inactive)
REMARK    1  A    between atoms: C_1  and  C_2
REMARK    2  A    between atoms: N_4  and  C_5
REMARK    3  A    between atoms: C_5  and  C_6
REMARK    4  A    between atoms: N_8  and  C_9
REMARK    5  A    between atoms: C_9  and  C_10
REMARK    6  A    between atoms: C_14  and  C_15
REMARK    7  A    between atoms: C_20  and  N_21
REMARK                            x       y       z     vdW  Elec       q    Type
REMARK                         _______ _______ _______ _____ _____    ______ ____
ROOT
ATOM      1  C   UNL     1       8.595  -0.764   4.228  0.00  0.00    +0.000 A 
ATOM      2  C   UNL     1       9.457  -0.818   3.152  0.00  0.00    +0.000 A 
ATOM      3  C   UNL     1      10.778  -0.757   3.650  0.00  0.00    +0.000 A 
ATOM      4  C   UNL     1      12.056  -0.741   3.057  0.00  0.00    +0.000 A 
ATOM      5  C   UNL     1      13.198  -0.659   3.872  0.00  0.00    +0.000 A 
ATOM      6  C   UNL     1      13.035  -0.563   5.264  0.00  0.00    +0.000 A 
ATOM      7  C   UNL     1      11.767  -0.611   5.879  0.00  0.00    +0.000 A 
ATOM      8  C   UNL     1      10.661  -0.695   5.032  0.00  0.00    +0.000 A 
ATOM      9  O   UNL     1       9.334  -0.710   5.391  0.00  0.00    +0.000 OA
ENDROOT
BRANCH   5  10
ATOM     10  C   UNL     1      14.542  -0.576   3.198  0.00  0.00    +0.000 C 
ATOM     11  O   UNL     1      14.618  -0.476   1.976  0.00  0.00    +0.000 OA
ATOM     12  N   UNL     1      15.667  -0.518   4.004  0.00  0.00    +0.000 N 
ATOM     13  C   UNL     1      16.630   0.565   3.835  0.00  0.00    +0.000 C 
ATOM     14  C   UNL     1      18.026   0.038   3.555  0.00  0.00    +0.000 C 
ATOM     15  C   UNL     1      18.460  -0.994   4.620  0.00  0.00    +0.000 C 
ATOM     16  C   UNL     1      17.415  -2.117   4.705  0.00  0.00    +0.000 C 
ATOM     17  C   UNL     1      16.004  -1.595   4.926  0.00  0.00    +0.000 C 
BRANCH  15  18
ATOM     18  N   UNL     1      18.838  -0.350   5.922  0.00  0.00    +0.000 N 
ATOM     19  C   UNL     1      17.957   0.393   6.706  0.00  0.00    +0.000 C 
ATOM     20  O   UNL     1      16.861   0.052   7.137  0.00  0.00    +0.000 OA
ATOM     21  O   UNL     1      18.393   1.653   6.947  0.00  0.00    +0.000 OA
ATOM     22  C   UNL     1      19.497   1.615   7.825  0.00  0.00    +0.000 C 
ATOM     23  C   UNL     1      20.531   0.647   7.340  0.00  0.00    +0.000 A 
ATOM     24  C   UNL     1      21.813   0.694   7.891  0.00  0.00    +0.000 A 
ATOM     25  C   UNL     1      22.775  -0.215   7.473  0.00  0.00    +0.000 A 
ATOM     26  C   UNL     1      22.454  -1.173   6.513  0.00  0.00    +0.000 A 
ATOM     27  C   UNL     1      21.172  -1.222   5.955  0.00  0.00    +0.000 A 
ATOM     28  C   UNL     1      20.197  -0.309   6.361  0.00  0.00    +0.000 A 
ENDBRANCH  15  18
ENDBRANCH   5  10
BRANCH   1  29
ATOM     29  C   UNL     1       7.098  -0.761   4.325  0.00  0.00    +0.000 C 
BRANCH  29  32
ATOM     30  C   UNL     1       5.124  -0.511   2.810  0.00  0.00    +0.000 C 
ATOM     31  O   UNL     1       4.326  -0.671   3.732  0.00  0.00    +0.000 OA
ATOM     32  N   UNL     1       6.492  -0.541   3.003  0.00  0.00    +0.000 N 
ATOM     33  H   UNL     1       7.098  -0.369   2.214  0.00  0.00    +0.000 HD
BRANCH  30  34
ATOM     34  C   UNL     1       4.649  -0.268   1.355  0.00  0.00    +0.000 C 
BRANCH  34  38
ATOM     35  C   UNL     1       1.030  -0.062   0.112  0.00  0.00    +0.000 C 
ATOM     36  C   UNL     1       2.542  -0.052   0.055  0.00  0.00    +0.000 C 
ATOM     37  O   UNL     1       3.145   0.124  -1.000  0.00  0.00    +0.000 OA
ATOM     38  N   UNL     1       3.188  -0.252   1.253  0.00  0.00    +0.000 N 
ATOM     39  H   UNL     1       2.665  -0.396   2.111  0.00  0.00    +0.000 HD
ENDBRANCH  34  38
ENDBRANCH  30  34
ENDBRANCH  29  32
ENDBRANCH   1  29
TORSDOF 6
