REMARK  Name = CHEMBL447916
REMARK  6 active torsions:
REMARK  status: ('A' for Active; 'I' for Inactive)
REMARK    1  A    between atoms: C_2  and  C_3
REMARK    2  A    between atoms: C_6  and  C_7
REMARK    3  A    between atoms: N_15  and  C_16
REMARK    4  A    between atoms: N_15  and  C_20
REMARK    5  A    between atoms: C_16  and  C_17
REMARK    6  A    between atoms: C_20  and  C_21
REMARK                            x       y       z     vdW  Elec       q    Type
REMARK                         _______ _______ _______ _____ _____    ______ ____
ROOT
ATOM      1  O   UNL     1       1.158   0.140   0.261  0.00  0.00    +0.000 OA
ATOM      2  C   UNL     1       2.371   0.051   0.021  0.00  0.00    +0.000 C 
ATOM      3  N   UNL     1       2.947  -0.170  -1.235  0.00  0.00    +0.000 N 
ENDROOT
BRANCH   2   4
ATOM      4  C   UNL     1       3.171   0.182   1.233  0.00  0.00    +0.000 A 
ATOM      5  C   UNL     1       2.762  -0.500   2.382  0.00  0.00    +0.000 A 
ATOM      6  C   UNL     1       3.450  -0.301   3.566  0.00  0.00    +0.000 A 
ATOM      7  C   UNL     1       4.528   0.578   3.563  0.00  0.00    +0.000 A 
ATOM      8  N   UNL     1       4.905   1.290   2.472  0.00  0.00    +0.000 NA
ATOM      9  C   UNL     1       4.196   1.100   1.344  0.00  0.00    +0.000 A 
BRANCH   7  10
ATOM     10  C   UNL     1       5.372   0.753   4.734  0.00  0.00    +0.000 A 
ATOM     11  C   UNL     1       5.616   2.029   5.260  0.00  0.00    +0.000 A 
ATOM     12  C   UNL     1       6.523   2.196   6.303  0.00  0.00    +0.000 A 
ATOM     13  C   UNL     1       7.140   1.083   6.873  0.00  0.00    +0.000 A 
ATOM     14  C   UNL     1       6.880  -0.194   6.381  0.00  0.00    +0.000 A 
ATOM     15  C   UNL     1       6.007  -0.357   5.312  0.00  0.00    +0.000 A 
ENDBRANCH   7  10
ENDBRANCH   2   4
BRANCH   3  16
ATOM     16  C   UNL     1       2.101  -0.567  -2.373  0.00  0.00    +0.000 C 
BRANCH  16  17
ATOM     17  C   UNL     1       0.616  -0.514  -2.313  0.00  0.00    +0.000 C 
ATOM     18  C   UNL     1      -0.147   0.276  -3.352  0.00  0.00    +0.000 C 
ATOM     19  C   UNL     1      -0.194  -1.227  -3.358  0.00  0.00    +0.000 C 
ENDBRANCH  16  17
ENDBRANCH   3  16
BRANCH   3  20
ATOM     20  C   UNL     1       4.435  -0.261  -1.403  0.00  0.00    +0.000 C 
BRANCH  20  21
ATOM     21  C   UNL     1       5.063  -0.494  -2.790  0.00  0.00    +0.000 C 
ATOM     22  C   UNL     1       4.564   0.419  -3.893  0.00  0.00    +0.000 C 
ATOM     23  C   UNL     1       4.315  -0.522  -5.047  0.00  0.00    +0.000 C 
ATOM     24  C   UNL     1       4.299  -1.922  -4.468  0.00  0.00    +0.000 C 
ATOM     25  O   UNL     1       4.894  -1.863  -3.176  0.00  0.00    +0.000 OA
ENDBRANCH  20  21
ENDBRANCH   3  20
TORSDOF 6
