REMARK  Name = CHEMBL2112378
REMARK  17 active torsions:
REMARK  status: ('A' for Active; 'I' for Inactive)
REMARK    1  A    between atoms: C_1  and  C_2
REMARK    2  A    between atoms: C_2  and  C_3
REMARK    3  A    between atoms: C_3  and  C_4
REMARK    4  A    between atoms: C_3  and  C_5
REMARK    5  A    between atoms: C_9  and  C_10
REMARK    6  A    between atoms: C_10  and  C_11
REMARK    7  A    between atoms: C_10  and  C_12
REMARK    8  A    between atoms: C_12  and  C_13
REMARK    9  A    between atoms: C_17  and  C_18
REMARK   10  A    between atoms: C_18  and  C_19
REMARK   11  A    between atoms: C_36  and  C_37
REMARK   12  A    between atoms: C_37  and  C_38
REMARK   13  A    between atoms: C_38  and  C_39
REMARK   14  A    between atoms: C_39  and  C_40
REMARK   15  A    between atoms: C_40  and  N_41
REMARK   16  A    between atoms: C_45  and  C_46
REMARK   17  A    between atoms: C_46  and  C_47
REMARK                            x       y       z     vdW  Elec       q    Type
REMARK                         _______ _______ _______ _____ _____    ______ ____
ROOT
ATOM      1  C   UNL     1       5.078   1.401  -0.583  0.00  0.00    +0.000 C 
ATOM      2  N   UNL     1       5.500   0.602  -1.839  0.00  0.00    +0.000 N 
ATOM      3  C   UNL     1       4.949   0.172  -3.168  0.00  0.00    +0.000 C 
ATOM      4  O   UNL     1       4.215   0.961  -3.797  0.00  0.00    +0.000 OA
ATOM      5  C   UNL     1       4.699  -1.367  -3.092  0.00  0.00    +0.000 C 
ATOM      6  N   UNL     1       3.328  -1.466  -3.149  0.00  0.00    +0.000 N 
ATOM      7  C   UNL     1       2.627  -1.075  -4.234  0.00  0.00    +0.000 C 
ATOM      8  O   UNL     1       1.402  -1.226  -4.132  0.00  0.00    +0.000 OA
ATOM      9  C   UNL     1       3.396  -0.370  -5.563  0.00  0.00    +0.000 C 
ATOM     10  N   UNL     1       2.666  -1.175  -6.541  0.00  0.00    +0.000 N 
ATOM     11  C   UNL     1       1.303  -1.167  -6.810  0.00  0.00    +0.000 C 
ATOM     12  O   UNL     1       0.875  -2.034  -7.582  0.00  0.00    +0.000 OA
ATOM     13  C   UNL     1       0.289  -0.141  -6.224  0.00  0.00    +0.000 C 
ATOM     14  C   UNL     1       0.815   1.038  -5.455  0.00  0.00    +0.000 C 
ATOM     15  C   UNL     1      -0.210   1.820  -4.657  0.00  0.00    +0.000 C 
ATOM     16  S   UNL     1       0.523   3.368  -4.122  0.00  0.00    +0.000 S 
ATOM     17  C   UNL     1      -0.263   3.981  -2.617  0.00  0.00    +0.000 C 
ATOM     18  C   UNL     1       0.608   4.857  -1.640  0.00  0.00    +0.000 C 
ATOM     19  N   UNL     1       1.210   4.090  -0.596  0.00  0.00    +0.000 N 
ATOM     20  C   UNL     1       2.087   3.144  -0.821  0.00  0.00    +0.000 C 
ATOM     21  O   UNL     1       2.514   2.525   0.123  0.00  0.00    +0.000 OA
ATOM     22  C   UNL     1       2.547   2.875  -2.160  0.00  0.00    +0.000 C 
ATOM     23  N   UNL     1       3.921   3.174  -2.226  0.00  0.00    +0.000 N 
ATOM     24  C   UNL     1       4.859   3.023  -1.241  0.00  0.00    +0.000 C 
ATOM     25  O   UNL     1       5.646   3.978  -1.247  0.00  0.00    +0.000 OA
ATOM     26  H   UNL     1       6.482   0.728  -1.874  0.00  0.00    +0.000 HD
ATOM     27  H   UNL     1       2.919  -1.514  -2.204  0.00  0.00    +0.000 HD
ATOM     28  H   UNL     1       3.179  -1.961  -6.905  0.00  0.00    +0.000 HD
ATOM     29  H   UNL     1       1.037   4.185   0.396  0.00  0.00    +0.000 HD
ATOM     30  H   UNL     1       4.078   3.820  -2.987  0.00  0.00    +0.000 HD
ENDROOT
BRANCH   1  31
ATOM     31  C   UNL     1       4.613   0.345   0.603  0.00  0.00    +0.000 C 
ATOM     32  C   UNL     1       5.813  -0.265   1.195  0.00  0.00    +0.000 C 
BRANCH  31  34
ATOM     33  C   UNL     1       4.680   2.448   1.843  0.00  0.00    +0.000 C 
ATOM     34  C   UNL     1       3.921   1.137   1.688  0.00  0.00    +0.000 C 
ENDBRANCH  31  34
ENDBRANCH   1  31
BRANCH   5  35
ATOM     35  C   UNL     1       5.141  -2.491  -3.963  0.00  0.00    +0.000 C 
ATOM     36  C   UNL     1       4.444  -3.675  -3.369  0.00  0.00    +0.000 C 
BRANCH  35  37
ATOM     37  C   UNL     1       6.678  -2.620  -4.115  0.00  0.00    +0.000 C 
ATOM     38  C   UNL     1       7.395  -3.173  -2.817  0.00  0.00    +0.000 C 
ENDBRANCH  35  37
ENDBRANCH   5  35
BRANCH   9  39
ATOM     39  C   UNL     1       5.047  -0.204  -5.780  0.00  0.00    +0.000 C 
BRANCH  39  40
ATOM     40  C   UNL     1       6.162   0.985  -5.044  0.00  0.00    +0.000 A 
ATOM     41  C   UNL     1       5.768   2.343  -4.953  0.00  0.00    +0.000 A 
ATOM     42  N   UNL     1       6.231   2.980  -3.740  0.00  0.00    +0.000 N 
ATOM     43  C   UNL     1       7.135   2.136  -2.912  0.00  0.00    +0.000 A 
ATOM     44  C   UNL     1       7.531   2.105  -1.263  0.00  0.00    +0.000 A 
ATOM     45  C   UNL     1       7.918   0.744  -0.535  0.00  0.00    +0.000 A 
ATOM     46  C   UNL     1       7.832  -0.546  -1.144  0.00  0.00    +0.000 A 
ATOM     47  C   UNL     1       7.460  -0.535  -2.612  0.00  0.00    +0.000 A 
ATOM     48  C   UNL     1       7.200   0.777  -3.685  0.00  0.00    +0.000 A 
ATOM     49  H   UNL     1       5.692   3.741  -3.292  0.00  0.00    +0.000 HD
ENDBRANCH  39  40
ENDBRANCH   9  39
BRANCH  18  50
ATOM     50  C   UNL     1      -0.275   5.882  -0.974  0.00  0.00    +0.000 C 
BRANCH  50  51
ATOM     51  C   UNL     1      -0.896   6.761  -2.037  0.00  0.00    +0.000 C 
BRANCH  51  52
ATOM     52  C   UNL     1      -1.845   7.748  -1.417  0.00  0.00    +0.000 C 
BRANCH  52  53
ATOM     53  C   UNL     1      -2.474   8.598  -2.506  0.00  0.00    +0.000 C 
BRANCH  53  54
ATOM     54  N   UNL     1      -3.373   9.558  -1.895  0.00  0.00    +0.000 NA
ATOM     55  H   UNL     1      -4.121   9.067  -1.407  0.00  0.00    +0.000 HD
ATOM     56  H   UNL     1      -3.815  10.117  -2.621  0.00  0.00    +0.000 HD
ENDBRANCH  53  54
ENDBRANCH  52  53
ENDBRANCH  51  52
ENDBRANCH  50  51
ENDBRANCH  18  50
BRANCH  22  57
ATOM     57  C   UNL     1       1.866   1.593  -2.586  0.00  0.00    +0.000 C 
BRANCH  57  58
ATOM     58  C   UNL     1       2.110   0.337  -1.955  0.00  0.00    +0.000 C 
ATOM     59  N   UNL     1       3.423   0.518  -1.808  0.00  0.00    +0.000 N 
ATOM     60  O   UNL     1       1.583  -0.665  -1.704  0.00  0.00    +0.000 OA
ATOM     61  H   UNL     1       3.851   1.337  -2.326  0.00  0.00    +0.000 HD
ATOM     62  H   UNL     1       4.136  -0.095  -1.529  0.00  0.00    +0.000 HD
ENDBRANCH  57  58
ENDBRANCH  22  57
TORSDOF 13
