REMARK  Name = CHEMBL1790721
REMARK  24 active torsions:
REMARK  status: ('A' for Active; 'I' for Inactive)
REMARK    1  A    between atoms: C_1  and  C_2
REMARK    2  A    between atoms: C_2  and  C_3
REMARK    3  A    between atoms: C_3  and  C_4
REMARK    4  A    between atoms: C_3  and  C_5
REMARK    5  A    between atoms: C_9  and  C_10
REMARK    6  A    between atoms: C_13  and  O_14
REMARK    7  A    between atoms: C_25  and  C_26
REMARK    8  A    between atoms: C_32  and  C_33
REMARK    9  A    between atoms: N_35  and  C_36
REMARK   10  A    between atoms: C_36  and  C_37
REMARK   11  A    between atoms: C_36  and  C_68
REMARK   12  A    between atoms: C_37  and  C_38
REMARK   13  A    between atoms: C_38  and  C_39
REMARK   14  A    between atoms: C_39  and  N_40
REMARK   15  A    between atoms: C_41  and  C_43
REMARK   16  A    between atoms: C_56  and  O_57
REMARK   17  A    between atoms: C_63  and  O_64
REMARK   18  A    between atoms: N_70  and  C_71
REMARK   19  A    between atoms: C_71  and  N_72
REMARK   20  A    between atoms: C_76  and  C_77
REMARK   21  A    between atoms: C_77  and  C_78
REMARK   22  A    between atoms: C_84  and  C_85
REMARK   23  A    between atoms: C_85  and  C_86
REMARK   24  A    between atoms: C_86  and  C_87
REMARK                            x       y       z     vdW  Elec       q    Type
REMARK                         _______ _______ _______ _____ _____    ______ ____
ROOT
ATOM      1  C   UNL     1       4.774  -2.592  -0.924  0.00  0.00    +0.000 C 
ATOM      2  N   UNL     1       4.664  -4.526  -1.288  0.00  0.00    +0.000 N 
ATOM      3  C   UNL     1       4.440  -5.891  -2.093  0.00  0.00    +0.000 C 
ATOM      4  O   UNL     1       4.152  -6.917  -1.399  0.00  0.00    +0.000 OA
ATOM      5  C   UNL     1       4.853  -6.242  -3.722  0.00  0.00    +0.000 C 
ATOM      6  N   UNL     1       5.502  -7.624  -4.121  0.00  0.00    +0.000 N 
ATOM      7  C   UNL     1       4.997  -8.876  -4.490  0.00  0.00    +0.000 C 
ATOM      8  O   UNL     1       5.735  -9.714  -5.027  0.00  0.00    +0.000 OA
ATOM      9  C   UNL     1       3.551  -9.279  -4.320  0.00  0.00    +0.000 C 
ATOM     10  C   UNL     1       2.706  -8.196  -3.842  0.00  0.00    +0.000 C 
ATOM     11  S   UNL     1       1.225  -8.803  -3.278  0.00  0.00    +0.000 S 
ATOM     12  S   UNL     1       0.931  -6.931  -1.842  0.00  0.00    +0.000 S 
ATOM     13  C   UNL     1      -1.510  -6.399  -1.699  0.00  0.00    +0.000 C 
ATOM     14  C   UNL     1      -2.290  -5.164  -1.602  0.00  0.00    +0.000 C 
ATOM     15  N   UNL     1      -1.653  -4.557  -0.561  0.00  0.00    +0.000 N 
ATOM     16  C   UNL     1      -0.488  -3.912  -0.827  0.00  0.00    +0.000 C 
ATOM     17  O   UNL     1      -0.186  -3.039  -0.002  0.00  0.00    +0.000 OA
ATOM     18  C   UNL     1       0.578  -4.498  -1.922  0.00  0.00    +0.000 C 
ATOM     19  N   UNL     1       1.424  -3.409  -2.134  0.00  0.00    +0.000 N 
ATOM     20  C   UNL     1       2.230  -2.910  -1.161  0.00  0.00    +0.000 C 
ATOM     21  O   UNL     1       2.564  -1.764  -1.506  0.00  0.00    +0.000 OA
ATOM     22  C   UNL     1       2.745  -3.720   0.389  0.00  0.00    +0.000 C 
ATOM     23  N   UNL     1       4.189  -3.851   0.920  0.00  0.00    +0.000 N 
ATOM     24  C   UNL     1       5.274  -3.258   0.299  0.00  0.00    +0.000 C 
ATOM     25  O   UNL     1       6.445  -3.582   0.460  0.00  0.00    +0.000 OA
ATOM     26  H   UNL     1       4.853  -5.246  -0.541  0.00  0.00    +0.000 HD
ATOM     27  H   UNL     1       6.451  -7.528  -4.476  0.00  0.00    +0.000 HD
ATOM     28  H   UNL     1      -1.919  -4.871   0.375  0.00  0.00    +0.000 HD
ATOM     29  H   UNL     1       1.246  -2.822  -2.927  0.00  0.00    +0.000 HD
ATOM     30  H   UNL     1       4.459  -4.793   0.763  0.00  0.00    +0.000 HD
ENDROOT
BRANCH  14  31
ATOM     31  C   UNL     1      -2.458  -4.169  -2.757  0.00  0.00    +0.000 C 
ATOM     32  O   UNL     1      -2.348  -4.423  -3.962  0.00  0.00    +0.000 OA
ATOM     33  N   UNL     1      -2.740  -2.908  -2.338  0.00  0.00    +0.000 N 
ATOM     34  C   UNL     1      -2.557  -2.186  -1.079  0.00  0.00    +0.000 C 
ATOM     35  C   UNL     1      -3.875  -1.529  -0.944  0.00  0.00    +0.000 C 
ATOM     36  C   UNL     1      -4.122  -1.073  -2.369  0.00  0.00    +0.000 C 
ATOM     37  C   UNL     1      -3.478  -2.129  -3.249  0.00  0.00    +0.000 C 
BRANCH  37  38
ATOM     38  C   UNL     1      -4.590  -2.862  -3.991  0.00  0.00    +0.000 C 
ATOM     39  O   UNL     1      -4.956  -2.276  -5.014  0.00  0.00    +0.000 OA
ATOM     40  N   UNL     1      -5.200  -4.020  -3.504  0.00  0.00    +0.000 N 
ATOM     41  H   UNL     1      -5.020  -4.382  -2.572  0.00  0.00    +0.000 HD
BRANCH  40  42
ATOM     42  C   UNL     1      -6.190  -4.808  -4.309  0.00  0.00    +0.000 C 
BRANCH  42  43
ATOM     43  C   UNL     1      -6.861  -5.963  -3.461  0.00  0.00    +0.000 C 
ATOM     44  O   UNL     1      -6.499  -6.158  -2.296  0.00  0.00    +0.000 OA
ATOM     45  N   UNL     1      -7.870  -6.729  -4.050  0.00  0.00    +0.000 N 
ATOM     46  H   UNL     1      -8.142  -6.608  -5.016  0.00  0.00    +0.000 HD
BRANCH  45  47
ATOM     47  C   UNL     1      -8.490  -7.813  -3.329  0.00  0.00    +0.000 C 
BRANCH  47  48
ATOM     48  N   UNL     1      -9.458  -8.460  -4.190  0.00  0.00    +0.000 NA
ATOM     49  H   UNL     1     -10.225  -7.830  -4.409  0.00  0.00    +0.000 HD
ATOM     50  H   UNL     1      -9.901  -9.217  -3.657  0.00  0.00    +0.000 HD
ENDBRANCH  47  48
ENDBRANCH  45  47
ENDBRANCH  42  43
BRANCH  42  51
ATOM     51  C   UNL     1      -5.530  -5.417  -5.569  0.00  0.00    +0.000 C 
BRANCH  51  52
ATOM     52  C   UNL     1      -4.865  -4.362  -6.466  0.00  0.00    +0.000 C 
BRANCH  52  53
ATOM     53  C   UNL     1      -4.166  -4.830  -7.730  0.00  0.00    +0.000 C 
BRANCH  53  54
ATOM     54  N   UNL     1      -3.455  -3.656  -8.521  0.00  0.00    +0.000 N 
ATOM     55  C   UNL     1      -2.673  -3.881  -9.744  0.00  0.00    +0.000 C 
ATOM     56  O   UNL     1      -2.799  -5.083 -10.083  0.00  0.00    +0.000 OA
ATOM     57  H   UNL     1      -3.596  -2.761  -8.082  0.00  0.00    +0.000 HD
BRANCH  55  58
ATOM     58  C   UNL     1      -1.543  -2.931 -10.826  0.00  0.00    +0.000 A 
ATOM     59  C   UNL     1      -1.813  -3.381 -12.037  0.00  0.00    +0.000 A 
ATOM     60  C   UNL     1      -1.593  -2.496 -13.134  0.00  0.00    +0.000 A 
ATOM     61  C   UNL     1      -0.322  -2.713 -13.444  0.00  0.00    +0.000 A 
ATOM     62  C   UNL     1       0.446  -1.680 -13.113  0.00  0.00    +0.000 A 
ATOM     63  C   UNL     1      -0.488  -1.844 -11.375  0.00  0.00    +0.000 A 
ATOM     64  C   UNL     1       1.052  -1.961 -14.882  0.00  0.00    +0.000 C 
ATOM     65  O   UNL     1       0.076  -2.842 -15.523  0.00  0.00    +0.000 OA
ATOM     66  C   UNL     1      -0.149  -3.664 -14.492  0.00  0.00    +0.000 C 
ATOM     67  O   UNL     1      -0.517  -4.819 -14.352  0.00  0.00    +0.000 OA
ATOM     68  C   UNL     1       1.497  -0.500 -15.842  0.00  0.00    +0.000 A 
ATOM     69  C   UNL     1       0.704   0.393 -16.622  0.00  0.00    +0.000 A 
ATOM     70  C   UNL     1       1.260   1.579 -17.296  0.00  0.00    +0.000 A 
ATOM     71  C   UNL     1       2.629   1.845 -17.303  0.00  0.00    +0.000 A 
ATOM     72  C   UNL     1       3.461   0.903 -16.731  0.00  0.00    +0.000 A 
ATOM     73  C   UNL     1       2.906  -0.230 -16.034  0.00  0.00    +0.000 A 
ATOM     74  O   UNL     1       3.876  -1.069 -15.508  0.00  0.00    +0.000 OA
ATOM     75  C   UNL     1       3.645  -2.405 -15.663  0.00  0.00    +0.000 A 
ATOM     76  C   UNL     1       4.760  -3.288 -15.552  0.00  0.00    +0.000 A 
ATOM     77  C   UNL     1       4.819  -4.586 -16.059  0.00  0.00    +0.000 A 
ATOM     78  C   UNL     1       3.874  -4.896 -16.999  0.00  0.00    +0.000 A 
ATOM     79  C   UNL     1       2.669  -4.026 -17.025  0.00  0.00    +0.000 A 
ATOM     80  C   UNL     1       2.414  -2.927 -15.900  0.00  0.00    +0.000 A 
BRANCH  71  81
ATOM     81  O   UNL     1       3.213   2.976 -17.809  0.00  0.00    +0.000 OA
ATOM     82  H   UNL     1       2.562   3.616 -18.143  0.00  0.00    +0.000 HD
ENDBRANCH  71  81
BRANCH  77  83
ATOM     83  O   UNL     1       5.734  -5.513 -15.644  0.00  0.00    +0.000 OA
ATOM     84  H   UNL     1       6.223  -5.208 -14.856  0.00  0.00    +0.000 HD
ENDBRANCH  77  83
ENDBRANCH  55  58
ENDBRANCH  53  54
ENDBRANCH  52  53
ENDBRANCH  51  52
ENDBRANCH  42  51
ENDBRANCH  40  42
ENDBRANCH  37  38
ENDBRANCH  14  31
BRANCH   5  85
ATOM     85  C   UNL     1       3.838  -5.891  -4.833  0.00  0.00    +0.000 A 
ATOM     86  C   UNL     1       2.848  -4.979  -4.535  0.00  0.00    +0.000 A 
ATOM     87  C   UNL     1       1.801  -4.722  -5.440  0.00  0.00    +0.000 A 
ATOM     88  C   UNL     1       1.607  -5.506  -6.564  0.00  0.00    +0.000 A 
ATOM     89  C   UNL     1       2.521  -6.485  -6.866  0.00  0.00    +0.000 A 
ATOM     90  C   UNL     1       3.664  -6.626  -6.060  0.00  0.00    +0.000 A 
BRANCH  88  91
ATOM     91  O   UNL     1       0.566  -5.333  -7.417  0.00  0.00    +0.000 OA
ATOM     92  H   UNL     1      -0.018  -4.614  -7.126  0.00  0.00    +0.000 HD
ENDBRANCH  88  91
ENDBRANCH   5  85
BRANCH   1  93
ATOM     93  C   UNL     1       5.205  -0.819  -0.161  0.00  0.00    +0.000 C 
ATOM     94  C   UNL     1       6.576  -0.959   0.387  0.00  0.00    +0.000 C 
BRANCH  93  96
ATOM     95  C   UNL     1       5.412  -0.101  -2.422  0.00  0.00    +0.000 C 
ATOM     96  C   UNL     1       5.274   0.534  -1.101  0.00  0.00    +0.000 C 
ENDBRANCH  93  96
ENDBRANCH   1  93
BRANCH  18  97
ATOM     97  C   UNL     1      -0.111  -5.297  -3.163  0.00  0.00    +0.000 C 
BRANCH  97  98
ATOM     98  C   UNL     1      -0.758  -7.168  -3.409  0.00  0.00    +0.000 C 
ATOM     99  N   UNL     1      -0.766  -8.182  -1.904  0.00  0.00    +0.000 N 
ATOM    100  O   UNL     1      -1.426  -7.554  -4.356  0.00  0.00    +0.000 OA
ATOM    101  H   UNL     1      -0.157  -7.625  -1.143  0.00  0.00    +0.000 HD
ATOM    102  H   UNL     1      -0.959  -8.957  -1.288  0.00  0.00    +0.000 HD
ENDBRANCH  97  98
ENDBRANCH  18  97
BRANCH  22 103
ATOM    103  C   UNL     1       2.266  -5.165   0.662  0.00  0.00    +0.000 C 
BRANCH 103 104
ATOM    104  C   UNL     1       0.837  -5.192   1.049  0.00  0.00    +0.000 C 
BRANCH 104 105
ATOM    105  C   UNL     1      -0.056  -6.386   0.970  0.00  0.00    +0.000 C 
ATOM    106  N   UNL     1       0.604  -7.537   0.781  0.00  0.00    +0.000 N 
ATOM    107  O   UNL     1      -1.282  -6.386   0.958  0.00  0.00    +0.000 OA
ATOM    108  H   UNL     1       1.550  -7.498   0.406  0.00  0.00    +0.000 HD
ATOM    109  H   UNL     1       0.026  -8.325   0.539  0.00  0.00    +0.000 HD
ENDBRANCH 104 105
ENDBRANCH 103 104
ENDBRANCH  22 103
TORSDOF 22
