REMARK  Name = CHEMBL1765670
REMARK  31 active torsions:
REMARK  status: ('A' for Active; 'I' for Inactive)
REMARK    1  A    between atoms: CD1_1  and  CG_2
REMARK    2  A    between atoms: CG_2  and  CD2_3
REMARK    3  A    between atoms: CG_2  and  CB_4
REMARK    4  A    between atoms: CB_4  and  CA_5
REMARK    5  A    between atoms: CA_9  and  CB_10
REMARK    6  A    between atoms: CB_10  and  CG_11
REMARK    7  A    between atoms: CA_20  and  CB_21
REMARK    8  A    between atoms: CB_21  and  CG_22
REMARK    9  A    between atoms: CZ_25  and  OH_26
REMARK   10  A    between atoms: C_32  and  O_33
REMARK   11  A    between atoms: C_38  and  C_39
REMARK   12  A    between atoms: CA_45  and  C_46
REMARK   13  A    between atoms: N_48  and  C_49
REMARK   14  A    between atoms: C_49  and  C_50
REMARK   15  A    between atoms: C_49  and  C_90
REMARK   16  A    between atoms: C_50  and  C_51
REMARK   17  A    between atoms: C_51  and  C_52
REMARK   18  A    between atoms: C_52  and  C_53
REMARK   19  A    between atoms: C_53  and  N_54
REMARK   20  A    between atoms: C_55  and  C_57
REMARK   21  A    between atoms: C_60  and  C_61
REMARK   22  A    between atoms: C_67  and  S_68
REMARK   23  A    between atoms: C_75  and  S_76
REMARK   24  A    between atoms: C_80  and  N_81
REMARK   25  A    between atoms: C_85  and  C_86
REMARK   26  A    between atoms: C_86  and  O_88
REMARK   27  A    between atoms: N_92  and  CA_93
REMARK   28  A    between atoms: CA_93  and  C_94
REMARK   29  A    between atoms: C_94  and  OXT_96
REMARK   30  A    between atoms: CA_100  and  CB_101
REMARK   31  A    between atoms: CB_101  and  CG_102
REMARK                            x       y       z     vdW  Elec       q    Type
REMARK                         _______ _______ _______ _____ _____    ______ ____
ROOT
ATOM      1  C   UNK A   3      -0.255   1.674   5.765  0.00  0.00    +0.000 C 
ATOM      2  O   UNK A   3      -0.356   0.448   5.869  0.00  0.00    +0.000 OA
ATOM      3  N   PRO A   4      -0.924   2.606   6.591  0.00  0.00    +0.000 N 
ATOM      4  CD  PRO A   4      -1.641   3.813   6.190  0.00  0.00    +0.000 C 
ATOM      5  CG  PRO A   4      -1.280   4.799   7.261  0.00  0.00    +0.000 C 
ATOM      6  CB  PRO A   4      -1.415   3.962   8.530  0.00  0.00    +0.000 C 
ATOM      7  CA  PRO A   4      -1.010   2.539   8.108  0.00  0.00    +0.000 C 
ENDROOT
BRANCH   1  25
ATOM      8  CA  TYR A   1       4.394   4.813  -0.943  0.00  0.00    +0.000 C 
ATOM      9  N   TYR A   1       3.817   6.917  -2.127  0.00  0.00    +0.000 N 
ATOM     10  C   TYR A   1       3.323   9.221  -2.882  0.00  0.00    +0.000 C 
ATOM     11  O   TYR A   1       2.906  10.675  -2.435  0.00  0.00    +0.000 OA
ATOM     12  CA  TYR A   1       1.486  10.567  -3.672  0.00  0.00    +0.000 C 
ATOM     13  N   TYR A   1       0.259   9.579  -4.145  0.00  0.00    +0.000 N 
ATOM     14  C   TYR A   1       0.362   8.715  -3.095  0.00  0.00    +0.000 C 
ATOM     15  O   TYR A   1       0.130   7.560  -3.375  0.00  0.00    +0.000 OA
ATOM     16  CA  TYR A   1       0.993   9.264  -1.689  0.00  0.00    +0.000 C 
ATOM     17  N   TYR A   1       0.065   8.986  -0.696  0.00  0.00    +0.000 N 
ATOM     18  C   UNK A   0      -0.262   7.689  -0.342  0.00  0.00    +0.000 C 
ATOM     19  O   UNK A   0      -1.063   7.475   0.564  0.00  0.00    +0.000 OA
ATOM     20  C   UNK A   0       0.367   6.476  -1.066  0.00  0.00    +0.000 C 
ATOM     21  C   UNK A   0       1.137   5.610  -0.123  0.00  0.00    +0.000 C 
ATOM     22  S   UNK A   3      -0.103   4.997   1.070  0.00  0.00    +0.000 S 
ATOM     23  S   UNK A   3       0.668   4.059   2.528  0.00  0.00    +0.000 S 
ATOM     24  C   UNK A   3      -0.089   3.078   3.707  0.00  0.00    +0.000 C 
ATOM     25  C   UNK A   3       0.715   2.222   4.663  0.00  0.00    +0.000 C 
ATOM     26  N   UNK A   3       1.362   1.125   3.895  0.00  0.00    +0.000 N 
ATOM     27  C   ASN A   2       2.302   1.309   2.918  0.00  0.00    +0.000 C 
ATOM     28  O   ASN A   2       2.726   0.314   2.316  0.00  0.00    +0.000 OA
ATOM     29  CA  ASN A   2       2.782   2.759   2.500  0.00  0.00    +0.000 C 
ATOM     30  N   ASN A   2       4.172   3.137   2.432  0.00  0.00    +0.000 N 
ATOM     31  C   TYR A   1       4.945   3.621   0.897  0.00  0.00    +0.000 C 
ATOM     32  O   TYR A   1       5.977   2.743   1.623  0.00  0.00    +0.000 OA
ATOM     33  H   TYR A   1       3.875   8.006  -3.150  0.00  0.00    +0.000 HD
ATOM     34  H   TYR A   1      -0.021   9.225  -5.087  0.00  0.00    +0.000 HD
ATOM     35  H   TYR A   1      -0.297   9.783  -0.197  0.00  0.00    +0.000 HD
ATOM     36  H   UNK A   3       1.108   0.168   4.178  0.00  0.00    +0.000 HD
ATOM     37  H   ASN A   2       4.463   3.660   3.293  0.00  0.00    +0.000 HD
BRANCH  20  38
ATOM     38  O   UNK A   0       1.252   6.588  -2.076  0.00  0.00    +0.000 OA
ATOM     39  H   UNK A   0       1.723   7.360  -2.052  0.00  0.00    +0.000 HD
ENDBRANCH  20  38
BRANCH  29  40
ATOM     40  CB  ASN A   2       2.289   3.072   1.038  0.00  0.00    +0.000 C 
BRANCH  40  41
ATOM     41  CG  ASN A   2       2.790   2.187   0.112  0.00  0.00    +0.000 C 
ATOM     42  ND2 ASN A   2       3.508   1.345   0.781  0.00  0.00    +0.000 N 
ATOM     43  OD1 ASN A   2       2.781   2.121  -1.103  0.00  0.00    +0.000 OA
ATOM     44 HD21 ASN A   2       4.073   1.199   1.761  0.00  0.00    +0.000 HD
ATOM     45 HD22 ASN A   2       3.905   0.800  -0.031  0.00  0.00    +0.000 HD
ENDBRANCH  40  41
ENDBRANCH  29  40
BRANCH  16  46
ATOM     46  CB  TYR A   1       2.136   8.715  -0.948  0.00  0.00    +0.000 C 
BRANCH  46  47
ATOM     47  CG  TYR A   1       2.917   8.245  -1.871  0.00  0.00    +0.000 A 
ATOM     48  CD1 TYR A   1       2.486   8.400  -3.934  0.00  0.00    +0.000 A 
ATOM     49  CE1 TYR A   1       3.795   9.398  -4.890  0.00  0.00    +0.000 A 
ATOM     50  CZ  TYR A   1       5.208   9.251  -4.681  0.00  0.00    +0.000 A 
ATOM     51  CE2 TYR A   1       5.624   8.601  -3.487  0.00  0.00    +0.000 A 
ATOM     52  CD2 TYR A   1       4.875   8.588  -2.097  0.00  0.00    +0.000 A 
BRANCH  50  53
ATOM     53  OH  TYR A   1       6.150   9.504  -5.635  0.00  0.00    +0.000 OA
ATOM     54  HH  TYR A   1       5.857  10.002  -6.421  0.00  0.00    +0.000 HD
ENDBRANCH  50  53
ENDBRANCH  46  47
ENDBRANCH  16  46
BRANCH  12  55
ATOM     55  CB  TYR A   1      -0.142  11.611  -3.018  0.00  0.00    +0.000 C 
BRANCH  55  56
ATOM     56  CG  TYR A   1       0.018  13.095  -2.941  0.00  0.00    +0.000 A 
ATOM     57  CD1 TYR A   1       0.912  13.722  -3.762  0.00  0.00    +0.000 A 
ATOM     58  CE1 TYR A   1       1.313  15.001  -3.454  0.00  0.00    +0.000 A 
ATOM     59  CZ  TYR A   1       0.629  15.781  -2.569  0.00  0.00    +0.000 A 
ATOM     60  CE2 TYR A   1      -0.313  15.176  -1.796  0.00  0.00    +0.000 A 
ATOM     61  CD2 TYR A   1      -0.640  13.854  -1.995  0.00  0.00    +0.000 A 
ENDBRANCH  55  56
ENDBRANCH  12  55
BRANCH   8  62
ATOM     62  CB  TYR A   1       5.010   2.481  -0.231  0.00  0.00    +0.000 C 
BRANCH  62  64
ATOM     63  CD1 TYR A   1       5.917   1.347  -1.369  0.00  0.00    +0.000 C 
ATOM     64  CG  TYR A   1       5.552   0.341  -0.610  0.00  0.00    +0.000 C 
ATOM     65  CD2 TYR A   1       7.084  -0.738  -0.723  0.00  0.00    +0.000 C 
ENDBRANCH  62  64
ENDBRANCH   8  62
ENDBRANCH   1  25
BRANCH   7  66
ATOM     66  C   PRO A   4      -2.078   1.569   8.577  0.00  0.00    +0.000 C 
ATOM     67  O   PRO A   4      -2.773   1.088   7.675  0.00  0.00    +0.000 OA
ATOM     68  N   UNK A   5      -2.271   1.328   9.947  0.00  0.00    +0.000 N 
ATOM     69  H   UNK A   5      -1.759   1.832  10.672  0.00  0.00    +0.000 HD
BRANCH  68  70
ATOM     70  C   UNK A   5      -3.266   0.327  10.444  0.00  0.00    +0.000 C 
BRANCH  70  71
ATOM     71  C   UNK A   5      -3.318   0.299  12.001  0.00  0.00    +0.000 C 
ATOM     72  O   UNK A   5      -2.569   1.050  12.634  0.00  0.00    +0.000 OA
ATOM     73  N   GLY A   6      -4.204  -0.572  12.640  0.00  0.00    +0.000 N 
ATOM     74  H   GLY A   6      -4.833  -1.202  12.129  0.00  0.00    +0.000 HD
BRANCH  73  75
ATOM     75  CA  GLY A   6      -4.291  -0.648  14.125  0.00  0.00    +0.000 C 
BRANCH  75  76
ATOM     76  C   GLY A   6      -5.333  -1.678  14.580  0.00  0.00    +0.000 C 
ATOM     77  O   GLY A   6      -5.969  -2.316  13.742  0.00  0.00    +0.000 OA
BRANCH  76  78
ATOM     78  OXT GLY A   6      -5.534  -1.866  15.914  0.00  0.00    +0.000 OA
ATOM     79  HXT GLY A   6      -5.035  -1.365  16.592  0.00  0.00    +0.000 HD
ENDBRANCH  76  78
ENDBRANCH  75  76
ENDBRANCH  73  75
ENDBRANCH  70  71
BRANCH  70  80
ATOM     80  C   UNK A   5      -2.897  -1.046   9.923  0.00  0.00    +0.000 C 
BRANCH  80  81
ATOM     81  C   UNK A   5      -2.860  -1.089   8.423  0.00  0.00    +0.000 C 
BRANCH  81  82
ATOM     82  C   UNK A   5      -2.471  -2.406   7.869  0.00  0.00    +0.000 C 
BRANCH  82  83
ATOM     83  C   UNK A   5      -2.421  -2.382   6.358  0.00  0.00    +0.000 C 
BRANCH  83  84
ATOM     84  N   UNK A   5      -2.059  -3.694   5.806  0.00  0.00    +0.000 N 
ATOM     85  C   UNK A   5      -1.954  -3.892   4.423  0.00  0.00    +0.000 C 
ATOM     86  O   UNK A   5      -2.151  -2.990   3.605  0.00  0.00    +0.000 OA
ATOM     87  H   UNK A   5      -1.880  -4.435   6.478  0.00  0.00    +0.000 HD
BRANCH  85  88
ATOM     88  C   UNK A   5      -1.541  -5.237   3.908  0.00  0.00    +0.000 A 
ATOM     89  C   UNK A   5      -0.590  -5.322   2.921  0.00  0.00    +0.000 A 
ATOM     90  C   UNK A   5      -0.380  -6.537   2.294  0.00  0.00    +0.000 A 
ATOM     91  C   UNK A   5      -0.849  -7.739   2.776  0.00  0.00    +0.000 A 
ATOM     92  C   UNK A   5      -1.833  -7.612   3.767  0.00  0.00    +0.000 A 
ATOM     93  C   UNK A   5      -2.103  -6.400   4.358  0.00  0.00    +0.000 A 
BRANCH  91  94
ATOM     94  C   UNK A   5      -0.265  -9.006   2.239  0.00  0.00    +0.000 A 
ATOM     95  C   UNK A   5      -0.697 -10.199   2.735  0.00  0.00    +0.000 A 
ATOM     96  C   UNK A   5      -1.166 -10.429   4.041  0.00  0.00    +0.000 A 
ATOM     97  C   UNK A   5      -1.731 -11.486   4.573  0.00  0.00    +0.000 A 
ATOM     98  C   UNK A   5      -1.383 -12.707   3.972  0.00  0.00    +0.000 A 
ATOM     99  N   UNK A   5      -1.753 -13.802   4.509  0.00  0.00    +0.000 NA
ATOM    100  C   UNK A   5      -0.538 -12.601   2.792  0.00  0.00    +0.000 A 
ATOM    101  C   UNK A   5      -0.305 -11.422   2.193  0.00  0.00    +0.000 A 
ATOM    102  O   UNK A   5       0.381 -11.323   1.039  0.00  0.00    +0.000 OA
ATOM    103  C   UNK A   5       0.590 -10.130   0.441  0.00  0.00    +0.000 A 
ATOM    104  C   UNK A   5       0.134  -9.801  -0.823  0.00  0.00    +0.000 A 
ATOM    105  C   UNK A   5       0.592  -8.599  -1.413  0.00  0.00    +0.000 A 
ATOM    106  C   UNK A   5       1.239  -7.643  -0.636  0.00  0.00    +0.000 A 
ATOM    107  C   UNK A   5       1.629  -7.984   0.641  0.00  0.00    +0.000 A 
ATOM    108  C   UNK A   5       1.108  -9.142   1.245  0.00  0.00    +0.000 A 
ATOM    109  H   UNK A   5      -2.344 -13.763   5.320  0.00  0.00    +0.000 HD
BRANCH 104 110
ATOM    110  S   UNK A   5      -1.128 -10.917  -1.690  0.00  0.00    +0.000 S 
ATOM    111  O   UNK A   5      -2.275 -10.019  -1.935  0.00  0.00    +0.000 OA
ATOM    112  O   UNK A   5      -0.446 -11.261  -2.946  0.00  0.00    +0.000 OA
ATOM    113  O   UNK A   5      -1.424 -12.038  -0.792  0.00  0.00    +0.000 OA
ENDBRANCH 104 110
BRANCH 100 114
ATOM    114  S   UNK A   5       0.224 -14.091   2.154  0.00  0.00    +0.000 S 
ATOM    115  O   UNK A   5       1.048 -14.613   3.269  0.00  0.00    +0.000 OA
ATOM    116  O   UNK A   5      -0.888 -15.001   1.843  0.00  0.00    +0.000 OA
ATOM    117  O   UNK A   5       1.047 -13.706   0.983  0.00  0.00    +0.000 OA
ENDBRANCH 100 114
BRANCH 105 118
ATOM    118  N   UNK A   5       0.505  -8.346  -2.768  0.00  0.00    +0.000 N 
ATOM    119  H   UNK A   5       0.075  -9.067  -3.354  0.00  0.00    +0.000 HD
ATOM    120  H   UNK A   5       0.871  -7.531  -3.212  0.00  0.00    +0.000 HD
ENDBRANCH 105 118
ENDBRANCH  91  94
BRANCH  92 121
ATOM    121  C   UNK A   5      -2.925  -8.663   4.053  0.00  0.00    +0.000 C 
ATOM    122  O   UNK A   5      -3.070  -9.665   3.343  0.00  0.00    +0.000 OA
BRANCH 121 123
ATOM    123  O   UNK A   5      -3.464  -8.791   5.295  0.00  0.00    +0.000 OA
ATOM    124  H   UNK A   5      -3.677  -7.959   5.700  0.00  0.00    +0.000 HD
ENDBRANCH 121 123
ENDBRANCH  92 121
ENDBRANCH  85  88
ENDBRANCH  83  84
ENDBRANCH  82  83
ENDBRANCH  81  82
ENDBRANCH  80  81
ENDBRANCH  70  80
ENDBRANCH  68  70
ENDBRANCH   7  66
TORSDOF 29
REMARK  Name = CHEMBL1765670
REMARK  31 active torsions:
REMARK  status: ('A' for Active; 'I' for Inactive)
REMARK    1  A    between atoms: CD1_1  and  CG_2
REMARK    2  A    between atoms: CG_2  and  CD2_3
REMARK    3  A    between atoms: CG_2  and  CB_4
REMARK    4  A    between atoms: CB_4  and  CA_5
REMARK    5  A    between atoms: CA_9  and  CB_10
REMARK    6  A    between atoms: CB_10  and  CG_11
REMARK    7  A    between atoms: CA_20  and  CB_21
REMARK    8  A    between atoms: CB_21  and  CG_22
REMARK    9  A    between atoms: CZ_25  and  OH_26
REMARK   10  A    between atoms: C_32  and  O_33
REMARK   11  A    between atoms: C_38  and  C_39
REMARK   12  A    between atoms: CA_45  and  C_46
REMARK   13  A    between atoms: N_48  and  C_49
REMARK   14  A    between atoms: C_49  and  C_50
REMARK   15  A    between atoms: C_49  and  C_90
REMARK   16  A    between atoms: C_50  and  C_51
REMARK   17  A    between atoms: C_51  and  C_52
REMARK   18  A    between atoms: C_52  and  C_53
REMARK   19  A    between atoms: C_53  and  N_54
REMARK   20  A    between atoms: C_55  and  C_57
REMARK   21  A    between atoms: C_60  and  C_61
REMARK   22  A    between atoms: C_67  and  S_68
REMARK   23  A    between atoms: C_75  and  S_76
REMARK   24  A    between atoms: C_80  and  N_81
REMARK   25  A    between atoms: C_85  and  C_86
REMARK   26  A    between atoms: C_86  and  O_88
REMARK   27  A    between atoms: N_92  and  CA_93
REMARK   28  A    between atoms: CA_93  and  C_94
REMARK   29  A    between atoms: C_94  and  OXT_96
REMARK   30  A    between atoms: CA_100  and  CB_101
REMARK   31  A    between atoms: CB_101  and  CG_102
REMARK                            x       y       z     vdW  Elec       q    Type
REMARK                         _______ _______ _______ _____ _____    ______ ____
ROOT
ATOM      1 LI   UNL     1      -0.006  -0.165   0.456  0.00  0.00    +0.000 Li
ENDROOT
TORSDOF 0
REMARK  Name = CHEMBL1765670
REMARK  31 active torsions:
REMARK  status: ('A' for Active; 'I' for Inactive)
REMARK    1  A    between atoms: CD1_1  and  CG_2
REMARK    2  A    between atoms: CG_2  and  CD2_3
REMARK    3  A    between atoms: CG_2  and  CB_4
REMARK    4  A    between atoms: CB_4  and  CA_5
REMARK    5  A    between atoms: CA_9  and  CB_10
REMARK    6  A    between atoms: CB_10  and  CG_11
REMARK    7  A    between atoms: CA_20  and  CB_21
REMARK    8  A    between atoms: CB_21  and  CG_22
REMARK    9  A    between atoms: CZ_25  and  OH_26
REMARK   10  A    between atoms: C_32  and  O_33
REMARK   11  A    between atoms: C_38  and  C_39
REMARK   12  A    between atoms: CA_45  and  C_46
REMARK   13  A    between atoms: N_48  and  C_49
REMARK   14  A    between atoms: C_49  and  C_50
REMARK   15  A    between atoms: C_49  and  C_90
REMARK   16  A    between atoms: C_50  and  C_51
REMARK   17  A    between atoms: C_51  and  C_52
REMARK   18  A    between atoms: C_52  and  C_53
REMARK   19  A    between atoms: C_53  and  N_54
REMARK   20  A    between atoms: C_55  and  C_57
REMARK   21  A    between atoms: C_60  and  C_61
REMARK   22  A    between atoms: C_67  and  S_68
REMARK   23  A    between atoms: C_75  and  S_76
REMARK   24  A    between atoms: C_80  and  N_81
REMARK   25  A    between atoms: C_85  and  C_86
REMARK   26  A    between atoms: C_86  and  O_88
REMARK   27  A    between atoms: N_92  and  CA_93
REMARK   28  A    between atoms: CA_93  and  C_94
REMARK   29  A    between atoms: C_94  and  OXT_96
REMARK   30  A    between atoms: CA_100  and  CB_101
REMARK   31  A    between atoms: CB_101  and  CG_102
REMARK                            x       y       z     vdW  Elec       q    Type
REMARK                         _______ _______ _______ _____ _____    ______ ____
ROOT
ATOM      1 LI   UNL     1       1.956   0.006  -0.570  0.00  0.00    +0.000 Li
ENDROOT
TORSDOF 0
