REMARK  Name = CHEMBL3814120
REMARK  25 active torsions:
REMARK  status: ('A' for Active; 'I' for Inactive)
REMARK    1  A    between atoms: C_1  and  C_2
REMARK    2  A    between atoms: C_2  and  C_3
REMARK    3  A    between atoms: C_3  and  C_4
REMARK    4  A    between atoms: C_3  and  C_5
REMARK    5  A    between atoms: C_9  and  C_10
REMARK    6  A    between atoms: C_10  and  C_11
REMARK    7  A    between atoms: C_14  and  O_15
REMARK    8  A    between atoms: C_21  and  N_22
REMARK    9  A    between atoms: C_27  and  C_28
REMARK   10  A    between atoms: C_34  and  C_35
REMARK   11  A    between atoms: N_37  and  C_38
REMARK   12  A    between atoms: C_38  and  C_39
REMARK   13  A    between atoms: C_38  and  C_43
REMARK   14  A    between atoms: C_39  and  C_40
REMARK   15  A    between atoms: C_40  and  C_41
REMARK   16  A    between atoms: C_40  and  C_42
REMARK   17  A    between atoms: N_45  and  C_46
REMARK   18  A    between atoms: N_45  and  C_47
REMARK   19  A    between atoms: C_47  and  C_48
REMARK   20  A    between atoms: N_51  and  C_52
REMARK   21  A    between atoms: C_55  and  C_56
REMARK   22  A    between atoms: C_56  and  C_57
REMARK   23  A    between atoms: C_63  and  C_64
REMARK   24  A    between atoms: C_64  and  C_65
REMARK   25  A    between atoms: C_65  and  C_66
REMARK                            x       y       z     vdW  Elec       q    Type
REMARK                         _______ _______ _______ _____ _____    ______ ____
ROOT
ATOM      1  C   UNL     1      -0.507   4.571   3.978  0.00  0.00    +0.000 C 
ATOM      2  N   UNL     1      -2.695   5.887   5.227  0.00  0.00    +0.000 N 
ATOM      3  C   UNL     1      -4.891   7.125   6.331  0.00  0.00    +0.000 C 
ATOM      4  O   UNL     1      -5.943   7.992   7.610  0.00  0.00    +0.000 OA
ATOM      5  C   UNL     1      -7.532   7.973   6.720  0.00  0.00    +0.000 C 
ATOM      6  N   UNL     1      -8.728   8.830   5.834  0.00  0.00    +0.000 N 
ATOM      7  C   UNL     1      -7.461   8.656   5.525  0.00  0.00    +0.000 C 
ATOM      8  O   UNL     1      -6.833   9.068   4.605  0.00  0.00    +0.000 OA
ATOM      9  C   UNL     1      -6.474   7.519   6.039  0.00  0.00    +0.000 C 
ATOM     10  C   UNL     1      -6.150   6.163   5.956  0.00  0.00    +0.000 C 
ATOM     11  S   UNL     1      -4.987   7.037   4.480  0.00  0.00    +0.000 S 
ATOM     12  S   UNL     1      -4.228   5.287   3.930  0.00  0.00    +0.000 S 
ATOM     13  C   UNL     1      -2.905   5.749   2.771  0.00  0.00    +0.000 C 
ATOM     14  C   UNL     1      -2.341   4.540   2.183  0.00  0.00    +0.000 C 
ATOM     15  N   UNL     1      -1.914   3.937   3.301  0.00  0.00    +0.000 N 
ATOM     16  C   UNL     1      -2.277   3.340   4.499  0.00  0.00    +0.000 C 
ATOM     17  C   UNL     1      -1.168   2.954   2.931  0.00  0.00    +0.000 C 
ATOM     18  O   UNL     1      -0.358   3.711   2.322  0.00  0.00    +0.000 OA
ATOM     19  C   UNL     1       0.322   2.678   4.206  0.00  0.00    +0.000 C 
ATOM     20  N   UNL     1       1.111   1.579   3.799  0.00  0.00    +0.000 N 
ATOM     21  C   UNL     1       2.407   1.748   3.150  0.00  0.00    +0.000 C 
ATOM     22  O   UNL     1       3.385   0.473   2.409  0.00  0.00    +0.000 OA
ATOM     23  C   UNL     1       2.507   3.529   1.841  0.00  0.00    +0.000 C 
ATOM     24  N   UNL     1       3.735   3.576   2.245  0.00  0.00    +0.000 N 
ATOM     25  C   UNL     1       1.915   3.689   3.225  0.00  0.00    +0.000 C 
ATOM     26  O   UNL     1       3.654   3.173   2.779  0.00  0.00    +0.000 OA
ATOM     27  H   UNL     1      -3.924   6.723   6.116  0.00  0.00    +0.000 HD
ATOM     28  H   UNL     1      -9.357   9.308   5.125  0.00  0.00    +0.000 HD
ATOM     29  H   UNL     1       0.889   0.679   4.010  0.00  0.00    +0.000 HD
ATOM     30  H   UNL     1       4.456   4.127   2.688  0.00  0.00    +0.000 HD
ENDROOT
BRANCH  14  31
ATOM     31  C   UNL     1      -1.357   4.899   1.007  0.00  0.00    +0.000 C 
ATOM     32  O   UNL     1      -0.177   4.665   0.974  0.00  0.00    +0.000 OA
ATOM     33  N   UNL     1      -1.855   5.549  -0.108  0.00  0.00    +0.000 N 
ATOM     34  C   UNL     1      -2.733   6.686  -0.029  0.00  0.00    +0.000 C 
ATOM     35  C   UNL     1      -3.568   6.551  -1.263  0.00  0.00    +0.000 C 
ATOM     36  C   UNL     1      -2.537   6.192  -2.327  0.00  0.00    +0.000 C 
ATOM     37  C   UNL     1      -1.517   5.370  -1.571  0.00  0.00    +0.000 C 
BRANCH  37  38
ATOM     38  C   UNL     1      -0.343   6.188  -2.036  0.00  0.00    +0.000 C 
ATOM     39  O   UNL     1       0.385   6.820  -0.945  0.00  0.00    +0.000 OA
ATOM     40  N   UNL     1       0.429   5.839  -3.222  0.00  0.00    +0.000 N 
ATOM     41  H   UNL     1      -0.074   5.425  -3.974  0.00  0.00    +0.000 HD
BRANCH  40  42
ATOM     42  C   UNL     1       1.821   6.307  -3.493  0.00  0.00    +0.000 C 
BRANCH  42  43
ATOM     43  C   UNL     1       2.153   6.119  -4.995  0.00  0.00    +0.000 C 
ATOM     44  O   UNL     1       1.301   5.611  -5.736  0.00  0.00    +0.000 OA
ATOM     45  N   UNL     1       3.423   6.539  -5.470  0.00  0.00    +0.000 N 
ATOM     46  C   UNL     1       4.366   7.127  -4.564  0.00  0.00    +0.000 C 
BRANCH  45  47
ATOM     47  C   UNL     1       3.778   6.374  -6.896  0.00  0.00    +0.000 C 
BRANCH  47  48
ATOM     48  C   UNL     1       5.197   6.887  -7.213  0.00  0.00    +0.000 C 
ATOM     49  N   UNL     1       5.993   7.432  -6.207  0.00  0.00    +0.000 N 
ATOM     50  O   UNL     1       5.641   6.821  -8.359  0.00  0.00    +0.000 OA
ATOM     51  H   UNL     1       5.770   7.542  -5.273  0.00  0.00    +0.000 HD
ATOM     52  H   UNL     1       6.906   7.784  -6.308  0.00  0.00    +0.000 HD
ENDBRANCH  47  48
ENDBRANCH  45  47
ENDBRANCH  42  43
BRANCH  42  53
ATOM     53  C   UNL     1       2.819   5.542  -2.648  0.00  0.00    +0.000 C 
BRANCH  53  54
ATOM     54  C   UNL     1       2.550   5.718  -1.183  0.00  0.00    +0.000 C 
ATOM     55  C   UNL     1       1.315   5.095  -0.762  0.00  0.00    +0.000 C 
ATOM     56  C   UNL     1       3.584   5.048  -0.388  0.00  0.00    +0.000 C 
ENDBRANCH  53  54
ENDBRANCH  42  53
ENDBRANCH  40  42
ENDBRANCH  37  38
ENDBRANCH  14  31
BRANCH   9  57
ATOM     57  N   UNL     1      -7.344   7.051   8.037  0.00  0.00    +0.000 NA
ATOM     58  H   UNL     1      -8.263   7.094   7.897  0.00  0.00    +0.000 HD
ATOM     59  H   UNL     1      -7.889   8.117   8.426  0.00  0.00    +0.000 HD
ENDBRANCH   9  57
BRANCH   1  60
ATOM     60  C   UNL     1       0.888   2.744   2.291  0.00  0.00    +0.000 C 
ATOM     61  C   UNL     1       1.940   0.765   0.970  0.00  0.00    +0.000 C 
BRANCH  60  63
ATOM     62  C   UNL     1       2.065  -0.592   2.661  0.00  0.00    +0.000 C 
ATOM     63  C   UNL     1       2.114   1.143   1.721  0.00  0.00    +0.000 C 
ENDBRANCH  60  63
ENDBRANCH   1  60
BRANCH  19  64
ATOM     64  C   UNL     1       1.724   3.733   4.920  0.00  0.00    +0.000 C 
BRANCH  64  65
ATOM     65  C   UNL     1       2.977   2.770   5.059  0.00  0.00    +0.000 C 
ATOM     66  N   UNL     1       2.822   1.377   4.961  0.00  0.00    +0.000 N 
ATOM     67  O   UNL     1       4.066   3.218   5.339  0.00  0.00    +0.000 OA
ATOM     68  H   UNL     1       1.977   1.009   4.577  0.00  0.00    +0.000 HD
ATOM     69  H   UNL     1       3.521   0.697   4.865  0.00  0.00    +0.000 HD
ENDBRANCH  64  65
ENDBRANCH  19  64
BRANCH   5  70
ATOM     70  C   UNL     1      -9.427   6.863   7.092  0.00  0.00    +0.000 C 
BRANCH  70  71
ATOM     71  C   UNL     1     -10.136   6.407   8.416  0.00  0.00    +0.000 A 
ATOM     72  C   UNL     1     -10.744   7.287   9.294  0.00  0.00    +0.000 A 
ATOM     73  C   UNL     1     -11.338   6.842  10.468  0.00  0.00    +0.000 A 
ATOM     74  C   UNL     1     -11.333   5.489  10.749  0.00  0.00    +0.000 A 
ATOM     75  C   UNL     1     -10.708   4.609   9.892  0.00  0.00    +0.000 A 
ATOM     76  C   UNL     1     -10.126   5.065   8.734  0.00  0.00    +0.000 A 
BRANCH  74  77
ATOM     77  O   UNL     1     -11.904   4.945  11.853  0.00  0.00    +0.000 OA
ATOM     78  H   UNL     1     -12.347   5.550  12.460  0.00  0.00    +0.000 HD
ENDBRANCH  74  77
ENDBRANCH  70  71
ENDBRANCH   5  70
BRANCH  23  79
ATOM     79  C   UNL     1       2.094   3.316   0.409  0.00  0.00    +0.000 C 
BRANCH  79  80
ATOM     80  C   UNL     1       2.627   1.819  -0.493  0.00  0.00    +0.000 C 
BRANCH  80  81
ATOM     81  C   UNL     1       2.211   1.798  -1.781  0.00  0.00    +0.000 C 
ATOM     82  N   UNL     1       1.650   2.869  -2.240  0.00  0.00    +0.000 N 
ATOM     83  O   UNL     1       2.424   0.793  -2.414  0.00  0.00    +0.000 OA
ATOM     84  H   UNL     1       1.643   3.677  -1.773  0.00  0.00    +0.000 HD
ATOM     85  H   UNL     1       1.401   3.002  -3.170  0.00  0.00    +0.000 HD
ENDBRANCH  80  81
ENDBRANCH  79  80
ENDBRANCH  23  79
TORSDOF 19
