REMARK  Name = CHEMBL302297
REMARK  10 active torsions:
REMARK  status: ('A' for Active; 'I' for Inactive)
REMARK    1  A    between atoms: C_1  and  O_2
REMARK    2  A    between atoms: O_2  and  C_3
REMARK    3  A    between atoms: C_5  and  O_6
REMARK    4  A    between atoms: O_6  and  C_7
REMARK    5  A    between atoms: N_10  and  C_11
REMARK    6  A    between atoms: C_11  and  C_12
REMARK    7  A    between atoms: C_13  and  C_14
REMARK    8  A    between atoms: C_19  and  C_20
REMARK    9  A    between atoms: C_25  and  C_26
REMARK   10  A    between atoms: C_31  and  N_32
REMARK                            x       y       z     vdW  Elec       q    Type
REMARK                         _______ _______ _______ _____ _____    ______ ____
ROOT
ATOM      1  C   UNL     1       2.955  -0.347   0.776  0.00  0.00    +0.000 A 
ATOM      2  C   UNL     1       4.203   0.214   1.280  0.00  0.00    +0.000 A 
ATOM      3  C   UNL     1       4.996  -0.494   2.094  0.00  0.00    +0.000 A 
ATOM      4  C   UNL     1       4.296  -1.595   2.419  0.00  0.00    +0.000 A 
ATOM      5  C   UNL     1       3.209  -2.284   1.894  0.00  0.00    +0.000 A 
ATOM      6  C   UNL     1       2.403  -1.617   1.085  0.00  0.00    +0.000 A 
ENDROOT
BRANCH   6   7
ATOM      7  C   UNL     1       1.137  -2.419   0.813  0.00  0.00    +0.000 C 
ATOM      8  O   UNL     1       0.909  -3.426   1.501  0.00  0.00    +0.000 OA
ATOM      9  N   UNL     1       0.201  -1.950  -0.135  0.00  0.00    +0.000 N 
ATOM     10  C   UNL     1      -1.042  -1.303   0.402  0.00  0.00    +0.000 C 
ATOM     11  C   UNL     1      -2.188  -1.383  -0.612  0.00  0.00    +0.000 C 
ATOM     12  C   UNL     1      -1.999  -0.349  -2.160  0.00  0.00    +0.000 C 
ATOM     13  C   UNL     1      -0.492  -1.414  -2.529  0.00  0.00    +0.000 C 
ATOM     14  C   UNL     1       0.652  -1.477  -1.477  0.00  0.00    +0.000 C 
BRANCH  12  15
ATOM     15  N   UNL     1      -2.937   1.142  -2.759  0.00  0.00    +0.000 N 
ATOM     16  C   UNL     1      -3.809   0.707  -1.726  0.00  0.00    +0.000 C 
ATOM     17  O   UNL     1      -4.421  -0.375  -1.702  0.00  0.00    +0.000 OA
ATOM     18  O   UNL     1      -3.783   1.480  -0.652  0.00  0.00    +0.000 OA
ATOM     19  C   UNL     1      -4.722   2.378  -1.099  0.00  0.00    +0.000 C 
ATOM     20  C   UNL     1      -3.847   3.418  -1.680  0.00  0.00    +0.000 A 
ATOM     21  C   UNL     1      -2.777   4.333  -1.932  0.00  0.00    +0.000 A 
ATOM     22  C   UNL     1      -3.082   5.674  -2.347  0.00  0.00    +0.000 A 
ATOM     23  C   UNL     1      -4.315   5.735  -2.870  0.00  0.00    +0.000 A 
ATOM     24  C   UNL     1      -4.706   4.251  -3.280  0.00  0.00    +0.000 A 
ATOM     25  C   UNL     1      -3.901   2.875  -2.785  0.00  0.00    +0.000 A 
ENDBRANCH  12  15
ENDBRANCH   6   7
BRANCH   1  27
ATOM     26  C   UNL     1       1.152   0.834   0.177  0.00  0.00    +0.000 C 
ATOM     27  O   UNL     1       2.465   0.515  -0.154  0.00  0.00    +0.000 OA
ENDBRANCH   1  27
BRANCH   3  28
ATOM     28  O   UNL     1       6.280  -0.225   2.478  0.00  0.00    +0.000 OA
BRANCH  28  29
ATOM     29  C   UNL     1       7.270  -1.210   3.048  0.00  0.00    +0.000 C 
ATOM     30  C   UNL     1       7.445  -2.539   2.266  0.00  0.00    +0.000 C 
ATOM     31  C   UNL     1       6.238  -3.455   2.349  0.00  0.00    +0.000 C 
ATOM     32  N   UNL     1       5.832  -3.634   3.810  0.00  0.00    +0.000 NA
ATOM     33  C   UNL     1       5.972  -2.408   4.683  0.00  0.00    +0.000 C 
ATOM     34  C   UNL     1       7.119  -1.495   4.537  0.00  0.00    +0.000 C 
BRANCH  32  35
ATOM     35  C   UNL     1       4.450  -4.189   3.923  0.00  0.00    +0.000 C 
BRANCH  35  36
ATOM     36  C   UNL     1       3.890  -4.456   5.284  0.00  0.00    +0.000 A 
ATOM     37  C   UNL     1       3.542  -3.403   6.183  0.00  0.00    +0.000 A 
ATOM     38  C   UNL     1       3.594  -1.926   5.899  0.00  0.00    +0.000 C 
ATOM     39  C   UNL     1       3.091  -3.728   7.424  0.00  0.00    +0.000 A 
ATOM     40  C   UNL     1       2.501  -4.962   7.552  0.00  0.00    +0.000 A 
ATOM     41  N   UNL     1       2.776  -6.020   6.692  0.00  0.00    +0.000 N 
ATOM     42  O   UNL     1       2.369  -7.181   6.994  0.00  0.00    +0.000 OA
ATOM     43  C   UNL     1       3.533  -5.778   5.567  0.00  0.00    +0.000 A 
ATOM     44  C   UNL     1       3.886  -6.901   4.640  0.00  0.00    +0.000 C 
ENDBRANCH  35  36
ENDBRANCH  32  35
ENDBRANCH  28  29
ENDBRANCH   3  28
TORSDOF 7
