REMARK  Name = CHEMBL1765668
REMARK  34 active torsions:
REMARK  status: ('A' for Active; 'I' for Inactive)
REMARK    1  A    between atoms: CD1_1  and  CG_2
REMARK    2  A    between atoms: CG_2  and  CD2_3
REMARK    3  A    between atoms: CG_2  and  CB_4
REMARK    4  A    between atoms: CB_4  and  CA_5
REMARK    5  A    between atoms: CA_9  and  CB_10
REMARK    6  A    between atoms: CB_10  and  CG_11
REMARK    7  A    between atoms: CA_20  and  CB_21
REMARK    8  A    between atoms: CB_21  and  CG_22
REMARK    9  A    between atoms: CZ_25  and  OH_26
REMARK   10  A    between atoms: C_37  and  C_38
REMARK   11  A    between atoms: CA_44  and  C_45
REMARK   12  A    between atoms: N_47  and  C_48
REMARK   13  A    between atoms: C_48  and  C_49
REMARK   14  A    between atoms: C_48  and  C_67
REMARK   15  A    between atoms: C_49  and  C_50
REMARK   16  A    between atoms: C_50  and  C_51
REMARK   17  A    between atoms: C_51  and  C_52
REMARK   18  A    between atoms: C_52  and  N_53
REMARK   19  A    between atoms: C_54  and  C_56
REMARK   20  A    between atoms: C_56  and  C_57
REMARK   21  A    between atoms: C_57  and  C_58
REMARK   22  A    between atoms: C_58  and  C_59
REMARK   23  A    between atoms: C_59  and  C_60
REMARK   24  A    between atoms: C_60  and  C_61
REMARK   25  A    between atoms: C_61  and  C_62
REMARK   26  A    between atoms: C_62  and  C_63
REMARK   27  A    between atoms: C_63  and  C_64
REMARK   28  A    between atoms: C_64  and  C_65
REMARK   29  A    between atoms: C_65  and  N_66
REMARK   30  A    between atoms: N_69  and  CA_70
REMARK   31  A    between atoms: CA_70  and  C_71
REMARK   32  A    between atoms: C_71  and  OXT_73
REMARK   33  A    between atoms: CA_77  and  CB_78
REMARK   34  A    between atoms: CB_78  and  CG_79
REMARK                            x       y       z     vdW  Elec       q    Type
REMARK                         _______ _______ _______ _____ _____    ______ ____
ROOT
ATOM      1  CA  TYR A   1       4.943  -0.474   1.328  0.00  0.00    +0.000 C 
ATOM      2  N   TYR A   1       5.957   0.341   2.069  0.00  0.00    +0.000 N 
ATOM      3  C   TYR A   1       5.687   1.365   2.951  0.00  0.00    +0.000 C 
ATOM      4  O   TYR A   1       6.062   1.231   4.129  0.00  0.00    +0.000 OA
ATOM      5  CA  TYR A   1       4.778   2.616   2.545  0.00  0.00    +0.000 C 
ATOM      6  N   TYR A   1       3.326   2.896   2.765  0.00  0.00    +0.000 N 
ATOM      7  C   TYR A   1       2.605   3.268   3.979  0.00  0.00    +0.000 C 
ATOM      8  O   TYR A   1       1.522   3.838   3.773  0.00  0.00    +0.000 OA
ATOM      9  CA  TYR A   1       3.049   2.754   5.710  0.00  0.00    +0.000 C 
ATOM     10  N   TYR A   1       2.383   3.729   6.499  0.00  0.00    +0.000 N 
ATOM     11  C   UNK A   0       1.023   3.796   6.624  0.00  0.00    +0.000 C 
ATOM     12  O   UNK A   0       0.588   4.860   7.027  0.00  0.00    +0.000 OA
ATOM     13  C   UNK A   0       0.040   2.598   6.358  0.00  0.00    +0.000 C 
ATOM     14  C   UNK A   0       0.359   1.307   5.634  0.00  0.00    +0.000 C 
ATOM     15  S   UNK A   3      -0.855   0.006   5.148  0.00  0.00    +0.000 S 
ATOM     16  S   UNK A   3       0.359  -1.723   5.133  0.00  0.00    +0.000 S 
ATOM     17  C   UNK A   3      -0.236  -2.815   3.751  0.00  0.00    +0.000 C 
ATOM     18  C   UNK A   3       0.532  -4.005   3.124  0.00  0.00    +0.000 C 
ATOM     19  N   UNK A   3       1.116  -3.648   1.812  0.00  0.00    +0.000 N 
ATOM     20  C   ASN A   2       1.976  -2.668   1.574  0.00  0.00    +0.000 C 
ATOM     21  O   ASN A   2       2.297  -2.337   0.375  0.00  0.00    +0.000 OA
ATOM     22  CA  ASN A   2       2.646  -2.021   2.733  0.00  0.00    +0.000 C 
ATOM     23  N   ASN A   2       3.975  -2.473   2.473  0.00  0.00    +0.000 N 
ATOM     24  C   TYR A   1       5.022  -1.939   1.812  0.00  0.00    +0.000 C 
ATOM     25  O   TYR A   1       6.079  -2.569   1.927  0.00  0.00    +0.000 OA
ATOM     26  H   TYR A   1       6.694  -0.237   2.480  0.00  0.00    +0.000 HD
ATOM     27  H   TYR A   1       2.699   2.430   2.101  0.00  0.00    +0.000 HD
ATOM     28  H   TYR A   1       2.831   4.646   6.525  0.00  0.00    +0.000 HD
ATOM     29  H   UNK A   3       0.816  -4.162   0.982  0.00  0.00    +0.000 HD
ATOM     30  H   ASN A   2       4.167  -3.345   2.959  0.00  0.00    +0.000 HD
ENDROOT
BRANCH  18  31
ATOM     31  C   UNK A   3      -0.357  -5.287   2.886  0.00  0.00    +0.000 C 
ATOM     32  O   UNK A   3      -0.328  -5.846   1.781  0.00  0.00    +0.000 OA
ATOM     33  N   PRO A   4      -0.942  -5.897   3.986  0.00  0.00    +0.000 N 
ATOM     34  CD  PRO A   4      -1.756  -5.317   5.042  0.00  0.00    +0.000 C 
ATOM     35  CG  PRO A   4      -1.370  -6.171   6.213  0.00  0.00    +0.000 C 
ATOM     36  CB  PRO A   4      -1.433  -7.561   5.611  0.00  0.00    +0.000 C 
ATOM     37  CA  PRO A   4      -1.059  -7.374   4.123  0.00  0.00    +0.000 C 
BRANCH  37  38
ATOM     38  C   PRO A   4      -2.243  -7.986   3.347  0.00  0.00    +0.000 C 
ATOM     39  O   PRO A   4      -3.147  -7.263   2.925  0.00  0.00    +0.000 OA
ATOM     40  N   UNK A   5      -2.285  -9.374   3.236  0.00  0.00    +0.000 N 
ATOM     41  H   UNK A   5      -1.718  -9.960   3.842  0.00  0.00    +0.000 HD
BRANCH  40  42
ATOM     42  C   UNK A   5      -3.260 -10.089   2.365  0.00  0.00    +0.000 C 
BRANCH  42  43
ATOM     43  C   UNK A   5      -3.283 -11.631   2.675  0.00  0.00    +0.000 C 
ATOM     44  O   UNK A   5      -2.550 -12.121   3.538  0.00  0.00    +0.000 OA
ATOM     45  N   GLY A   6      -4.157 -12.420   1.946  0.00  0.00    +0.000 N 
ATOM     46  H   GLY A   6      -4.774 -12.017   1.244  0.00  0.00    +0.000 HD
BRANCH  45  47
ATOM     47  CA  GLY A   6      -4.253 -13.879   2.123  0.00  0.00    +0.000 C 
BRANCH  47  48
ATOM     48  C   GLY A   6      -5.291 -14.495   1.180  0.00  0.00    +0.000 C 
ATOM     49  O   GLY A   6      -5.944 -13.834   0.380  0.00  0.00    +0.000 OA
BRANCH  48  50
ATOM     50  OXT GLY A   6      -5.446 -15.836   1.280  0.00  0.00    +0.000 OA
ATOM     51  HXT GLY A   6      -4.896 -16.306   1.935  0.00  0.00    +0.000 HD
ENDBRANCH  48  50
ENDBRANCH  47  48
ENDBRANCH  45  47
ENDBRANCH  42  43
BRANCH  42  52
ATOM     52  C   UNK A   5      -2.902  -9.878   0.876  0.00  0.00    +0.000 C 
BRANCH  52  53
ATOM     53  C   UNK A   5      -2.850  -8.405   0.491  0.00  0.00    +0.000 C 
BRANCH  53  54
ATOM     54  C   UNK A   5      -2.498  -8.117  -0.945  0.00  0.00    +0.000 C 
BRANCH  54  55
ATOM     55  C   UNK A   5      -2.456  -6.605  -1.147  0.00  0.00    +0.000 C 
BRANCH  55  56
ATOM     56  N   UNK A   5      -2.101  -6.270  -2.506  0.00  0.00    +0.000 N 
ATOM     57  C   UNK A   5      -2.014  -4.954  -2.890  0.00  0.00    +0.000 C 
ATOM     58  O   UNK A   5      -2.242  -4.023  -2.116  0.00  0.00    +0.000 OA
ATOM     59  H   UNK A   5      -1.875  -7.013  -3.154  0.00  0.00    +0.000 HD
BRANCH  57  60
ATOM     60  C   UNK A   5      -1.626  -4.746  -4.340  0.00  0.00    +0.000 C 
BRANCH  60  61
ATOM     61  C   UNK A   5      -1.581  -3.254  -4.658  0.00  0.00    +0.000 C 
BRANCH  61  62
ATOM     62  C   UNK A   5      -1.200  -2.987  -6.105  0.00  0.00    +0.000 C 
BRANCH  62  63
ATOM     63  C   UNK A   5      -1.169  -1.487  -6.373  0.00  0.00    +0.000 C 
BRANCH  63  64
ATOM     64  C   UNK A   5      -0.789  -1.218  -7.820  0.00  0.00    +0.000 C 
BRANCH  64  65
ATOM     65  C   UNK A   5      -0.757   0.278  -8.088  0.00  0.00    +0.000 C 
BRANCH  65  66
ATOM     66  C   UNK A   5      -0.377   0.541  -9.536  0.00  0.00    +0.000 C 
BRANCH  66  67
ATOM     67  C   UNK A   5      -0.344   2.037  -9.808  0.00  0.00    +0.000 C 
BRANCH  67  68
ATOM     68  C   UNK A   5       0.037   2.303 -11.259  0.00  0.00    +0.000 C 
BRANCH  68  69
ATOM     69  C   UNK A   5       0.067   3.799 -11.532  0.00  0.00    +0.000 C 
BRANCH  69  70
ATOM     70  N   UNK A   5       0.424   4.038 -12.923  0.00  0.00    +0.000 NA
ATOM     71  H   UNK A   5       1.354   3.662 -13.105  0.00  0.00    +0.000 HD
ATOM     72  H   UNK A   5       0.479   5.041 -13.089  0.00  0.00    +0.000 HD
ENDBRANCH  69  70
ENDBRANCH  68  69
ENDBRANCH  67  68
ENDBRANCH  66  67
ENDBRANCH  65  66
ENDBRANCH  64  65
ENDBRANCH  63  64
ENDBRANCH  62  63
ENDBRANCH  61  62
ENDBRANCH  60  61
ENDBRANCH  57  60
ENDBRANCH  55  56
ENDBRANCH  54  55
ENDBRANCH  53  54
ENDBRANCH  52  53
ENDBRANCH  42  52
ENDBRANCH  40  42
ENDBRANCH  37  38
ENDBRANCH  18  31
BRANCH  22  73
ATOM     73  CB  ASN A   2       2.173  -0.613   2.671  0.00  0.00    +0.000 C 
BRANCH  73  74
ATOM     74  CG  ASN A   2       2.322   0.579   3.504  0.00  0.00    +0.000 C 
ATOM     75  ND2 ASN A   2       3.441   1.114   4.077  0.00  0.00    +0.000 N 
ATOM     76  OD1 ASN A   2       1.410   1.339   3.138  0.00  0.00    +0.000 OA
ATOM     77 HD21 ASN A   2       4.428   0.914   4.097  0.00  0.00    +0.000 HD
ATOM     78 HD22 ASN A   2       3.729   1.282   5.011  0.00  0.00    +0.000 HD
ENDBRANCH  73  74
ENDBRANCH  22  73
BRANCH   9  79
ATOM     79  CB  TYR A   1       3.108   1.099   6.656  0.00  0.00    +0.000 C 
BRANCH  79  80
ATOM     80  CG  TYR A   1       3.625  -0.474   6.161  0.00  0.00    +0.000 A 
ATOM     81  CD1 TYR A   1       4.336  -0.767   5.008  0.00  0.00    +0.000 A 
ATOM     82  CE1 TYR A   1       5.394  -1.574   4.784  0.00  0.00    +0.000 A 
ATOM     83  CZ  TYR A   1       5.095  -2.807   5.163  0.00  0.00    +0.000 A 
ATOM     84  CE2 TYR A   1       4.118  -2.897   6.155  0.00  0.00    +0.000 A 
ATOM     85  CD2 TYR A   1       3.494  -1.703   6.766  0.00  0.00    +0.000 A 
BRANCH  83  86
ATOM     86  OH  TYR A   1       5.463  -3.823   4.325  0.00  0.00    +0.000 OA
ATOM     87  HH  TYR A   1       5.907  -3.459   3.509  0.00  0.00    +0.000 HD
ENDBRANCH  83  86
ENDBRANCH  79  80
ENDBRANCH   9  79
BRANCH   5  88
ATOM     88  CB  TYR A   1       5.306   3.863   3.181  0.00  0.00    +0.000 C 
BRANCH  88  89
ATOM     89  CG  TYR A   1       6.763   4.022   3.283  0.00  0.00    +0.000 A 
ATOM     90  CD1 TYR A   1       7.688   3.120   2.751  0.00  0.00    +0.000 A 
ATOM     91  CE1 TYR A   1       8.994   3.145   3.160  0.00  0.00    +0.000 A 
ATOM     92  CZ  TYR A   1       9.423   4.248   3.872  0.00  0.00    +0.000 A 
ATOM     93  CE2 TYR A   1       8.521   5.218   4.320  0.00  0.00    +0.000 A 
ATOM     94  CD2 TYR A   1       7.175   5.077   4.078  0.00  0.00    +0.000 A 
ENDBRANCH  88  89
ENDBRANCH   5  88
BRANCH   1  95
ATOM     95  CB  TYR A   1       4.789  -0.370  -0.186  0.00  0.00    +0.000 C 
BRANCH  95  97
ATOM     96  CD1 TYR A   1       7.057  -1.267  -0.541  0.00  0.00    +0.000 C 
ATOM     97  CG  TYR A   1       6.121  -0.107  -0.842  0.00  0.00    +0.000 C 
ATOM     98  CD2 TYR A   1       5.964   0.062  -2.340  0.00  0.00    +0.000 C 
ENDBRANCH  95  97
ENDBRANCH   1  95
TORSDOF 32
