REMARK  Name = CHEMBL287067
REMARK  3 active torsions:
REMARK  status: ('A' for Active; 'I' for Inactive)
REMARK    1  A    between atoms: C_1  and  C_2
REMARK    2  A    between atoms: C_8  and  C_9
REMARK    3  A    between atoms: C_14  and  N_15
REMARK                            x       y       z     vdW  Elec       q    Type
REMARK                         _______ _______ _______ _____ _____    ______ ____
ROOT
ATOM      1  C   UNL     1      -3.070  -2.406  -0.198  0.00  0.00    +0.000 C 
ATOM      2  O   UNL     1      -4.265  -2.181  -0.368  0.00  0.00    +0.000 OA
ATOM      3  N   UNL     1      -2.604  -3.709  -0.029  0.00  0.00    +0.000 N 
ATOM      4  C   UNL     1      -2.400  -4.611  -1.172  0.00  0.00    +0.000 C 
ATOM      5  C   UNL     1      -2.652  -6.061  -0.767  0.00  0.00    +0.000 C 
ATOM      6  C   UNL     1      -1.850  -6.446   0.498  0.00  0.00    +0.000 C 
ATOM      7  C   UNL     1      -2.155  -5.460   1.633  0.00  0.00    +0.000 C 
ATOM      8  C   UNL     1      -1.928  -4.030   1.215  0.00  0.00    +0.000 C 
ENDROOT
BRANCH   1  16
ATOM      9  C   UNL     1       2.571  -1.519   0.025  0.00  0.00    +0.000 C 
ATOM     10  C   UNL     1       1.635  -0.363   0.001  0.00  0.00    +0.000 A 
ATOM     11  C   UNL     1       1.964   0.976  -0.018  0.00  0.00    +0.000 A 
ATOM     12  N   UNL     1       0.803   1.707  -0.003  0.00  0.00    +0.000 N 
ATOM     13  C   UNL     1      -0.289   0.870   0.011  0.00  0.00    +0.000 A 
ATOM     14  C   UNL     1      -1.664   1.144   0.032  0.00  0.00    +0.000 A 
ATOM     15  C   UNL     1      -2.552   0.052  -0.007  0.00  0.00    +0.000 A 
ATOM     16  C   UNL     1      -2.089  -1.268  -0.077  0.00  0.00    +0.000 A 
ATOM     17  C   UNL     1      -0.707  -1.491  -0.087  0.00  0.00    +0.000 A 
ATOM     18  C   UNL     1       0.209  -0.428  -0.023  0.00  0.00    +0.000 A 
ATOM     19  H   UNL     1       0.754   2.715  -0.017  0.00  0.00    +0.000 HD
ENDBRANCH   1  16
BRANCH   6  20
ATOM     20  N   UNL     1      -0.396  -6.692   0.206  0.00  0.00    +0.000 N 
ATOM     21  C   UNL     1       0.472  -5.751  -0.344  0.00  0.00    +0.000 C 
ATOM     22  O   UNL     1       0.648  -4.589  -0.002  0.00  0.00    +0.000 OA
ATOM     23  O   UNL     1       1.158  -6.217  -1.415  0.00  0.00    +0.000 OA
ATOM     24  C   UNL     1       2.108  -7.169  -0.991  0.00  0.00    +0.000 C 
ATOM     25  C   UNL     1       1.459  -8.215  -0.140  0.00  0.00    +0.000 A 
ATOM     26  C   UNL     1       2.139  -9.409   0.098  0.00  0.00    +0.000 A 
ATOM     27  C   UNL     1       1.564 -10.379   0.906  0.00  0.00    +0.000 A 
ATOM     28  C   UNL     1       0.318 -10.151   1.484  0.00  0.00    +0.000 A 
ATOM     29  C   UNL     1      -0.368  -8.955   1.251  0.00  0.00    +0.000 A 
ATOM     30  C   UNL     1       0.193  -7.975   0.431  0.00  0.00    +0.000 A 
ENDBRANCH   6  20
TORSDOF 2
