REMARK  Name = CHEMBL287293
REMARK  3 active torsions:
REMARK  status: ('A' for Active; 'I' for Inactive)
REMARK    1  A    between atoms: C_1  and  N_2
REMARK    2  A    between atoms: C_7  and  C_8
REMARK    3  A    between atoms: C_13  and  N_14
REMARK                            x       y       z     vdW  Elec       q    Type
REMARK                         _______ _______ _______ _____ _____    ______ ____
ROOT
ATOM      1  C   UNL     1      -4.079  -0.309   0.021  0.00  0.00    +0.000 C 
ATOM      2  O   UNL     1      -4.536  -1.439   0.174  0.00  0.00    +0.000 OA
ATOM      3  N   UNL     1      -4.912   0.790  -0.163  0.00  0.00    +0.000 N 
ATOM      4  C   UNL     1      -5.846   1.244   0.873  0.00  0.00    +0.000 C 
ATOM      5  C   UNL     1      -7.207   1.586   0.280  0.00  0.00    +0.000 C 
ATOM      6  C   UNL     1      -7.076   2.542  -0.928  0.00  0.00    +0.000 C 
ATOM      7  C   UNL     1      -6.117   1.946  -1.966  0.00  0.00    +0.000 C 
ATOM      8  C   UNL     1      -4.776   1.591  -1.368  0.00  0.00    +0.000 C 
ENDROOT
BRANCH   6   9
ATOM      9  N   UNL     1      -6.806   3.964  -0.523  0.00  0.00    +0.000 N 
ATOM     10  C   UNL     1      -5.695   4.376   0.217  0.00  0.00    +0.000 C 
ATOM     11  O   UNL     1      -4.519   4.069   0.063  0.00  0.00    +0.000 OA
ATOM     12  O   UNL     1      -6.018   5.164   1.272  0.00  0.00    +0.000 OA
ATOM     13  C   UNL     1      -6.477   6.418   0.819  0.00  0.00    +0.000 C 
ATOM     14  C   UNL     1      -7.557   6.248  -0.202  0.00  0.00    +0.000 A 
ATOM     15  C   UNL     1      -8.363   7.343  -0.519  0.00  0.00    +0.000 A 
ATOM     16  C   UNL     1      -9.352   7.214  -1.482  0.00  0.00    +0.000 A 
ATOM     17  C   UNL     1      -9.529   5.997  -2.134  0.00  0.00    +0.000 A 
ATOM     18  C   UNL     1      -8.724   4.897  -1.821  0.00  0.00    +0.000 A 
ATOM     19  C   UNL     1      -7.729   5.008  -0.846  0.00  0.00    +0.000 A 
ENDBRANCH   6   9
BRANCH   1  26
ATOM     20  C   UNL     1       2.423   1.480  -0.042  0.00  0.00    +0.000 C 
ATOM     21  N   UNL     1       1.552   0.326  -0.003  0.00  0.00    +0.000 N 
ATOM     22  C   UNL     1       1.968  -0.978   0.004  0.00  0.00    +0.000 A 
ATOM     23  C   UNL     1       0.845  -1.779  -0.004  0.00  0.00    +0.000 A 
ATOM     24  C   UNL     1      -0.301  -0.934  -0.007  0.00  0.00    +0.000 A 
ATOM     25  C   UNL     1      -1.701  -1.161  -0.020  0.00  0.00    +0.000 A 
ATOM     26  C   UNL     1      -2.588  -0.069  -0.003  0.00  0.00    +0.000 A 
ATOM     27  C   UNL     1      -2.060   1.227   0.053  0.00  0.00    +0.000 A 
ATOM     28  C   UNL     1      -0.688   1.479   0.034  0.00  0.00    +0.000 A 
ATOM     29  C   UNL     1       0.173   0.381   0.009  0.00  0.00    +0.000 A 
ENDBRANCH   1  26
TORSDOF 2
