REMARK  Name = CHEMBL1091770
REMARK  7 active torsions:
REMARK  status: ('A' for Active; 'I' for Inactive)
REMARK    1  A    between atoms: C_1  and  C_2
REMARK    2  A    between atoms: C_2  and  N_3
REMARK    3  A    between atoms: N_3  and  C_19
REMARK    4  A    between atoms: C_4  and  C_6
REMARK    5  A    between atoms: C_9  and  C_10
REMARK    6  A    between atoms: C_22  and  O_23
REMARK    7  A    between atoms: O_23  and  C_24
REMARK                            x       y       z     vdW  Elec       q    Type
REMARK                         _______ _______ _______ _____ _____    ______ ____
ROOT
ATOM      1  C   UNL     1       0.622  -2.454   0.294  0.00  0.00    +0.000 A 
ATOM      2  C   UNL     1      -0.150  -2.795   1.348  0.00  0.00    +0.000 A 
ATOM      3  C   UNL     1      -1.583  -2.551   1.355  0.00  0.00    +0.000 A 
ATOM      4  C   UNL     1      -2.144  -1.861   0.348  0.00  0.00    +0.000 A 
ATOM      5  N   UNL     1      -1.371  -1.516  -0.732  0.00  0.00    +0.000 N 
ATOM      6  C   UNL     1      -0.077  -1.965  -0.935  0.00  0.00    +0.000 A 
ATOM      7  O   UNL     1       0.486  -1.823  -2.006  0.00  0.00    +0.000 OA
ATOM      8  H   UNL     1      -1.776  -0.954  -1.472  0.00  0.00    +0.000 HD
ENDROOT
BRANCH   4   9
ATOM      9  C   UNL     1      -3.573  -1.518   0.294  0.00  0.00    +0.000 A 
ATOM     10  C   UNL     1      -4.318  -1.873  -0.842  0.00  0.00    +0.000 A 
ATOM     11  C   UNL     1      -5.642  -1.458  -0.981  0.00  0.00    +0.000 A 
ATOM     12  C   UNL     1      -6.257  -0.751   0.049  0.00  0.00    +0.000 A 
ATOM     13  C   UNL     1      -5.536  -0.419   1.196  0.00  0.00    +0.000 A 
ATOM     14  C   UNL     1      -4.195  -0.790   1.315  0.00  0.00    +0.000 A 
ENDBRANCH   4   9
BRANCH   1  16
ATOM     15  N   UNL     1       2.971  -1.447   0.306  0.00  0.00    +0.000 N 
ATOM     16  C   UNL     1       2.112  -2.568   0.423  0.00  0.00    +0.000 C 
ATOM     17  O   UNL     1       2.532  -3.678   0.780  0.00  0.00    +0.000 OA
BRANCH  15  18
ATOM     18  C   UNL     1       4.414  -1.686   0.345  0.00  0.00    +0.000 A 
ATOM     19  C   UNL     1       5.296  -0.789   0.957  0.00  0.00    +0.000 A 
ATOM     20  C   UNL     1       6.668  -1.056   1.020  0.00  0.00    +0.000 A 
ATOM     21  C   UNL     1       7.165  -2.210   0.440  0.00  0.00    +0.000 A 
ATOM     22  N   UNL     1       6.358  -3.078  -0.202  0.00  0.00    +0.000 NA
ATOM     23  C   UNL     1       5.018  -2.809  -0.225  0.00  0.00    +0.000 A 
BRANCH  21  24
ATOM     24  O   UNL     1       8.482  -2.586   0.461  0.00  0.00    +0.000 OA
ATOM     25  C   UNL     1       9.377  -1.728   1.160  0.00  0.00    +0.000 C 
ENDBRANCH  21  24
ENDBRANCH  15  18
BRANCH  15  27
ATOM     26  C   UNL     1       1.175   0.402   0.167  0.00  0.00    +0.000 C 
ATOM     27  C   UNL     1       2.618  -0.012   0.059  0.00  0.00    +0.000 C 
ENDBRANCH  15  27
ENDBRANCH   1  16
TORSDOF 5
