REMARK  Name = CHEMBL3815099
REMARK  24 active torsions:
REMARK  status: ('A' for Active; 'I' for Inactive)
REMARK    1  A    between atoms: C_1  and  C_2
REMARK    2  A    between atoms: C_2  and  C_3
REMARK    3  A    between atoms: C_3  and  C_4
REMARK    4  A    between atoms: C_3  and  C_5
REMARK    5  A    between atoms: C_9  and  C_10
REMARK    6  A    between atoms: C_10  and  C_11
REMARK    7  A    between atoms: C_14  and  O_15
REMARK    8  A    between atoms: C_26  and  C_27
REMARK    9  A    between atoms: C_33  and  C_34
REMARK   10  A    between atoms: N_36  and  C_37
REMARK   11  A    between atoms: N_36  and  C_38
REMARK   12  A    between atoms: C_38  and  C_39
REMARK   13  A    between atoms: C_38  and  C_43
REMARK   14  A    between atoms: C_39  and  C_40
REMARK   15  A    between atoms: C_40  and  C_41
REMARK   16  A    between atoms: C_40  and  C_42
REMARK   17  A    between atoms: N_45  and  C_46
REMARK   18  A    between atoms: N_45  and  C_47
REMARK   19  A    between atoms: C_47  and  C_48
REMARK   20  A    between atoms: C_54  and  C_55
REMARK   21  A    between atoms: C_55  and  C_56
REMARK   22  A    between atoms: C_62  and  C_63
REMARK   23  A    between atoms: C_63  and  C_64
REMARK   24  A    between atoms: C_64  and  C_65
REMARK                            x       y       z     vdW  Elec       q    Type
REMARK                         _______ _______ _______ _____ _____    ______ ____
ROOT
ATOM      1  C   UNL     1       4.998   1.186  -2.626  0.00  0.00    +0.000 C 
ATOM      2  N   UNL     1       5.080   2.062  -4.317  0.00  0.00    +0.000 N 
ATOM      3  C   UNL     1       4.713   3.093  -5.382  0.00  0.00    +0.000 C 
ATOM      4  O   UNL     1       4.435   2.582  -6.498  0.00  0.00    +0.000 OA
ATOM      5  C   UNL     1       4.759   4.866  -5.409  0.00  0.00    +0.000 C 
ATOM      6  N   UNL     1       5.328   5.467  -6.674  0.00  0.00    +0.000 N 
ATOM      7  C   UNL     1       4.753   6.047  -7.778  0.00  0.00    +0.000 C 
ATOM      8  O   UNL     1       5.503   6.723  -8.500  0.00  0.00    +0.000 OA
ATOM      9  C   UNL     1       3.266   5.962  -8.185  0.00  0.00    +0.000 C 
ATOM     10  C   UNL     1       2.265   5.219  -7.332  0.00  0.00    +0.000 C 
ATOM     11  S   UNL     1       0.448   5.586  -7.637  0.00  0.00    +0.000 S 
ATOM     12  S   UNL     1      -0.555   5.078  -5.841  0.00  0.00    +0.000 S 
ATOM     13  C   UNL     1      -1.923   3.687  -6.067  0.00  0.00    +0.000 C 
ATOM     14  C   UNL     1      -2.422   2.786  -4.963  0.00  0.00    +0.000 C 
ATOM     15  N   UNL     1      -1.863   1.393  -5.060  0.00  0.00    +0.000 N 
ATOM     16  C   UNL     1      -0.583   1.058  -5.041  0.00  0.00    +0.000 C 
ATOM     17  O   UNL     1      -0.183  -0.137  -5.007  0.00  0.00    +0.000 OA
ATOM     18  C   UNL     1       0.294   2.182  -4.753  0.00  0.00    +0.000 C 
ATOM     19  N   UNL     1       0.334   1.775  -3.358  0.00  0.00    +0.000 N 
ATOM     20  C   UNL     1       0.907   0.715  -2.710  0.00  0.00    +0.000 C 
ATOM     21  O   UNL     1       0.658   0.998  -1.509  0.00  0.00    +0.000 OA
ATOM     22  C   UNL     1       2.286  -0.329  -3.553  0.00  0.00    +0.000 C 
ATOM     23  N   UNL     1       3.994  -0.438  -3.941  0.00  0.00    +0.000 N 
ATOM     24  C   UNL     1       5.193  -0.088  -3.278  0.00  0.00    +0.000 C 
ATOM     25  O   UNL     1       6.390  -0.371  -3.582  0.00  0.00    +0.000 OA
ATOM     26  H   UNL     1       5.062   1.297  -5.011  0.00  0.00    +0.000 HD
ATOM     27  H   UNL     1       6.297   5.769  -6.595  0.00  0.00    +0.000 HD
ATOM     28  H   UNL     1      -2.481   0.579  -5.008  0.00  0.00    +0.000 HD
ATOM     29  H   UNL     1       0.402   2.556  -2.738  0.00  0.00    +0.000 HD
ATOM     30  H   UNL     1       4.124  -0.168  -4.903  0.00  0.00    +0.000 HD
ENDROOT
BRANCH  14  31
ATOM     31  C   UNL     1      -3.894   2.543  -5.150  0.00  0.00    +0.000 C 
ATOM     32  O   UNL     1      -4.231   1.389  -4.868  0.00  0.00    +0.000 OA
ATOM     33  N   UNL     1      -4.750   3.606  -5.388  0.00  0.00    +0.000 N 
ATOM     34  C   UNL     1      -4.623   4.808  -6.196  0.00  0.00    +0.000 C 
ATOM     35  C   UNL     1      -5.244   5.847  -5.320  0.00  0.00    +0.000 C 
ATOM     36  C   UNL     1      -6.476   5.148  -4.854  0.00  0.00    +0.000 C 
ATOM     37  C   UNL     1      -6.122   3.656  -4.869  0.00  0.00    +0.000 C 
BRANCH  37  38
ATOM     38  C   UNL     1      -7.241   3.113  -5.818  0.00  0.00    +0.000 C 
ATOM     39  O   UNL     1      -7.030   2.917  -7.016  0.00  0.00    +0.000 OA
ATOM     40  N   UNL     1      -8.430   2.744  -5.161  0.00  0.00    +0.000 N 
ATOM     41  C   UNL     1      -8.818   3.351  -3.896  0.00  0.00    +0.000 C 
BRANCH  40  42
ATOM     42  C   UNL     1      -9.333   1.714  -5.761  0.00  0.00    +0.000 C 
BRANCH  42  43
ATOM     43  C   UNL     1     -10.800   1.727  -5.163  0.00  0.00    +0.000 C 
ATOM     44  O   UNL     1     -11.143   2.377  -4.173  0.00  0.00    +0.000 OA
ATOM     45  N   UNL     1     -11.745   0.940  -5.783  0.00  0.00    +0.000 N 
ATOM     46  C   UNL     1     -11.445   0.191  -6.961  0.00  0.00    +0.000 C 
BRANCH  45  47
ATOM     47  C   UNL     1     -13.111   0.897  -5.221  0.00  0.00    +0.000 C 
BRANCH  47  48
ATOM     48  C   UNL     1     -14.232   0.021  -5.853  0.00  0.00    +0.000 C 
ATOM     49  N   UNL     1     -13.999  -0.778  -6.937  0.00  0.00    +0.000 N 
ATOM     50  O   UNL     1     -15.374   0.017  -5.391  0.00  0.00    +0.000 OA
ATOM     51  H   UNL     1     -13.150  -0.923  -7.443  0.00  0.00    +0.000 HD
ATOM     52  H   UNL     1     -14.756  -1.320  -7.321  0.00  0.00    +0.000 HD
ENDBRANCH  47  48
ENDBRANCH  45  47
ENDBRANCH  42  43
BRANCH  42  53
ATOM     53  C   UNL     1      -8.775   0.222  -5.656  0.00  0.00    +0.000 C 
BRANCH  53  54
ATOM     54  C   UNL     1      -7.458  -0.047  -6.364  0.00  0.00    +0.000 C 
ATOM     55  C   UNL     1      -6.376   0.525  -5.539  0.00  0.00    +0.000 C 
ATOM     56  C   UNL     1      -7.006  -1.489  -6.425  0.00  0.00    +0.000 C 
ENDBRANCH  53  54
ENDBRANCH  42  53
ENDBRANCH  40  42
ENDBRANCH  37  38
ENDBRANCH  14  31
BRANCH   1  57
ATOM     57  C   UNL     1       3.780   0.351  -1.472  0.00  0.00    +0.000 C 
ATOM     58  C   UNL     1       3.085  -0.011   0.117  0.00  0.00    +0.000 C 
BRANCH  57  60
ATOM     59  C   UNL     1       2.822   1.920  -3.437  0.00  0.00    +0.000 C 
ATOM     60  C   UNL     1       3.118   1.581  -1.803  0.00  0.00    +0.000 C 
ENDBRANCH  57  60
ENDBRANCH   1  57
BRANCH  18  61
ATOM     61  C   UNL     1       1.457   2.321  -5.834  0.00  0.00    +0.000 C 
BRANCH  61  62
ATOM     62  C   UNL     1       1.129   2.452  -7.294  0.00  0.00    +0.000 C 
ATOM     63  N   UNL     1      -0.108   2.726  -7.513  0.00  0.00    +0.000 N 
ATOM     64  O   UNL     1       1.972   2.588  -8.270  0.00  0.00    +0.000 OA
ATOM     65  H   UNL     1      -0.280   3.197  -6.647  0.00  0.00    +0.000 HD
ATOM     66  H   UNL     1      -0.286   3.477  -8.192  0.00  0.00    +0.000 HD
ENDBRANCH  61  62
ENDBRANCH  18  61
BRANCH   5  67
ATOM     67  C   UNL     1       3.724   6.023  -4.897  0.00  0.00    +0.000 C 
BRANCH  67  68
ATOM     68  C   UNL     1       2.660   5.628  -3.951  0.00  0.00    +0.000 A 
ATOM     69  C   UNL     1       3.033   4.601  -3.203  0.00  0.00    +0.000 A 
ATOM     70  C   UNL     1       2.215   4.183  -2.177  0.00  0.00    +0.000 A 
ATOM     71  C   UNL     1       0.919   4.513  -1.983  0.00  0.00    +0.000 A 
ATOM     72  C   UNL     1       0.539   5.597  -2.684  0.00  0.00    +0.000 A 
ATOM     73  C   UNL     1       1.436   6.206  -3.605  0.00  0.00    +0.000 A 
BRANCH  71  74
ATOM     74  O   UNL     1      -0.014   3.794  -1.303  0.00  0.00    +0.000 OA
ATOM     75  H   UNL     1       0.110   2.827  -1.144  0.00  0.00    +0.000 HD
ENDBRANCH  71  74
ENDBRANCH  67  68
ENDBRANCH   5  67
BRANCH  22  76
ATOM     76  C   UNL     1       2.029  -1.613  -3.014  0.00  0.00    +0.000 C 
BRANCH  76  77
ATOM     77  C   UNL     1       2.203  -2.573  -4.099  0.00  0.00    +0.000 C 
BRANCH  77  78
ATOM     78  C   UNL     1       1.553  -3.713  -3.439  0.00  0.00    +0.000 C 
ATOM     79  N   UNL     1       0.958  -3.569  -2.204  0.00  0.00    +0.000 N 
ATOM     80  O   UNL     1       1.574  -4.849  -4.018  0.00  0.00    +0.000 OA
ATOM     81  H   UNL     1       0.952  -2.738  -1.599  0.00  0.00    +0.000 HD
ATOM     82  H   UNL     1       0.518  -4.341  -1.753  0.00  0.00    +0.000 HD
ENDBRANCH  77  78
ENDBRANCH  76  77
ENDBRANCH  22  76
TORSDOF 18
