REMARK  Name = CHEMBL372978
REMARK  12 active torsions:
REMARK  status: ('A' for Active; 'I' for Inactive)
REMARK    1  A    between atoms: CD1_1  and  CG_2
REMARK    2  A    between atoms: CG_2  and  CD2_3
REMARK    3  A    between atoms: CG_2  and  CB_4
REMARK    4  A    between atoms: CB_4  and  CA_5
REMARK    5  A    between atoms: C_9  and  C_10
REMARK    6  A    between atoms: N_21  and  C_22
REMARK    7  A    between atoms: C_22  and  C_23
REMARK    8  A    between atoms: C_22  and  C_30
REMARK    9  A    between atoms: N_25  and  C_26
REMARK   10  A    between atoms: N_25  and  C_27
REMARK   11  A    between atoms: C_27  and  C_28
REMARK   12  A    between atoms: C_27  and  C_29
REMARK                            x       y       z     vdW  Elec       q    Type
REMARK                         _______ _______ _______ _____ _____    ______ ____
ROOT
ATOM      1  CA  LEU A   2       4.993  -0.655  -1.015  0.00  0.00    +0.000 C 
ATOM      2  C   LEU A   2       5.238  -1.815  -2.086  0.00  0.00    +0.000 C 
ATOM      3  O   LEU A   2       4.531  -2.241  -2.964  0.00  0.00    +0.000 OA
ATOM      4  N   UNK A   1       6.466  -2.330  -1.898  0.00  0.00    +0.000 N 
ATOM      5  C   UNK A   1       7.378  -1.714  -0.961  0.00  0.00    +0.000 C 
ATOM      6  C   UNK A   1       6.756  -1.469   0.388  0.00  0.00    +0.000 C 
ATOM      7  O   UNK A   1       7.395  -1.532   1.398  0.00  0.00    +0.000 OA
ATOM      8  N   LEU A   2       5.436  -1.124   0.267  0.00  0.00    +0.000 N 
ATOM      9  H   UNK A   1       6.666  -3.086  -2.539  0.00  0.00    +0.000 HD
ENDROOT
BRANCH   5  10
ATOM     10  C   UNK A   1       8.524  -2.628  -0.608  0.00  0.00    +0.000 C 
ATOM     11  C   UNK A   1       9.272  -2.866  -1.902  0.00  0.00    +0.000 C 
ATOM     12  C   UNK A   1       8.585  -4.110  -2.386  0.00  0.00    +0.000 A 
ATOM     13  C   UNK A   1       8.419  -4.492  -3.703  0.00  0.00    +0.000 A 
ATOM     14  C   UNK A   1       7.590  -5.581  -3.974  0.00  0.00    +0.000 A 
ATOM     15  C   UNK A   1       6.909  -6.249  -2.941  0.00  0.00    +0.000 A 
ATOM     16  C   UNK A   1       7.022  -5.820  -1.618  0.00  0.00    +0.000 A 
ATOM     17  C   UNK A   1       7.867  -4.754  -1.355  0.00  0.00    +0.000 A 
ATOM     18  C   UNK A   1       8.019  -4.004  -0.068  0.00  0.00    +0.000 C 
ENDBRANCH   5  10
BRANCH   1  19
ATOM     19  CB  LEU A   2       3.564  -0.471  -1.045  0.00  0.00    +0.000 C 
BRANCH  19  21
ATOM     20  CD1 LEU A   2       0.836   0.585   0.085  0.00  0.00    +0.000 C 
ATOM     21  CG  LEU A   2       2.434   0.551  -0.017  0.00  0.00    +0.000 C 
ATOM     22  CD2 LEU A   2       2.643   0.428   1.445  0.00  0.00    +0.000 C 
ENDBRANCH  19  21
ENDBRANCH   1  19
BRANCH   8  23
ATOM     23  C   UNK A   0       4.525  -1.495   1.319  0.00  0.00    +0.000 C 
BRANCH  23  24
ATOM     24  C   UNK A   0       5.097  -1.414   2.778  0.00  0.00    +0.000 A 
ATOM     25  C   UNK A   0       4.646  -2.234   3.783  0.00  0.00    +0.000 A 
ATOM     26  C   UNK A   0       5.177  -2.108   5.053  0.00  0.00    +0.000 A 
ATOM     27  C   UNK A   0       6.243  -1.238   5.303  0.00  0.00    +0.000 A 
ATOM     28  C   UNK A   0       6.643  -0.311   4.355  0.00  0.00    +0.000 A 
ATOM     29  C   UNK A   0       5.995  -0.332   3.134  0.00  0.00    +0.000 A 
ENDBRANCH  23  24
BRANCH  23  30
ATOM     30  C   UNK A   0       3.009  -2.357   0.958  0.00  0.00    +0.000 C 
ATOM     31  O   UNK A   0       2.757  -3.274   1.768  0.00  0.00    +0.000 OA
ATOM     32  N   UNK A   0       1.854  -2.047  -0.128  0.00  0.00    +0.000 N 
ATOM     33  C   UNK A   0       1.529  -1.163  -1.660  0.00  0.00    +0.000 C 
BRANCH  32  34
ATOM     34  C   UNK A   0       0.816  -3.042   0.010  0.00  0.00    +0.000 C 
ATOM     35  C   UNK A   0      -0.031  -2.807   1.259  0.00  0.00    +0.000 C 
ATOM     36  C   UNK A   0      -0.062  -2.976  -1.234  0.00  0.00    +0.000 C 
ENDBRANCH  32  34
ENDBRANCH  23  30
ENDBRANCH   8  23
TORSDOF 7
