REMARK  Name = CHEMBL609848
REMARK  9 active torsions:
REMARK  status: ('A' for Active; 'I' for Inactive)
REMARK    1  A    between atoms: C_1  and  O_2
REMARK    2  A    between atoms: O_2  and  C_3
REMARK    3  A    between atoms: C_3  and  C_4
REMARK    4  A    between atoms: C_11  and  O_12
REMARK    5  A    between atoms: O_12  and  C_13
REMARK    6  A    between atoms: C_20  and  C_21
REMARK    7  A    between atoms: N_23  and  C_24
REMARK    8  A    between atoms: C_27  and  O_28
REMARK    9  A    between atoms: O_28  and  C_29
REMARK                            x       y       z     vdW  Elec       q    Type
REMARK                         _______ _______ _______ _____ _____    ______ ____
ROOT
ATOM      1  C   UNL     1       4.484  -0.815  -1.095  0.00  0.00    +0.000 A 
ATOM      2  N   UNL     1       5.325  -0.902  -0.075  0.00  0.00    +0.000 NA
ATOM      3  N   UNL     1       6.608  -1.045  -0.566  0.00  0.00    +0.000 NA
ATOM      4  C   UNL     1       6.569  -1.023  -1.894  0.00  0.00    +0.000 A 
ATOM      5  N   UNL     1       7.616  -0.912  -2.747  0.00  0.00    +0.000 N 
ATOM      6  C   UNL     1       7.620   0.041  -3.819  0.00  0.00    +0.000 C 
ATOM      7  C   UNL     1       7.972  -0.843  -4.981  0.00  0.00    +0.000 C 
ATOM      8  C   UNL     1       9.109  -1.709  -4.526  0.00  0.00    +0.000 C 
ATOM      9  C   UNL     1       8.634  -1.959  -3.031  0.00  0.00    +0.000 C 
ATOM     10  N   UNL     1       5.226  -0.899  -2.262  0.00  0.00    +0.000 N 
ENDROOT
BRANCH  10  11
ATOM     11  C   UNL     1       4.690  -0.941  -3.567  0.00  0.00    +0.000 A 
ATOM     12  C   UNL     1       3.917   0.117  -4.032  0.00  0.00    +0.000 A 
ATOM     13  C   UNL     1       3.417   0.058  -5.328  0.00  0.00    +0.000 A 
ATOM     14  C   UNL     1       3.633  -1.086  -6.084  0.00  0.00    +0.000 A 
ATOM     15  N   UNL     1       4.423  -2.098  -5.653  0.00  0.00    +0.000 NA
ATOM     16  C   UNL     1       4.962  -1.997  -4.415  0.00  0.00    +0.000 A 
BRANCH  14  17
ATOM     17  O   UNL     1       3.066  -1.321  -7.306  0.00  0.00    +0.000 OA
ATOM     18  C   UNL     1       2.168  -0.327  -7.786  0.00  0.00    +0.000 C 
ENDBRANCH  14  17
ENDBRANCH  10  11
BRANCH   1  19
ATOM     19  C   UNL     1       2.983  -0.885  -1.060  0.00  0.00    +0.000 C 
BRANCH  19  21
ATOM     20  C   UNL     1       1.027  -0.080  -0.022  0.00  0.00    +0.000 C 
ATOM     21  O   UNL     1       2.456  -0.062  -0.016  0.00  0.00    +0.000 OA
ENDBRANCH  19  21
ENDBRANCH   1  19
BRANCH   8  22
ATOM     22  O   UNL     1      10.360  -0.956  -4.639  0.00  0.00    +0.000 OA
BRANCH  22  23
ATOM     23  C   UNL     1      10.931  -0.741  -5.895  0.00  0.00    +0.000 A 
ATOM     24  C   UNL     1      12.186  -1.352  -6.097  0.00  0.00    +0.000 A 
ATOM     25  C   UNL     1      12.944  -1.077  -7.247  0.00  0.00    +0.000 A 
ATOM     26  F   UNL     1      14.143  -1.653  -7.414  0.00  0.00    +0.000 F 
ATOM     27  C   UNL     1      12.498  -0.206  -8.220  0.00  0.00    +0.000 A 
ATOM     28  C   UNL     1      11.285   0.413  -8.026  0.00  0.00    +0.000 A 
ATOM     29  F   UNL     1      10.856   1.268  -8.968  0.00  0.00    +0.000 F 
ATOM     30  C   UNL     1      10.505   0.207  -6.875  0.00  0.00    +0.000 A 
ATOM     31  C   UNL     1       9.281   1.082  -6.883  0.00  0.00    +0.000 C 
ENDBRANCH  22  23
ENDBRANCH   8  22
TORSDOF 6
