REMARK  Name = CHEMBL65950
REMARK  8 active torsions:
REMARK  status: ('A' for Active; 'I' for Inactive)
REMARK    1  A    between atoms: C_1  and  O_2
REMARK    2  A    between atoms: O_2  and  C_3
REMARK    3  A    between atoms: C_5  and  O_6
REMARK    4  A    between atoms: O_6  and  C_7
REMARK    5  A    between atoms: C_11  and  C_13
REMARK    6  A    between atoms: C_19  and  C_20
REMARK    7  A    between atoms: C_25  and  C_26
REMARK    8  A    between atoms: C_31  and  N_32
REMARK                            x       y       z     vdW  Elec       q    Type
REMARK                         _______ _______ _______ _____ _____    ______ ____
ROOT
ATOM      1  C   UNL     1       3.090  -0.268   0.976  0.00  0.00    +0.000 A 
ATOM      2  C   UNL     1       4.317   0.342   1.427  0.00  0.00    +0.000 A 
ATOM      3  C   UNL     1       5.077  -0.282   2.348  0.00  0.00    +0.000 A 
ATOM      4  C   UNL     1       4.388  -1.342   2.839  0.00  0.00    +0.000 A 
ATOM      5  C   UNL     1       3.251  -2.032   2.473  0.00  0.00    +0.000 A 
ATOM      6  C   UNL     1       2.530  -1.497   1.461  0.00  0.00    +0.000 A 
ENDROOT
BRANCH   6   7
ATOM      7  C   UNL     1       1.255  -2.289   1.176  0.00  0.00    +0.000 C 
ATOM      8  O   UNL     1       0.977  -3.219   1.948  0.00  0.00    +0.000 OA
ATOM      9  N   UNL     1       0.343  -1.903   0.148  0.00  0.00    +0.000 N 
ATOM     10  C   UNL     1      -0.923  -1.243   0.583  0.00  0.00    +0.000 C 
ATOM     11  C   UNL     1      -2.048  -1.409  -0.454  0.00  0.00    +0.000 C 
ATOM     12  C   UNL     1      -1.854  -0.643  -2.109  0.00  0.00    +0.000 C 
ATOM     13  C   UNL     1      -0.340  -1.566  -2.299  0.00  0.00    +0.000 C 
ATOM     14  C   UNL     1       0.795  -1.559  -1.223  0.00  0.00    +0.000 C 
BRANCH  12  15
ATOM     15  N   UNL     1      -2.628   1.005  -2.349  0.00  0.00    +0.000 N 
ATOM     16  C   UNL     1      -3.672   0.568  -1.541  0.00  0.00    +0.000 C 
ATOM     17  O   UNL     1      -4.303  -0.525  -1.654  0.00  0.00    +0.000 OA
ATOM     18  O   UNL     1      -3.874   1.414  -0.552  0.00  0.00    +0.000 OA
ATOM     19  C   UNL     1      -4.551   2.418  -1.249  0.00  0.00    +0.000 C 
ATOM     20  C   UNL     1      -3.450   3.026  -2.136  0.00  0.00    +0.000 A 
ATOM     21  C   UNL     1      -2.463   4.086  -2.404  0.00  0.00    +0.000 A 
ATOM     22  C   UNL     1      -2.817   5.347  -2.930  0.00  0.00    +0.000 A 
ATOM     23  C   UNL     1      -4.079   5.279  -3.347  0.00  0.00    +0.000 A 
ATOM     24  C   UNL     1      -4.451   3.778  -3.529  0.00  0.00    +0.000 A 
ATOM     25  C   UNL     1      -3.649   2.291  -3.219  0.00  0.00    +0.000 A 
ENDBRANCH  12  15
ENDBRANCH   6   7
BRANCH   1  27
ATOM     26  C   UNL     1       1.299   0.917   0.280  0.00  0.00    +0.000 C 
ATOM     27  O   UNL     1       2.603   0.520  -0.028  0.00  0.00    +0.000 OA
ENDBRANCH   1  27
BRANCH   3  28
ATOM     28  O   UNL     1       6.346   0.057   2.703  0.00  0.00    +0.000 OA
BRANCH  28  29
ATOM     29  C   UNL     1       7.258  -0.816   3.480  0.00  0.00    +0.000 C 
ATOM     30  C   UNL     1       7.559  -2.221   2.892  0.00  0.00    +0.000 C 
ATOM     31  C   UNL     1       6.423  -3.190   3.103  0.00  0.00    +0.000 C 
ATOM     32  N   UNL     1       5.920  -3.099   4.575  0.00  0.00    +0.000 N 
ATOM     33  C   UNL     1       5.422  -4.279   5.119  0.00  0.00    +0.000 C 
ATOM     34  O   UNL     1       5.480  -5.367   4.558  0.00  0.00    +0.000 OA
ATOM     35  C   UNL     1       5.789  -1.724   5.317  0.00  0.00    +0.000 C 
ATOM     36  C   UNL     1       6.962  -0.856   4.994  0.00  0.00    +0.000 C 
BRANCH  33  37
ATOM     37  C   UNL     1       4.912  -4.234   6.503  0.00  0.00    +0.000 A 
ATOM     38  C   UNL     1       5.727  -4.830   7.469  0.00  0.00    +0.000 A 
ATOM     39  C   UNL     1       5.353  -4.786   8.801  0.00  0.00    +0.000 A 
ATOM     40  C   UNL     1       4.177  -4.132   9.149  0.00  0.00    +0.000 A 
ATOM     41  N   UNL     1       3.356  -3.533   8.203  0.00  0.00    +0.000 N 
ATOM     42  O   UNL     1       2.312  -2.926   8.601  0.00  0.00    +0.000 OA
ATOM     43  C   UNL     1       3.707  -3.596   6.859  0.00  0.00    +0.000 A 
ATOM     44  C   UNL     1       2.776  -2.960   5.881  0.00  0.00    +0.000 C 
ENDBRANCH  33  37
ENDBRANCH  28  29
ENDBRANCH   3  28
TORSDOF 6
