REMARK  Name = CHEMBL590099
REMARK  6 active torsions:
REMARK  status: ('A' for Active; 'I' for Inactive)
REMARK    1  A    between atoms: C_1  and  O_2
REMARK    2  A    between atoms: O_2  and  C_3
REMARK    3  A    between atoms: C_6  and  N_7
REMARK    4  A    between atoms: C_8  and  C_9
REMARK    5  A    between atoms: C_15  and  O_16
REMARK    6  A    between atoms: O_16  and  C_17
REMARK                            x       y       z     vdW  Elec       q    Type
REMARK                         _______ _______ _______ _____ _____    ______ ____
ROOT
ATOM      1  N   UNL     1       5.198   4.210   2.675  0.00  0.00    +0.000 N 
ATOM      2  C   UNL     1       5.430   5.527   2.274  0.00  0.00    +0.000 A 
ATOM      3  C   UNL     1       4.933   6.209   1.034  0.00  0.00    +0.000 C 
ATOM      4  N   UNL     1       6.054   6.153   3.252  0.00  0.00    +0.000 NA
ATOM      5  N   UNL     1       6.196   5.284   4.319  0.00  0.00    +0.000 NA
ATOM      6  C   UNL     1       5.693   4.120   3.990  0.00  0.00    +0.000 A 
ATOM      7  N   UNL     1       5.565   2.952   4.715  0.00  0.00    +0.000 N 
ATOM      8  C   UNL     1       5.575   2.767   6.139  0.00  0.00    +0.000 C 
ATOM      9  C   UNL     1       6.765   1.776   6.016  0.00  0.00    +0.000 C 
ATOM     10  C   UNL     1       6.388   1.787   4.515  0.00  0.00    +0.000 C 
ENDROOT
BRANCH   1  14
ATOM     11  C   UNL     1       3.100   1.189   0.730  0.00  0.00    +0.000 A 
ATOM     12  C   UNL     1       2.666   1.606   1.980  0.00  0.00    +0.000 A 
ATOM     13  C   UNL     1       3.356   2.629   2.626  0.00  0.00    +0.000 A 
ATOM     14  C   UNL     1       4.457   3.216   2.002  0.00  0.00    +0.000 A 
ATOM     15  C   UNL     1       4.845   2.728   0.766  0.00  0.00    +0.000 A 
ATOM     16  N   UNL     1       4.190   1.722   0.127  0.00  0.00    +0.000 NA
BRANCH  11  18
ATOM     17  C   UNL     1       1.102   0.111   0.077  0.00  0.00    +0.000 C 
ATOM     18  O   UNL     1       2.527   0.143   0.055  0.00  0.00    +0.000 OA
ENDBRANCH  11  18
ENDBRANCH   1  14
BRANCH   9  19
ATOM     19  O   UNL     1       8.072   2.266   6.466  0.00  0.00    +0.000 OA
BRANCH  19  20
ATOM     20  C   UNL     1       9.120   1.363   6.541  0.00  0.00    +0.000 A 
ATOM     21  C   UNL     1       9.679   1.094   7.805  0.00  0.00    +0.000 A 
ATOM     22  C   UNL     1      10.817   0.271   7.930  0.00  0.00    +0.000 A 
ATOM     23  C   UNL     1      11.386  -0.316   6.804  0.00  0.00    +0.000 A 
ATOM     24  C   UNL     1      10.851  -0.042   5.555  0.00  0.00    +0.000 A 
ATOM     25  C   UNL     1       9.768   0.833   5.417  0.00  0.00    +0.000 A 
ATOM     26 CL   UNL     1       9.461   1.308   3.795  0.00  0.00    +0.000 Cl
ENDBRANCH  19  20
ENDBRANCH   9  19
TORSDOF 4
