REMARK  Name = CHEMBL381433
REMARK  6 active torsions:
REMARK  status: ('A' for Active; 'I' for Inactive)
REMARK    1  A    between atoms: C_1  and  C_2
REMARK    2  A    between atoms: C_5  and  N_6
REMARK    3  A    between atoms: N_6  and  C_7
REMARK    4  A    between atoms: N_6  and  S_20
REMARK    5  A    between atoms: C_7  and  C_8
REMARK    6  A    between atoms: S_20  and  C_23
REMARK                            x       y       z     vdW  Elec       q    Type
REMARK                         _______ _______ _______ _____ _____    ______ ____
ROOT
ATOM      1  N   UNL     1      -3.120   0.074   0.068  0.00  0.00    +0.000 N 
ENDROOT
BRANCH   1   6
ATOM      2  C   UNL     1       2.636   0.126  -0.047  0.00  0.00    +0.000 C 
ATOM      3  C   UNL     1       1.149   0.187  -0.048  0.00  0.00    +0.000 A 
ATOM      4  C   UNL     1       0.476  -0.998   0.077  0.00  0.00    +0.000 A 
ATOM      5  C   UNL     1      -0.871  -0.937   0.346  0.00  0.00    +0.000 A 
ATOM      6  C   UNL     1      -1.671   0.190   0.109  0.00  0.00    +0.000 A 
ATOM      7  C   UNL     1      -0.987   1.382  -0.025  0.00  0.00    +0.000 A 
ATOM      8  C   UNL     1       0.418   1.383  -0.043  0.00  0.00    +0.000 A 
ENDBRANCH   1   6
BRANCH   1   9
ATOM      9  S   UNL     1      -4.113   1.488  -0.070  0.00  0.00    +0.000 S 
ATOM     10  O   UNL     1      -3.908   2.228   1.163  0.00  0.00    +0.000 OA
ATOM     11  O   UNL     1      -3.831   2.118  -1.346  0.00  0.00    +0.000 OA
BRANCH   9  12
ATOM     12  C   UNL     1      -5.902   1.171  -0.097  0.00  0.00    +0.000 A 
ATOM     13  C   UNL     1      -6.785   2.266  -0.045  0.00  0.00    +0.000 A 
ATOM     14  C   UNL     1      -8.172   2.054   0.092  0.00  0.00    +0.000 A 
ATOM     15  C   UNL     1      -8.699   0.763   0.106  0.00  0.00    +0.000 A 
ATOM     16  C   UNL     1      -7.843  -0.312   0.004  0.00  0.00    +0.000 A 
ATOM     17  C   UNL     1      -6.473  -0.096  -0.103  0.00  0.00    +0.000 A 
ENDBRANCH   9  12
ENDBRANCH   1   9
BRANCH   1  18
ATOM     18  C   UNL     1      -3.684  -1.253  -0.113  0.00  0.00    +0.000 C 
BRANCH  18  19
ATOM     19  C   UNL     1      -2.925  -2.565  -0.382  0.00  0.00    +0.000 C 
ATOM     20  O   UNL     1      -1.999  -2.671  -1.196  0.00  0.00    +0.000 OA
ATOM     21  N   UNL     1      -3.447  -3.714   0.214  0.00  0.00    +0.000 N 
ATOM     22  C   UNL     1      -2.697  -4.962   0.027  0.00  0.00    +0.000 C 
ATOM     23  C   UNL     1      -3.484  -6.292   0.001  0.00  0.00    +0.000 C 
ATOM     24  C   UNL     1      -4.987  -6.166   0.019  0.00  0.00    +0.000 A 
ATOM     25  C   UNL     1      -5.868  -7.235  -0.008  0.00  0.00    +0.000 A 
ATOM     26  C   UNL     1      -7.266  -7.006  -0.029  0.00  0.00    +0.000 A 
ATOM     27  C   UNL     1      -7.815  -5.725  -0.027  0.00  0.00    +0.000 A 
ATOM     28  C   UNL     1      -6.958  -4.672   0.005  0.00  0.00    +0.000 A 
ATOM     29  C   UNL     1      -5.582  -4.916   0.029  0.00  0.00    +0.000 A 
ATOM     30  C   UNL     1      -4.821  -3.693  -0.097  0.00  0.00    +0.000 C 
ENDBRANCH  18  19
ENDBRANCH   1  18
TORSDOF 5
