REMARK  Name = CHEMBL427353
REMARK  11 active torsions:
REMARK  status: ('A' for Active; 'I' for Inactive)
REMARK    1  A    between atoms: CD1_1  and  CG_2
REMARK    2  A    between atoms: CG_2  and  CD2_3
REMARK    3  A    between atoms: CG_2  and  CB_4
REMARK    4  A    between atoms: CB_4  and  CA_5
REMARK    5  A    between atoms: C_9  and  C_10
REMARK    6  A    between atoms: N_21  and  C_22
REMARK    7  A    between atoms: C_22  and  C_23
REMARK    8  A    between atoms: C_22  and  C_29
REMARK    9  A    between atoms: N_25  and  C_26
REMARK   10  A    between atoms: C_26  and  C_27
REMARK   11  A    between atoms: C_26  and  C_28
REMARK                            x       y       z     vdW  Elec       q    Type
REMARK                         _______ _______ _______ _____ _____    ______ ____
ROOT
ATOM      1  CA  LEU A   2       2.935   0.375  -3.530  0.00  0.00    +0.000 C 
ATOM      2  C   LEU A   2       1.544   0.925  -3.297  0.00  0.00    +0.000 C 
ATOM      3  O   LEU A   2       1.244   2.060  -2.869  0.00  0.00    +0.000 OA
ATOM      4  N   UNK A   1       0.586   0.081  -3.704  0.00  0.00    +0.000 N 
ATOM      5  C   UNK A   1       0.898  -1.228  -4.259  0.00  0.00    +0.000 C 
ATOM      6  C   UNK A   1       2.063  -1.874  -3.434  0.00  0.00    +0.000 C 
ATOM      7  O   UNK A   1       2.136  -3.099  -3.307  0.00  0.00    +0.000 OA
ATOM      8  N   LEU A   2       3.044  -0.983  -2.947  0.00  0.00    +0.000 N 
ATOM      9  H   UNK A   1      -0.356   0.446  -3.625  0.00  0.00    +0.000 HD
ENDROOT
BRANCH   5  10
ATOM     10  C   UNK A   1      -0.300  -2.195  -4.158  0.00  0.00    +0.000 C 
ATOM     11  C   UNK A   1      -1.570  -1.690  -4.872  0.00  0.00    +0.000 C 
ATOM     12  C   UNK A   1      -2.224  -0.896  -3.781  0.00  0.00    +0.000 A 
ATOM     13  C   UNK A   1      -3.114   0.153  -3.911  0.00  0.00    +0.000 A 
ATOM     14  C   UNK A   1      -3.466   0.863  -2.761  0.00  0.00    +0.000 A 
ATOM     15  C   UNK A   1      -2.918   0.531  -1.511  0.00  0.00    +0.000 A 
ATOM     16  C   UNK A   1      -2.021  -0.530  -1.387  0.00  0.00    +0.000 A 
ATOM     17  C   UNK A   1      -1.704  -1.249  -2.526  0.00  0.00    +0.000 A 
ATOM     18  C   UNK A   1      -0.691  -2.343  -2.661  0.00  0.00    +0.000 C 
ENDBRANCH   5  10
BRANCH   1  19
ATOM     19  CB  LEU A   2       3.907   1.363  -3.033  0.00  0.00    +0.000 C 
BRANCH  19  21
ATOM     20  CD1 LEU A   2       6.050   2.339  -3.385  0.00  0.00    +0.000 C 
ATOM     21  CG  LEU A   2       5.089   1.425  -4.025  0.00  0.00    +0.000 C 
ATOM     22  CD2 LEU A   2       5.817   0.130  -4.389  0.00  0.00    +0.000 C 
ENDBRANCH  19  21
ENDBRANCH   1  19
BRANCH   8  23
ATOM     23  C   UNK A   0       4.266  -1.557  -2.188  0.00  0.00    +0.000 C 
BRANCH  23  24
ATOM     24  C   UNK A   0       4.995  -2.654  -3.081  0.00  0.00    +0.000 A 
ATOM     25  C   UNK A   0       6.070  -3.392  -2.557  0.00  0.00    +0.000 A 
ATOM     26  C   UNK A   0       6.830  -4.233  -3.381  0.00  0.00    +0.000 A 
ATOM     27  C   UNK A   0       6.488  -4.410  -4.716  0.00  0.00    +0.000 A 
ATOM     28  F   UNK A   0       7.228  -5.205  -5.499  0.00  0.00    +0.000 F 
ATOM     29  C   UNK A   0       5.406  -3.749  -5.258  0.00  0.00    +0.000 A 
ATOM     30  C   UNK A   0       4.686  -2.871  -4.450  0.00  0.00    +0.000 A 
ENDBRANCH  23  24
BRANCH  23  31
ATOM     31  C   UNK A   0       5.482  -0.641  -1.367  0.00  0.00    +0.000 C 
ATOM     32  O   UNK A   0       6.687  -0.782  -1.612  0.00  0.00    +0.000 OA
ATOM     33  N   UNK A   0       5.182   0.285  -0.372  0.00  0.00    +0.000 N 
ATOM     34  H   UNK A   0       4.248   0.298   0.022  0.00  0.00    +0.000 HD
BRANCH  33  35
ATOM     35  C   UNK A   0       6.220   1.245   0.164  0.00  0.00    +0.000 C 
ATOM     36  C   UNK A   0       6.607   2.438  -0.708  0.00  0.00    +0.000 C 
ATOM     37  C   UNK A   0       5.738   1.944   1.404  0.00  0.00    +0.000 C 
ENDBRANCH  33  35
ENDBRANCH  23  31
ENDBRANCH   8  23
TORSDOF 7
