REMARK  Name = CHEMBL427227
REMARK  12 active torsions:
REMARK  status: ('A' for Active; 'I' for Inactive)
REMARK    1  A    between atoms: CD1_1  and  CG1_2
REMARK    2  A    between atoms: CG1_2  and  CB_3
REMARK    3  A    between atoms: CB_3  and  CG2_4
REMARK    4  A    between atoms: CB_3  and  CA_5
REMARK    5  A    between atoms: C_9  and  C_10
REMARK    6  A    between atoms: N_21  and  C_22
REMARK    7  A    between atoms: C_22  and  C_23
REMARK    8  A    between atoms: C_22  and  C_29
REMARK    9  A    between atoms: N_25  and  C_26
REMARK   10  A    between atoms: C_26  and  C_27
REMARK   11  A    between atoms: C_26  and  C_28
REMARK   12  A    between atoms: C_32  and  N_33
REMARK                            x       y       z     vdW  Elec       q    Type
REMARK                         _______ _______ _______ _____ _____    ______ ____
ROOT
ATOM      1  CA  ILE A   2       4.713   0.591   1.171  0.00  0.00    +0.000 C 
ATOM      2  C   ILE A   2       5.237   0.306   2.614  0.00  0.00    +0.000 C 
ATOM      3  O   ILE A   2       4.790  -0.379   3.498  0.00  0.00    +0.000 OA
ATOM      4  N   UNK A   1       6.459   0.807   2.846  0.00  0.00    +0.000 N 
ATOM      5  C   UNK A   1       7.285   1.354   1.820  0.00  0.00    +0.000 C 
ATOM      6  C   UNK A   1       6.468   2.357   1.003  0.00  0.00    +0.000 C 
ATOM      7  O   UNK A   1       7.067   3.329   0.565  0.00  0.00    +0.000 OA
ATOM      8  N   ILE A   2       5.115   2.038   0.795  0.00  0.00    +0.000 N 
ATOM      9  H   UNK A   1       6.791   0.550   3.766  0.00  0.00    +0.000 HD
ENDROOT
BRANCH   5  10
ATOM     10  C   UNK A   1       8.444   2.151   2.446  0.00  0.00    +0.000 C 
ATOM     11  C   UNK A   1       9.363   1.273   3.305  0.00  0.00    +0.000 C 
ATOM     12  C   UNK A   1       8.731   1.407   4.658  0.00  0.00    +0.000 A 
ATOM     13  C   UNK A   1       8.826   0.531   5.723  0.00  0.00    +0.000 A 
ATOM     14  C   UNK A   1       8.038   0.775   6.849  0.00  0.00    +0.000 A 
ATOM     15  C   UNK A   1       7.158   1.869   6.891  0.00  0.00    +0.000 A 
ATOM     16  C   UNK A   1       7.060   2.745   5.810  0.00  0.00    +0.000 A 
ATOM     17  C   UNK A   1       7.869   2.513   4.710  0.00  0.00    +0.000 A 
ATOM     18  C   UNK A   1       7.873   3.246   3.402  0.00  0.00    +0.000 C 
ENDBRANCH   5  10
BRANCH   1  19
ATOM     19  CB  ILE A   2       3.228   0.293   1.074  0.00  0.00    +0.000 C 
ATOM     20  CG2 ILE A   2       2.564  -0.079   2.392  0.00  0.00    +0.000 C 
BRANCH  19  22
ATOM     21  CD1 ILE A   2       1.052  -0.249  -0.143  0.00  0.00    +0.000 C 
ATOM     22  CG1 ILE A   2       2.591  -0.394  -0.124  0.00  0.00    +0.000 C 
ENDBRANCH  19  22
ENDBRANCH   1  19
BRANCH   8  23
ATOM     23  C   UNK A   0       4.133   3.103   0.228  0.00  0.00    +0.000 C 
BRANCH  23  24
ATOM     24  C   UNK A   0       4.831   4.356  -0.411  0.00  0.00    +0.000 A 
ATOM     25  C   UNK A   0       4.612   5.660   0.050  0.00  0.00    +0.000 A 
ATOM     26  C   UNK A   0       5.275   6.770  -0.453  0.00  0.00    +0.000 A 
ATOM     27  C   UNK A   0       6.326   6.629  -1.334  0.00  0.00    +0.000 A 
ATOM     28  C   UNK A   0       6.581   5.345  -1.826  0.00  0.00    +0.000 A 
ATOM     29  C   UNK A   0       5.804   4.235  -1.427  0.00  0.00    +0.000 A 
BRANCH  27  30
ATOM     30  N   UNK A   0       7.129   7.699  -1.621  0.00  0.00    +0.000 N 
ATOM     31  C   UNK A   0       7.364   8.137  -2.989  0.00  0.00    +0.000 C 
ATOM     32  C   UNK A   0       8.857   8.460  -3.127  0.00  0.00    +0.000 C 
ATOM     33  O   UNK A   0       9.290   9.425  -2.144  0.00  0.00    +0.000 OA
ATOM     34  C   UNK A   0       9.050   8.925  -0.813  0.00  0.00    +0.000 C 
ATOM     35  C   UNK A   0       7.556   8.646  -0.586  0.00  0.00    +0.000 C 
ENDBRANCH  27  30
ENDBRANCH  23  24
BRANCH  23  36
ATOM     36  C   UNK A   0       2.897   3.548   1.268  0.00  0.00    +0.000 C 
ATOM     37  O   UNK A   0       2.772   4.668   1.763  0.00  0.00    +0.000 OA
ATOM     38  N   UNK A   0       1.900   2.654   1.629  0.00  0.00    +0.000 N 
ATOM     39  H   UNK A   0       1.576   1.985   0.960  0.00  0.00    +0.000 HD
BRANCH  38  40
ATOM     40  C   UNK A   0       0.830   2.960   2.554  0.00  0.00    +0.000 C 
ATOM     41  C   UNK A   0      -0.116   3.880   1.813  0.00  0.00    +0.000 C 
ATOM     42  C   UNK A   0       0.055   1.703   2.968  0.00  0.00    +0.000 C 
ENDBRANCH  38  40
ENDBRANCH  23  36
ENDBRANCH   8  23
TORSDOF 8
