REMARK  Name = CHEMBL457997
REMARK  10 active torsions:
REMARK  status: ('A' for Active; 'I' for Inactive)
REMARK    1  A    between atoms: C_1  and  O_2
REMARK    2  A    between atoms: O_2  and  C_3
REMARK    3  A    between atoms: C_6  and  S_7
REMARK    4  A    between atoms: S_7  and  N_10
REMARK    5  A    between atoms: N_10  and  C_11
REMARK    6  A    between atoms: N_10  and  C_24
REMARK    7  A    between atoms: C_11  and  C_12
REMARK    8  A    between atoms: C_15  and  C_16
REMARK    9  A    between atoms: C_27  and  O_28
REMARK   10  A    between atoms: O_28  and  C_29
REMARK                            x       y       z     vdW  Elec       q    Type
REMARK                         _______ _______ _______ _____ _____    ______ ____
ROOT
ATOM      1  N   UNL     1       4.884  -4.224  -4.799  0.00  0.00    +0.000 N 
ENDROOT
BRANCH   1   2
ATOM      2  C   UNL     1       5.485  -5.163  -5.731  0.00  0.00    +0.000 A 
ATOM      3  C   UNL     1       5.731  -6.490  -5.410  0.00  0.00    +0.000 A 
ATOM      4  C   UNL     1       6.357  -7.316  -6.346  0.00  0.00    +0.000 A 
ATOM      5  C   UNL     1       6.688  -6.819  -7.599  0.00  0.00    +0.000 A 
ATOM      6  N   UNL     1       6.409  -5.548  -7.958  0.00  0.00    +0.000 NA
ATOM      7  C   UNL     1       5.827  -4.759  -7.020  0.00  0.00    +0.000 A 
BRANCH   5   8
ATOM      8  O   UNL     1       7.306  -7.562  -8.572  0.00  0.00    +0.000 OA
ATOM      9  C   UNL     1       7.601  -8.916  -8.234  0.00  0.00    +0.000 C 
ENDBRANCH   5   8
ENDBRANCH   1   2
BRANCH   1  10
ATOM     10  S   UNL     1       5.729  -4.085  -3.288  0.00  0.00    +0.000 S 
ATOM     11  O   UNL     1       7.113  -3.746  -3.528  0.00  0.00    +0.000 OA
ATOM     12  O   UNL     1       5.384  -5.268  -2.515  0.00  0.00    +0.000 OA
BRANCH  10  16
ATOM     13  C   UNL     1       2.445  -1.251  -0.446  0.00  0.00    +0.000 A 
ATOM     14  C   UNL     1       4.024  -1.979   0.134  0.00  0.00    +0.000 A 
ATOM     15  C   UNL     1       5.265  -2.605  -0.866  0.00  0.00    +0.000 A 
ATOM     16  C   UNL     1       5.172  -2.673  -2.384  0.00  0.00    +0.000 A 
ATOM     17  C   UNL     1       3.937  -1.970  -3.125  0.00  0.00    +0.000 A 
ATOM     18  C   UNL     1       2.217  -1.221  -2.331  0.00  0.00    +0.000 A 
BRANCH  13  20
ATOM     19  C   UNL     1       0.673  -0.164   0.115  0.00  0.00    +0.000 C 
ATOM     20  O   UNL     1       1.901  -0.575   0.572  0.00  0.00    +0.000 OA
ENDBRANCH  13  20
ENDBRANCH  10  16
ENDBRANCH   1  10
BRANCH   1  21
ATOM     21  C   UNL     1       3.675  -3.474  -5.395  0.00  0.00    +0.000 C 
BRANCH  21  22
ATOM     22  C   UNL     1       2.616  -2.538  -4.569  0.00  0.00    +0.000 A 
ATOM     23  C   UNL     1       2.446  -3.410  -3.058  0.00  0.00    +0.000 A 
ATOM     24  C   UNL     1       3.129  -2.640  -1.618  0.00  0.00    +0.000 A 
ATOM     25  C   UNL     1       3.902  -0.698  -1.782  0.00  0.00    +0.000 A 
ATOM     26  C   UNL     1       3.747   0.024  -3.445  0.00  0.00    +0.000 A 
ATOM     27  N   UNL     1       3.089  -0.859  -4.761  0.00  0.00    +0.000 NA
BRANCH  25  28
ATOM     28  C   UNL     1       3.549   0.756  -0.983  0.00  0.00    +0.000 A 
ATOM     29  C   UNL     1       2.485   1.709  -1.158  0.00  0.00    +0.000 A 
ATOM     30  C   UNL     1       2.348   2.647  -0.120  0.00  0.00    +0.000 A 
ATOM     31  C   UNL     1       2.982   2.472   1.131  0.00  0.00    +0.000 A 
ATOM     32  C   UNL     1       3.839   1.449   1.349  0.00  0.00    +0.000 A 
ATOM     33  C   UNL     1       4.181   0.755   0.247  0.00  0.00    +0.000 A 
ENDBRANCH  25  28
ENDBRANCH  21  22
ENDBRANCH   1  21
TORSDOF 8
