REMARK  Name = CHEMBL1204126
REMARK  13 active torsions:
REMARK  status: ('A' for Active; 'I' for Inactive)
REMARK    1  A    between atoms: C_2  and  O_3
REMARK    2  A    between atoms: O_3  and  C_4
REMARK    3  A    between atoms: C_7  and  S_8
REMARK    4  A    between atoms: S_8  and  N_11
REMARK    5  A    between atoms: C_20  and  C_21
REMARK    6  A    between atoms: C_21  and  C_22
REMARK    7  A    between atoms: C_22  and  S_23
REMARK    8  A    between atoms: S_23  and  N_26
REMARK    9  A    between atoms: C_29  and  N_30
REMARK   10  A    between atoms: N_30  and  C_31
REMARK   11  A    between atoms: C_31  and  C_32
REMARK   12  A    between atoms: C_40  and  O_41
REMARK   13  A    between atoms: O_41  and  C_42
REMARK                            x       y       z     vdW  Elec       q    Type
REMARK                         _______ _______ _______ _____ _____    ______ ____
ROOT
ATOM      1 BR   UNL     1       1.057   0.074  -0.036  0.00  0.00    +0.000 Br
ATOM      2  H   UNL     1       2.447   0.074  -0.036  0.00  0.00    +0.000 HD
ENDROOT
TORSDOF 0
REMARK  Name = CHEMBL1204126
REMARK  13 active torsions:
REMARK  status: ('A' for Active; 'I' for Inactive)
REMARK    1  A    between atoms: C_2  and  O_3
REMARK    2  A    between atoms: O_3  and  C_4
REMARK    3  A    between atoms: C_7  and  S_8
REMARK    4  A    between atoms: S_8  and  N_11
REMARK    5  A    between atoms: C_20  and  C_21
REMARK    6  A    between atoms: C_21  and  C_22
REMARK    7  A    between atoms: C_22  and  S_23
REMARK    8  A    between atoms: S_23  and  N_26
REMARK    9  A    between atoms: C_29  and  N_30
REMARK   10  A    between atoms: N_30  and  C_31
REMARK   11  A    between atoms: C_31  and  C_32
REMARK   12  A    between atoms: C_40  and  O_41
REMARK   13  A    between atoms: O_41  and  C_42
REMARK                            x       y       z     vdW  Elec       q    Type
REMARK                         _______ _______ _______ _____ _____    ______ ____
ROOT
ATOM      1  N   UNL     1       4.640   4.703   4.435  0.00  0.00    +0.000 N 
ATOM      2  C   UNL     1       5.172   5.746   5.323  0.00  0.00    +0.000 A 
ATOM      3  C   UNL     1       5.076   5.638   6.700  0.00  0.00    +0.000 A 
ATOM      4  C   UNL     1       5.182   6.874   7.381  0.00  0.00    +0.000 A 
ATOM      5  C   UNL     1       5.679   7.979   6.855  0.00  0.00    +0.000 A 
ATOM      6  C   UNL     1       5.813   7.998   5.494  0.00  0.00    +0.000 A 
ATOM      7  C   UNL     1       5.600   6.864   4.747  0.00  0.00    +0.000 A 
ATOM      8  C   UNL     1       5.856   6.890   3.249  0.00  0.00    +0.000 C 
ATOM      9  C   UNL     1       5.548   5.523   2.659  0.00  0.00    +0.000 C 
ATOM     10  C   UNL     1       3.390   4.010   4.781  0.00  0.00    +0.000 C 
ENDROOT
BRANCH   1  11
ATOM     11  S   UNL     1       5.499   4.282   2.957  0.00  0.00    +0.000 S 
ATOM     12  O   UNL     1       6.904   3.788   3.307  0.00  0.00    +0.000 OA
ATOM     13  O   UNL     1       5.601   5.516   2.058  0.00  0.00    +0.000 OA
BRANCH  11  17
ATOM     14  C   UNL     1       3.112   1.155   0.650  0.00  0.00    +0.000 A 
ATOM     15  C   UNL     1       4.248   1.690   0.065  0.00  0.00    +0.000 A 
ATOM     16  C   UNL     1       5.031   2.474   0.945  0.00  0.00    +0.000 A 
ATOM     17  C   UNL     1       4.599   2.974   2.088  0.00  0.00    +0.000 A 
ATOM     18  C   UNL     1       3.435   2.451   2.579  0.00  0.00    +0.000 A 
ATOM     19  C   UNL     1       2.681   1.579   1.832  0.00  0.00    +0.000 A 
BRANCH  14  21
ATOM     20  C   UNL     1       0.982   0.072   0.066  0.00  0.00    +0.000 C 
ATOM     21  O   UNL     1       2.402   0.072   0.066  0.00  0.00    +0.000 OA
ENDBRANCH  14  21
BRANCH  18  22
ATOM     22  O   UNL     1       2.999   2.815   3.881  0.00  0.00    +0.000 OA
ATOM     23  C   UNL     1       1.792   2.278   4.401  0.00  0.00    +0.000 C 
ENDBRANCH  18  22
ENDBRANCH  11  17
ENDBRANCH   1  11
BRANCH  10  24
ATOM     24  C   UNL     1       3.064   2.986   3.706  0.00  0.00    +0.000 C 
BRANCH  24  25
ATOM     25  C   UNL     1       1.772   2.270   4.065  0.00  0.00    +0.000 C 
BRANCH  25  26
ATOM     26  S   UNL     1       1.383   1.051   2.785  0.00  0.00    +0.000 S 
ATOM     27  O   UNL     1       1.217   1.760   1.438  0.00  0.00    +0.000 OA
ATOM     28  O   UNL     1       2.521   0.032   2.688  0.00  0.00    +0.000 OA
BRANCH  26  29
ATOM     29  N   UNL     1      -0.113   0.222   3.199  0.00  0.00    +0.000 NA
ATOM     30  C   UNL     1      -1.243   0.948   2.605  0.00  0.00    +0.000 C 
ATOM     31  C   UNL     1      -2.554   0.297   2.990  0.00  0.00    +0.000 C 
ATOM     32  C   UNL     1      -2.587  -1.164   2.547  0.00  0.00    +0.000 C 
ATOM     33  C   UNL     1      -1.348  -1.898   3.057  0.00  0.00    +0.000 C 
ATOM     34  C   UNL     1      -0.085  -1.142   2.676  0.00  0.00    +0.000 C 
BRANCH  32  35
ATOM     35  N   UNL     1      -2.617  -1.225   1.079  0.00  0.00    +0.000 NA
ATOM     36  H   UNL     1      -2.651  -2.200   0.780  0.00  0.00    +0.000 HD
BRANCH  35  37
ATOM     37  C   UNL     1      -3.809  -0.520   0.584  0.00  0.00    +0.000 C 
BRANCH  37  38
ATOM     38  C   UNL     1      -3.841  -0.584  -0.935  0.00  0.00    +0.000 C 
ATOM     39  C   UNL     1      -3.620  -2.033  -1.385  0.00  0.00    +0.000 C 
ATOM     40  C   UNL     1      -3.741  -2.179  -2.898  0.00  0.00    +0.000 C 
ATOM     41  C   UNL     1      -5.085  -1.670  -3.395  0.00  0.00    +0.000 C 
ATOM     42  C   UNL     1      -5.290  -0.225  -2.957  0.00  0.00    +0.000 C 
ATOM     43  C   UNL     1      -5.187  -0.079  -1.446  0.00  0.00    +0.000 C 
ENDBRANCH  37  38
ENDBRANCH  35  37
ENDBRANCH  32  35
ENDBRANCH  26  29
ENDBRANCH  25  26
ENDBRANCH  24  25
ENDBRANCH  10  24
TORSDOF 11
