REMARK  Name = CHEMBL69202
REMARK  11 active torsions:
REMARK  status: ('A' for Active; 'I' for Inactive)
REMARK    1  A    between atoms: C_1  and  C_2
REMARK    2  A    between atoms: C_2  and  C_3
REMARK    3  A    between atoms: C_3  and  C_4
REMARK    4  A    between atoms: C_5  and  C_6
REMARK    5  A    between atoms: C_6  and  N_7
REMARK    6  A    between atoms: C_10  and  O_11
REMARK    7  A    between atoms: O_11  and  C_12
REMARK    8  A    between atoms: C_15  and  C_16
REMARK    9  A    between atoms: C_21  and  N_22
REMARK   10  A    between atoms: C_35  and  O_36
REMARK   11  A    between atoms: O_36  and  C_37
REMARK                            x       y       z     vdW  Elec       q    Type
REMARK                         _______ _______ _______ _____ _____    ______ ____
ROOT
ATOM      1  C   UNL     1       9.948  -3.338   1.558  0.00  0.00    +0.000 A 
ATOM      2  C   UNL     1      11.308  -3.163   1.755  0.00  0.00    +0.000 A 
ATOM      3  C   UNL     1      12.182  -3.092   0.634  0.00  0.00    +0.000 A 
ATOM      4  C   UNL     1      11.725  -3.324  -0.692  0.00  0.00    +0.000 A 
ATOM      5  C   UNL     1      10.356  -3.499  -0.843  0.00  0.00    +0.000 A 
ATOM      6  C   UNL     1       9.513  -3.425   0.253  0.00  0.00    +0.000 A 
ENDROOT
BRANCH   4   7
ATOM      7  C   UNL     1      12.711  -3.499  -1.844  0.00  0.00    +0.000 C 
ATOM      8  O   UNL     1      13.911  -3.463  -1.560  0.00  0.00    +0.000 OA
ATOM      9  N   UNL     1      12.280  -3.814  -3.167  0.00  0.00    +0.000 N 
ATOM     10  C   UNL     1      12.610  -5.112  -3.769  0.00  0.00    +0.000 C 
ATOM     11  C   UNL     1      13.002  -4.997  -5.240  0.00  0.00    +0.000 C 
ATOM     12  C   UNL     1      11.575  -4.658  -6.151  0.00  0.00    +0.000 C 
ATOM     13  C   UNL     1      11.540  -3.032  -5.405  0.00  0.00    +0.000 C 
ATOM     14  C   UNL     1      11.281  -3.050  -3.917  0.00  0.00    +0.000 C 
BRANCH  12  15
ATOM     15  N   UNL     1      10.659  -6.213  -6.620  0.00  0.00    +0.000 N 
ATOM     16  C   UNL     1      11.594  -6.205  -7.696  0.00  0.00    +0.000 C 
ATOM     17  O   UNL     1      12.873  -6.241  -7.592  0.00  0.00    +0.000 OA
ATOM     18  O   UNL     1      11.119  -5.923  -8.893  0.00  0.00    +0.000 OA
ATOM     19  C   UNL     1      10.866  -7.227  -9.260  0.00  0.00    +0.000 C 
ATOM     20  C   UNL     1       9.468  -7.172  -8.853  0.00  0.00    +0.000 A 
ATOM     21  C   UNL     1       8.276  -6.760  -9.474  0.00  0.00    +0.000 A 
ATOM     22  C   UNL     1       7.061  -7.438  -9.297  0.00  0.00    +0.000 A 
ATOM     23  C   UNL     1       7.212  -8.595  -8.619  0.00  0.00    +0.000 A 
ATOM     24  C   UNL     1       8.416  -8.517  -7.650  0.00  0.00    +0.000 A 
ATOM     25  C   UNL     1       9.341  -7.185  -7.532  0.00  0.00    +0.000 A 
ENDBRANCH  12  15
ENDBRANCH   4   7
BRANCH   5  26
ATOM     26  O   UNL     1       9.837  -3.755  -2.057  0.00  0.00    +0.000 OA
ATOM     27  C   UNL     1       8.447  -3.817  -2.306  0.00  0.00    +0.000 C 
ENDBRANCH   5  26
BRANCH   1  28
ATOM     28  O   UNL     1       9.054  -3.222   2.589  0.00  0.00    +0.000 OA
BRANCH  28  32
ATOM     29  N   UNL     1       5.463  -3.198   2.464  0.00  0.00    +0.000 NA
ATOM     30  C   UNL     1       6.252  -3.604   1.298  0.00  0.00    +0.000 C 
ATOM     31  C   UNL     1       7.205  -4.727   1.663  0.00  0.00    +0.000 C 
ATOM     32  C   UNL     1       8.136  -4.327   2.821  0.00  0.00    +0.000 C 
ATOM     33  C   UNL     1       7.238  -3.970   4.026  0.00  0.00    +0.000 C 
ATOM     34  C   UNL     1       6.219  -2.899   3.693  0.00  0.00    +0.000 C 
BRANCH  29  35
ATOM     35  C   UNL     1       4.574  -2.083   2.132  0.00  0.00    +0.000 C 
BRANCH  35  37
ATOM     36  C   UNL     1       4.548   0.371   1.498  0.00  0.00    +0.000 A 
ATOM     37  C   UNL     1       5.283  -0.777   1.798  0.00  0.00    +0.000 A 
ATOM     38  C   UNL     1       6.686  -0.651   1.773  0.00  0.00    +0.000 A 
ATOM     39  C   UNL     1       7.364   0.495   1.466  0.00  0.00    +0.000 A 
ATOM     40  C   UNL     1       6.608   1.588   1.150  0.00  0.00    +0.000 A 
ATOM     41  N   UNL     1       5.216   1.554   1.153  0.00  0.00    +0.000 N 
ATOM     42  O   UNL     1       4.579   2.605   0.829  0.00  0.00    +0.000 OA
BRANCH  36  43
ATOM     43  C   UNL     1       3.048   0.374   1.477  0.00  0.00    +0.000 C 
BRANCH  43  45
ATOM     44  C   UNL     1       1.020   0.025   0.076  0.00  0.00    +0.000 C 
ATOM     45  C   UNL     1       2.535   0.041   0.080  0.00  0.00    +0.000 C 
ENDBRANCH  43  45
ENDBRANCH  36  43
ENDBRANCH  35  37
ENDBRANCH  29  35
ENDBRANCH  28  32
ENDBRANCH   1  28
TORSDOF 9
