REMARK  Name = CHEMBL2037490
REMARK  10 active torsions:
REMARK  status: ('A' for Active; 'I' for Inactive)
REMARK    1  A    between atoms: CD1_1  and  CG_2
REMARK    2  A    between atoms: CG_2  and  CD2_3
REMARK    3  A    between atoms: CG_2  and  CB_4
REMARK    4  A    between atoms: CB_4  and  CA_5
REMARK    5  A    between atoms: C_9  and  C_10
REMARK    6  A    between atoms: N_21  and  C_22
REMARK    7  A    between atoms: C_22  and  C_23
REMARK    8  A    between atoms: C_22  and  C_31
REMARK    9  A    between atoms: N_35  and  C_36
REMARK   10  A    between atoms: N_35  and  C_37
REMARK                            x       y       z     vdW  Elec       q    Type
REMARK                         _______ _______ _______ _____ _____    ______ ____
ROOT
ATOM      1  CA  LEU A   2       4.876   0.871   0.982  0.00  0.00    +0.000 C 
ATOM      2  C   LEU A   2       5.208  -0.485   1.687  0.00  0.00    +0.000 C 
ATOM      3  O   LEU A   2       4.545  -1.547   1.650  0.00  0.00    +0.000 OA
ATOM      4  N   UNK A   1       6.370  -0.475   2.354  0.00  0.00    +0.000 N 
ATOM      5  C   UNK A   1       7.274   0.643   2.199  0.00  0.00    +0.000 C 
ATOM      6  C   UNK A   1       6.510   1.925   2.478  0.00  0.00    +0.000 C 
ATOM      7  O   UNK A   1       7.104   2.847   3.065  0.00  0.00    +0.000 OA
ATOM      8  N   LEU A   2       5.207   1.958   1.988  0.00  0.00    +0.000 N 
ATOM      9  H   UNK A   1       6.639  -1.353   2.789  0.00  0.00    +0.000 HD
ENDROOT
BRANCH   5  10
ATOM     10  C   UNK A   1       8.437   0.606   3.193  0.00  0.00    +0.000 C 
ATOM     11  C   UNK A   1       9.282  -0.646   2.969  0.00  0.00    +0.000 C 
ATOM     12  C   UNK A   1       8.628  -1.606   3.916  0.00  0.00    +0.000 A 
ATOM     13  C   UNK A   1       8.622  -2.984   3.838  0.00  0.00    +0.000 A 
ATOM     14  C   UNK A   1       7.833  -3.692   4.745  0.00  0.00    +0.000 A 
ATOM     15  C   UNK A   1       7.049  -3.021   5.698  0.00  0.00    +0.000 A 
ATOM     16  C   UNK A   1       7.038  -1.627   5.757  0.00  0.00    +0.000 A 
ATOM     17  C   UNK A   1       7.842  -0.934   4.868  0.00  0.00    +0.000 A 
ATOM     18  C   UNK A   1       7.913   0.546   4.659  0.00  0.00    +0.000 C 
ENDBRANCH   5  10
BRANCH   1  19
ATOM     19  CB  LEU A   2       3.416   0.951   0.640  0.00  0.00    +0.000 C 
BRANCH  19  21
ATOM     20  CD1 LEU A   2       1.109  -0.150  -0.884  0.00  0.00    +0.000 C 
ATOM     21  CG  LEU A   2       2.743   0.056  -0.503  0.00  0.00    +0.000 C 
ATOM     22  CD2 LEU A   2       3.171   0.921  -1.647  0.00  0.00    +0.000 C 
ENDBRANCH  19  21
ENDBRANCH   1  19
BRANCH   8  23
ATOM     23  C   UNK A   0       4.147   2.922   2.561  0.00  0.00    +0.000 C 
BRANCH  23  24
ATOM     24  C   UNK A   0       4.798   4.229   3.111  0.00  0.00    +0.000 A 
ATOM     25  C   UNK A   0       5.782   4.901   2.373  0.00  0.00    +0.000 A 
ATOM     26  C   UNK A   0       6.551   5.898   2.973  0.00  0.00    +0.000 A 
ATOM     27  C   UNK A   0       6.239   6.370   4.241  0.00  0.00    +0.000 A 
ATOM     28  N   UNK A   0       6.926   7.390   4.856  0.00  0.00    +0.000 N 
ATOM     29  C   UNK A   0       6.450   7.890   6.140  0.00  0.00    +0.000 C 
ATOM     30  C   UNK A   0       8.017   8.094   4.223  0.00  0.00    +0.000 C 
ATOM     31  N   UNK A   0       5.225   5.809   4.912  0.00  0.00    +0.000 NA
ATOM     32  C   UNK A   0       4.569   4.759   4.369  0.00  0.00    +0.000 A 
ENDBRANCH  23  24
BRANCH  23  33
ATOM     33  C   UNK A   0       2.842   2.359   3.545  0.00  0.00    +0.000 C 
ATOM     34  O   UNK A   0       2.496   3.030   4.530  0.00  0.00    +0.000 OA
ATOM     35  N   UNK A   0       1.867   1.410   3.217  0.00  0.00    +0.000 N 
ATOM     36  C   UNK A   0       1.923  -0.041   2.922  0.00  0.00    +0.000 C 
ATOM     37  C   UNK A   0       1.092  -0.134   1.679  0.00  0.00    +0.000 C 
ATOM     38  O   UNK A   0      -0.291   0.138   1.787  0.00  0.00    +0.000 OA
ATOM     39  C   UNK A   0      -0.389   1.545   2.111  0.00  0.00    +0.000 C 
ATOM     40  C   UNK A   0       0.433   1.753   3.408  0.00  0.00    +0.000 C 
ENDBRANCH  23  33
ENDBRANCH   8  23
TORSDOF 6
