REMARK  Name = CHEMBL3814617
REMARK  24 active torsions:
REMARK  status: ('A' for Active; 'I' for Inactive)
REMARK    1  A    between atoms: C_1  and  C_2
REMARK    2  A    between atoms: C_2  and  C_3
REMARK    3  A    between atoms: C_3  and  C_4
REMARK    4  A    between atoms: C_3  and  C_5
REMARK    5  A    between atoms: C_9  and  C_10
REMARK    6  A    between atoms: C_10  and  C_11
REMARK    7  A    between atoms: C_14  and  O_15
REMARK    8  A    between atoms: C_21  and  N_22
REMARK    9  A    between atoms: C_27  and  C_28
REMARK   10  A    between atoms: C_34  and  C_35
REMARK   11  A    between atoms: N_37  and  C_38
REMARK   12  A    between atoms: C_38  and  C_39
REMARK   13  A    between atoms: C_38  and  C_43
REMARK   14  A    between atoms: C_39  and  C_40
REMARK   15  A    between atoms: C_40  and  C_41
REMARK   16  A    between atoms: C_40  and  C_42
REMARK   17  A    between atoms: N_45  and  C_46
REMARK   18  A    between atoms: C_46  and  C_47
REMARK   19  A    between atoms: C_53  and  C_54
REMARK   20  A    between atoms: C_54  and  C_55
REMARK   21  A    between atoms: N_58  and  C_59
REMARK   22  A    between atoms: C_62  and  C_63
REMARK   23  A    between atoms: C_63  and  C_64
REMARK   24  A    between atoms: C_64  and  C_65
REMARK                            x       y       z     vdW  Elec       q    Type
REMARK                         _______ _______ _______ _____ _____    ______ ____
ROOT
ATOM      1  C   UNL     1       5.103  -0.564   3.761  0.00  0.00    +0.000 C 
ATOM      2  N   UNL     1       6.061  -1.729   5.437  0.00  0.00    +0.000 N 
ATOM      3  C   UNL     1       6.648  -2.658   6.896  0.00  0.00    +0.000 C 
ATOM      4  O   UNL     1       6.489  -3.223   8.259  0.00  0.00    +0.000 OA
ATOM      5  C   UNL     1       8.037  -2.822   7.016  0.00  0.00    +0.000 C 
ATOM      6  N   UNL     1       7.140  -4.171   6.634  0.00  0.00    +0.000 N 
ATOM      7  C   UNL     1       5.665  -4.485   6.585  0.00  0.00    +0.000 C 
ATOM      8  O   UNL     1       5.366  -5.280   5.693  0.00  0.00    +0.000 OA
ATOM      9  C   UNL     1       4.451  -3.504   7.470  0.00  0.00    +0.000 C 
ATOM     10  C   UNL     1       3.675  -2.671   6.506  0.00  0.00    +0.000 C 
ATOM     11  S   UNL     1       3.164  -3.946   5.273  0.00  0.00    +0.000 S 
ATOM     12  S   UNL     1       2.660  -3.162   3.511  0.00  0.00    +0.000 S 
ATOM     13  C   UNL     1       0.795  -3.590   2.818  0.00  0.00    +0.000 C 
ATOM     14  C   UNL     1      -0.081  -2.629   2.072  0.00  0.00    +0.000 C 
ATOM     15  N   UNL     1      -1.120  -1.856   2.988  0.00  0.00    +0.000 N 
ATOM     16  C   UNL     1      -1.022  -0.971   4.052  0.00  0.00    +0.000 C 
ATOM     17  O   UNL     1      -1.855  -0.313   4.648  0.00  0.00    +0.000 OA
ATOM     18  C   UNL     1       0.261  -0.676   4.590  0.00  0.00    +0.000 C 
ATOM     19  N   UNL     1       0.783   0.906   3.952  0.00  0.00    +0.000 N 
ATOM     20  C   UNL     1       0.483   1.888   4.873  0.00  0.00    +0.000 C 
ATOM     21  C   UNL     1       2.406   1.328   3.735  0.00  0.00    +0.000 C 
ATOM     22  O   UNL     1       3.438   0.478   3.725  0.00  0.00    +0.000 OA
ATOM     23  C   UNL     1       2.679   2.652   2.891  0.00  0.00    +0.000 C 
ATOM     24  N   UNL     1       4.267   2.498   3.267  0.00  0.00    +0.000 N 
ATOM     25  C   UNL     1       5.345   1.304   3.352  0.00  0.00    +0.000 C 
ATOM     26  O   UNL     1       6.267   1.641   2.558  0.00  0.00    +0.000 OA
ATOM     27  H   UNL     1       5.684  -1.948   6.554  0.00  0.00    +0.000 HD
ATOM     28  H   UNL     1       7.715  -4.767   6.104  0.00  0.00    +0.000 HD
ATOM     29  H   UNL     1      -2.090  -2.020   2.770  0.00  0.00    +0.000 HD
ATOM     30  H   UNL     1       4.549   3.371   3.640  0.00  0.00    +0.000 HD
ENDROOT
BRANCH  14  31
ATOM     31  C   UNL     1      -0.845  -3.514   1.081  0.00  0.00    +0.000 C 
ATOM     32  O   UNL     1      -2.060  -3.326   1.131  0.00  0.00    +0.000 OA
ATOM     33  N   UNL     1      -0.097  -4.330   0.189  0.00  0.00    +0.000 N 
ATOM     34  C   UNL     1       0.996  -5.216   0.530  0.00  0.00    +0.000 C 
ATOM     35  C   UNL     1       1.900  -5.161  -0.657  0.00  0.00    +0.000 C 
ATOM     36  C   UNL     1       0.915  -5.324  -1.768  0.00  0.00    +0.000 C 
ATOM     37  C   UNL     1      -0.375  -4.683  -1.250  0.00  0.00    +0.000 C 
BRANCH  37  38
ATOM     38  C   UNL     1      -1.269  -5.950  -1.440  0.00  0.00    +0.000 C 
ATOM     39  O   UNL     1      -1.597  -6.590  -0.432  0.00  0.00    +0.000 OA
ATOM     40  N   UNL     1      -1.916  -6.090  -2.701  0.00  0.00    +0.000 N 
ATOM     41  H   UNL     1      -1.573  -5.636  -3.547  0.00  0.00    +0.000 HD
BRANCH  40  42
ATOM     42  C   UNL     1      -3.205  -6.853  -2.867  0.00  0.00    +0.000 C 
BRANCH  42  43
ATOM     43  C   UNL     1      -3.472  -7.125  -4.382  0.00  0.00    +0.000 C 
ATOM     44  O   UNL     1      -2.738  -6.627  -5.237  0.00  0.00    +0.000 OA
ATOM     45  N   UNL     1      -4.543  -7.930  -4.726  0.00  0.00    +0.000 N 
ATOM     46  H   UNL     1      -5.137  -8.324  -4.019  0.00  0.00    +0.000 HD
BRANCH  45  47
ATOM     47  C   UNL     1      -4.861  -8.251  -6.121  0.00  0.00    +0.000 C 
BRANCH  47  48
ATOM     48  C   UNL     1      -6.087  -9.170  -6.307  0.00  0.00    +0.000 C 
ATOM     49  N   UNL     1      -6.751  -9.588  -5.177  0.00  0.00    +0.000 N 
ATOM     50  O   UNL     1      -6.468  -9.524  -7.421  0.00  0.00    +0.000 OA
ATOM     51  H   UNL     1      -6.514  -9.352  -4.231  0.00  0.00    +0.000 HD
ATOM     52  H   UNL     1      -7.560 -10.192  -5.268  0.00  0.00    +0.000 HD
ENDBRANCH  47  48
ENDBRANCH  45  47
ENDBRANCH  42  43
BRANCH  42  53
ATOM     53  C   UNL     1      -4.459  -6.157  -2.270  0.00  0.00    +0.000 C 
BRANCH  53  54
ATOM     54  C   UNL     1      -4.345  -5.851  -0.784  0.00  0.00    +0.000 C 
ATOM     55  C   UNL     1      -3.431  -4.711  -0.539  0.00  0.00    +0.000 C 
ATOM     56  C   UNL     1      -5.534  -5.210  -0.179  0.00  0.00    +0.000 C 
ENDBRANCH  53  54
ENDBRANCH  42  53
ENDBRANCH  40  42
ENDBRANCH  37  38
ENDBRANCH  14  31
BRANCH   9  57
ATOM     57  N   UNL     1       4.713  -2.428   8.616  0.00  0.00    +0.000 NA
ATOM     58  H   UNL     1       5.506  -1.797   8.472  0.00  0.00    +0.000 HD
ATOM     59  H   UNL     1       5.364  -2.982   9.221  0.00  0.00    +0.000 HD
ENDBRANCH   9  57
BRANCH   1  60
ATOM     60  C   UNL     1       4.201  -0.317   1.915  0.00  0.00    +0.000 C 
ATOM     61  C   UNL     1       3.069  -0.434   0.304  0.00  0.00    +0.000 C 
BRANCH  60  63
ATOM     62  C   UNL     1       2.150  -0.781   3.675  0.00  0.00    +0.000 C 
ATOM     63  C   UNL     1       2.491   0.145   2.094  0.00  0.00    +0.000 C 
ENDBRANCH  60  63
ENDBRANCH   1  60
BRANCH  18  64
ATOM     64  C   UNL     1       0.963  -1.195   5.881  0.00  0.00    +0.000 C 
BRANCH  64  65
ATOM     65  C   UNL     1       0.821  -2.692   6.164  0.00  0.00    +0.000 C 
ATOM     66  N   UNL     1       0.418  -3.515   5.178  0.00  0.00    +0.000 N 
ATOM     67  O   UNL     1       1.234  -3.201   7.192  0.00  0.00    +0.000 OA
ATOM     68  H   UNL     1       0.762  -3.003   4.412  0.00  0.00    +0.000 HD
ATOM     69  H   UNL     1       0.935  -4.408   5.006  0.00  0.00    +0.000 HD
ENDBRANCH  64  65
ENDBRANCH  18  64
BRANCH   5  70
ATOM     70  C   UNL     1       7.487  -1.292   7.382  0.00  0.00    +0.000 C 
BRANCH  70  71
ATOM     71  C   UNL     1       7.729  -0.602   8.643  0.00  0.00    +0.000 A 
ATOM     72  C   UNL     1       8.276  -1.123   9.796  0.00  0.00    +0.000 A 
ATOM     73  C   UNL     1       8.532  -0.227  10.812  0.00  0.00    +0.000 A 
ATOM     74  C   UNL     1       8.158   1.109  10.652  0.00  0.00    +0.000 A 
ATOM     75  C   UNL     1       7.472   1.554   9.539  0.00  0.00    +0.000 A 
ATOM     76  C   UNL     1       7.222   0.689   8.540  0.00  0.00    +0.000 A 
BRANCH  74  77
ATOM     77  O   UNL     1       8.418   2.083  11.560  0.00  0.00    +0.000 OA
ATOM     78  H   UNL     1       8.902   1.728  12.317  0.00  0.00    +0.000 HD
ENDBRANCH  74  77
ENDBRANCH  70  71
ENDBRANCH   5  70
BRANCH  23  79
ATOM     79  C   UNL     1       2.299   2.927   1.295  0.00  0.00    +0.000 C 
BRANCH  79  80
ATOM     80  C   UNL     1       3.352   2.599   0.196  0.00  0.00    +0.000 C 
BRANCH  80  81
ATOM     81  C   UNL     1       2.981   2.810  -1.228  0.00  0.00    +0.000 C 
ATOM     82  N   UNL     1       1.823   3.479  -1.430  0.00  0.00    +0.000 N 
ATOM     83  O   UNL     1       3.645   2.324  -2.141  0.00  0.00    +0.000 OA
ATOM     84  H   UNL     1       1.212   3.793  -0.692  0.00  0.00    +0.000 HD
ATOM     85  H   UNL     1       1.577   3.712  -2.376  0.00  0.00    +0.000 HD
ENDBRANCH  80  81
ENDBRANCH  79  80
ENDBRANCH  23  79
TORSDOF 19
