REMARK  Name = CHEMBL4203314
REMARK  9 active torsions:
REMARK  status: ('A' for Active; 'I' for Inactive)
REMARK    1  A    between atoms: C_1  and  C_2
REMARK    2  A    between atoms: C_4  and  C_5
REMARK    3  A    between atoms: N_12  and  C_13
REMARK    4  A    between atoms: C_24  and  C_25
REMARK    5  A    between atoms: C_25  and  N_26
REMARK    6  A    between atoms: N_29  and  C_30
REMARK    7  A    between atoms: C_30  and  C_31
REMARK    8  A    between atoms: N_33  and  C_34
REMARK    9  A    between atoms: N_33  and  C_35
REMARK                            x       y       z     vdW  Elec       q    Type
REMARK                         _______ _______ _______ _____ _____    ______ ____
ROOT
ATOM      1  C   UNL     1       2.463  -0.316  -0.007  0.00  0.00    +0.000 C 
ATOM      2  C   UNL     1       0.981  -0.086  -0.015  0.00  0.00    +0.000 A 
ATOM      3  C   UNL     1       0.160  -1.241  -0.055  0.00  0.00    +0.000 A 
ATOM      4  C   UNL     1      -1.245  -1.160  -0.097  0.00  0.00    +0.000 A 
ATOM      5  C   UNL     1      -1.814   0.099  -0.024  0.00  0.00    +0.000 A 
ATOM      6  C   UNL     1      -1.019   1.253  -0.000  0.00  0.00    +0.000 A 
ATOM      7  C   UNL     1       0.395   1.201  -0.003  0.00  0.00    +0.000 A 
ENDROOT
BRANCH   4   8
ATOM      8  C   UNL     1      -2.076  -2.410  -0.104  0.00  0.00    +0.000 C 
ATOM      9  O   UNL     1      -1.428  -3.458  -0.075  0.00  0.00    +0.000 OA
ATOM     10  N   UNL     1      -3.491  -2.307   0.034  0.00  0.00    +0.000 N 
ATOM     11  C   UNL     1      -4.336  -1.630  -1.006  0.00  0.00    +0.000 C 
ATOM     12  C   UNL     1      -5.263  -0.579  -0.458  0.00  0.00    +0.000 A 
ATOM     13  C   UNL     1      -5.685   0.686  -0.974  0.00  0.00    +0.000 A 
ATOM     14  N   UNL     1      -6.563   1.323  -0.180  0.00  0.00    +0.000 NA
ATOM     15  N   UNL     1      -6.728   0.469   0.844  0.00  0.00    +0.000 N 
ATOM     16  C   UNL     1      -7.618   0.754   1.951  0.00  0.00    +0.000 C 
ATOM     17  C   UNL     1      -5.954  -0.659   0.723  0.00  0.00    +0.000 A 
ATOM     18  N   UNL     1      -5.983  -1.589   1.681  0.00  0.00    +0.000 N 
ATOM     19  C   UNL     1      -5.240  -2.774   1.792  0.00  0.00    +0.000 A 
ATOM     20  C   UNL     1      -5.644  -3.581   2.889  0.00  0.00    +0.000 A 
ATOM     21  C   UNL     1      -5.050  -4.797   3.177  0.00  0.00    +0.000 A 
ATOM     22  C   UNL     1      -4.046  -5.249   2.349  0.00  0.00    +0.000 A 
ATOM     23  C   UNL     1      -3.609  -4.456   1.282  0.00  0.00    +0.000 A 
ATOM     24  C   UNL     1      -4.155  -3.189   0.988  0.00  0.00    +0.000 A 
ATOM     25  H   UNL     1      -6.641  -1.486   2.443  0.00  0.00    +0.000 HD
ENDBRANCH   4   8
BRANCH   7  26
ATOM     26  C   UNL     1       1.125   2.556   0.004  0.00  0.00    +0.000 C 
BRANCH  26  27
ATOM     27  N   UNL     1       2.581   2.549   0.031  0.00  0.00    +0.000 N 
ATOM     28  C   UNL     1       3.423   3.610   0.007  0.00  0.00    +0.000 C 
ATOM     29  O   UNL     1       3.058   4.783  -0.006  0.00  0.00    +0.000 OA
ATOM     30  N   UNL     1       4.747   3.218   0.001  0.00  0.00    +0.000 N 
ATOM     31  H   UNL     1       3.082   1.700  -0.061  0.00  0.00    +0.000 HD
ATOM     32  H   UNL     1       5.034   2.245   0.020  0.00  0.00    +0.000 HD
BRANCH  30  33
ATOM     33  C   UNL     1       5.811   4.208  -0.001  0.00  0.00    +0.000 C 
BRANCH  33  34
ATOM     34  C   UNL     1       7.245   3.632   0.006  0.00  0.00    +0.000 C 
ATOM     35  O   UNL     1       7.425   2.410   0.012  0.00  0.00    +0.000 OA
ATOM     36  N   UNL     1       8.304   4.545   0.003  0.00  0.00    +0.000 N 
ATOM     37  C   UNL     1       8.145   5.995  -0.005  0.00  0.00    +0.000 C 
ATOM     38  C   UNL     1       9.681   4.058   0.009  0.00  0.00    +0.000 C 
ENDBRANCH  33  34
ENDBRANCH  30  33
ENDBRANCH  26  27
ENDBRANCH   7  26
TORSDOF 5
