REMARK  Name = CHEMBL32567
REMARK  8 active torsions:
REMARK  status: ('A' for Active; 'I' for Inactive)
REMARK    1  A    between atoms: C_1  and  N_2
REMARK    2  A    between atoms: N_2  and  C_3
REMARK    3  A    between atoms: N_2  and  S_33
REMARK    4  A    between atoms: C_3  and  C_4
REMARK    5  A    between atoms: C_4  and  N_5
REMARK    6  A    between atoms: C_10  and  C_11
REMARK    7  A    between atoms: C_16  and  N_17
REMARK    8  A    between atoms: S_33  and  C_34
REMARK                            x       y       z     vdW  Elec       q    Type
REMARK                         _______ _______ _______ _____ _____    ______ ____
ROOT
ATOM      1  C   UNL     1       7.822   5.843  -2.895  0.00  0.00    +0.000 C 
ATOM      2  O   UNL     1       7.899   7.062  -2.757  0.00  0.00    +0.000 OA
ATOM      3  N   UNL     1       8.939   5.040  -3.259  0.00  0.00    +0.000 N 
ATOM      4  C   UNL     1      10.200   5.090  -2.515  0.00  0.00    +0.000 C 
ATOM      5  C   UNL     1      11.411   5.191  -3.428  0.00  0.00    +0.000 C 
ATOM      6  C   UNL     1      11.599   3.726  -4.405  0.00  0.00    +0.000 C 
ATOM      7  C   UNL     1      10.128   4.097  -5.252  0.00  0.00    +0.000 C 
ATOM      8  C   UNL     1       8.906   4.044  -4.335  0.00  0.00    +0.000 C 
ENDROOT
BRANCH   6   9
ATOM      9  N   UNL     1      12.438   2.150  -3.886  0.00  0.00    +0.000 N 
ATOM     10  C   UNL     1      13.580   3.088  -3.759  0.00  0.00    +0.000 C 
ATOM     11  O   UNL     1      13.661   4.334  -3.559  0.00  0.00    +0.000 OA
ATOM     12  O   UNL     1      14.701   2.602  -4.188  0.00  0.00    +0.000 OA
ATOM     13  C   UNL     1      15.386   2.345  -3.021  0.00  0.00    +0.000 C 
ATOM     14  C   UNL     1      14.934   0.971  -2.926  0.00  0.00    +0.000 A 
ATOM     15  C   UNL     1      16.197   0.140  -2.485  0.00  0.00    +0.000 A 
ATOM     16  C   UNL     1      16.335  -1.208  -2.510  0.00  0.00    +0.000 A 
ATOM     17  C   UNL     1      15.094  -1.717  -2.819  0.00  0.00    +0.000 A 
ATOM     18  C   UNL     1      13.717  -0.803  -3.176  0.00  0.00    +0.000 A 
ATOM     19  C   UNL     1      13.557   0.743  -3.347  0.00  0.00    +0.000 A 
ENDBRANCH   6   9
BRANCH   1  25
ATOM     20  N   UNL     1       2.897   3.429  -1.563  0.00  0.00    +0.000 N 
ATOM     21  C   UNL     1       2.167   4.563  -1.352  0.00  0.00    +0.000 A 
ATOM     22  N   UNL     1       2.894   5.642  -1.549  0.00  0.00    +0.000 NA
ATOM     23  C   UNL     1       4.149   5.191  -1.913  0.00  0.00    +0.000 A 
ATOM     24  C   UNL     1       5.332   5.893  -2.252  0.00  0.00    +0.000 A 
ATOM     25  C   UNL     1       6.501   5.161  -2.583  0.00  0.00    +0.000 A 
ATOM     26  C   UNL     1       6.451   3.765  -2.522  0.00  0.00    +0.000 A 
ATOM     27  C   UNL     1       5.296   3.053  -2.217  0.00  0.00    +0.000 A 
ATOM     28  C   UNL     1       4.165   3.799  -1.918  0.00  0.00    +0.000 A 
BRANCH  20  29
ATOM     29  C   UNL     1       2.425   2.068  -1.402  0.00  0.00    +0.000 C 
BRANCH  29  30
ATOM     30  C   UNL     1       2.899   1.471  -0.074  0.00  0.00    +0.000 C 
BRANCH  30  32
ATOM     31  C   UNL     1       0.894   0.008   0.088  0.00  0.00    +0.000 C 
ATOM     32  N   UNL     1       2.367   0.100   0.180  0.00  0.00    +0.000 NA
BRANCH  32  33
ATOM     33  S   UNL     1       3.029  -0.677   1.567  0.00  0.00    +0.000 S 
ATOM     34  C   UNL     1       2.410   0.337   2.909  0.00  0.00    +0.000 C 
ATOM     35  O   UNL     1       2.417  -1.983   1.675  0.00  0.00    +0.000 OA
ATOM     36  O   UNL     1       4.467  -0.525   1.515  0.00  0.00    +0.000 OA
ENDBRANCH  32  33
ENDBRANCH  30  32
ENDBRANCH  29  30
ENDBRANCH  20  29
ENDBRANCH   1  25
TORSDOF 6
