REMARK  Name = CHEMBL2369848
REMARK  19 active torsions:
REMARK  status: ('A' for Active; 'I' for Inactive)
REMARK    1  A    between atoms: C_2  and  C_4
REMARK    2  A    between atoms: C_4  and  N_5
REMARK    3  A    between atoms: C_6  and  C_8
REMARK    4  A    between atoms: C_8  and  C_9
REMARK    5  A    between atoms: C_8  and  N_16
REMARK    6  A    between atoms: C_9  and  C_10
REMARK    7  A    between atoms: C_10  and  C_11
REMARK    8  A    between atoms: C_11  and  N_12
REMARK    9  A    between atoms: C_17  and  C_19
REMARK   10  A    between atoms: C_24  and  C_26
REMARK   11  A    between atoms: C_35  and  C_36
REMARK   12  A    between atoms: C_36  and  C_37
REMARK   13  A    between atoms: C_40  and  O_41
REMARK   14  A    between atoms: C_47  and  C_48
REMARK   15  A    between atoms: C_48  and  C_49
REMARK   16  A    between atoms: C_58  and  C_59
REMARK   17  A    between atoms: C_59  and  C_60
REMARK   18  A    between atoms: C_68  and  C_69
REMARK   19  A    between atoms: C_69  and  C_70
REMARK                            x       y       z     vdW  Elec       q    Type
REMARK                         _______ _______ _______ _____ _____    ______ ____
ROOT
ATOM      1  C   UNL     1      13.068   3.161  -0.817  0.00  0.00    +0.000 C 
ATOM      2  C   UNL     1      13.856   5.381  -0.237  0.00  0.00    +0.000 C 
ATOM      3  S   UNL     1      13.937   8.032   0.572  0.00  0.00    +0.000 S 
ATOM      4  S   UNL     1      13.850  10.834   0.823  0.00  0.00    +0.000 S 
ATOM      5  C   UNL     1      12.085  11.813   0.510  0.00  0.00    +0.000 C 
ATOM      6  C   UNL     1      11.372  12.949  -0.231  0.00  0.00    +0.000 C 
ATOM      7  C   UNL     1       9.947  12.691  -0.785  0.00  0.00    +0.000 C 
ATOM      8  O   UNL     1       9.258  13.612  -1.217  0.00  0.00    +0.000 OA
ATOM      9  N   UNL     1       9.488  11.416  -0.823  0.00  0.00    +0.000 N 
ATOM     10  C   UNL     1      10.296  10.382  -0.308  0.00  0.00    +0.000 C 
ATOM     11  C   UNL     1      11.524  10.077  -1.342  0.00  0.00    +0.000 C 
ATOM     12  O   UNL     1      12.369  10.918  -1.689  0.00  0.00    +0.000 OA
ATOM     13  N   UNL     1      11.915   8.931  -1.716  0.00  0.00    +0.000 N 
ATOM     14  C   UNL     1      11.161   7.905  -1.592  0.00  0.00    +0.000 C 
ATOM     15  C   UNL     1      11.206   7.406   0.241  0.00  0.00    +0.000 C 
ATOM     16  O   UNL     1      10.594   7.979   1.172  0.00  0.00    +0.000 OA
ATOM     17  N   UNL     1      11.198   5.989   0.504  0.00  0.00    +0.000 N 
ATOM     18  C   UNL     1      11.166   4.997  -0.492  0.00  0.00    +0.000 C 
ATOM     19  C   UNL     1       9.470   4.530  -1.866  0.00  0.00    +0.000 C 
ATOM     20  O   UNL     1       9.070   5.218  -3.113  0.00  0.00    +0.000 OA
ATOM     21  N   UNL     1       9.322   3.301  -2.091  0.00  0.00    +0.000 N 
ATOM     22  C   UNL     1      10.218   2.384  -1.411  0.00  0.00    +0.000 C 
ATOM     23  C   UNL     1      12.253   2.781  -2.149  0.00  0.00    +0.000 C 
ATOM     24  O   UNL     1      13.010   3.864  -2.347  0.00  0.00    +0.000 OA
ATOM     25  N   UNL     1      13.075   1.776  -1.867  0.00  0.00    +0.000 N 
ATOM     26  H   UNL     1       8.526  11.191  -1.140  0.00  0.00    +0.000 HD
ATOM     27  H   UNL     1      12.678   8.792  -2.327  0.00  0.00    +0.000 HD
ATOM     28  H   UNL     1      10.826   5.572   1.319  0.00  0.00    +0.000 HD
ATOM     29  H   UNL     1       9.130   3.263  -3.051  0.00  0.00    +0.000 HD
ATOM     30  H   UNL     1      13.409   0.774  -2.291  0.00  0.00    +0.000 HD
ENDROOT
BRANCH   1  36
ATOM     31  C   UNL     1       9.444   1.053  -4.359  0.00  0.00    +0.000 C 
ATOM     32  C   UNL     1       7.921   1.574  -4.277  0.00  0.00    +0.000 C 
ATOM     33  C   UNL     1       7.102   0.393  -4.522  0.00  0.00    +0.000 C 
ATOM     34  C   UNL     1       8.486  -0.660  -3.607  0.00  0.00    +0.000 C 
ATOM     35  N   UNL     1      10.348   0.204  -2.967  0.00  0.00    +0.000 N 
ATOM     36  C   UNL     1      11.647   1.212  -1.635  0.00  0.00    +0.000 C 
ATOM     37  O   UNL     1      11.341  -0.230  -1.738  0.00  0.00    +0.000 OA
BRANCH  31  39
ATOM     38  N   UNL     1      10.582   3.186  -4.500  0.00  0.00    +0.000 N 
ATOM     39  C   UNL     1      10.313   2.046  -4.133  0.00  0.00    +0.000 C 
ATOM     40  O   UNL     1      11.067   1.876  -3.274  0.00  0.00    +0.000 OA
ATOM     41  H   UNL     1      10.211   3.437  -5.337  0.00  0.00    +0.000 HD
BRANCH  38  42
ATOM     42  C   UNL     1      11.521   3.950  -3.871  0.00  0.00    +0.000 C 
BRANCH  42  44
ATOM     43  N   UNL     1      10.387   5.967  -1.984  0.00  0.00    +0.000 N 
ATOM     44  C   UNL     1      11.206   4.580  -2.611  0.00  0.00    +0.000 C 
ATOM     45  O   UNL     1      11.110   3.866  -1.679  0.00  0.00    +0.000 OA
ATOM     46  H   UNL     1      10.008   6.212  -2.856  0.00  0.00    +0.000 HD
BRANCH  43  47
ATOM     47  C   UNL     1       9.406   6.335  -1.023  0.00  0.00    +0.000 C 
BRANCH  47  49
ATOM     48  N   UNL     1       8.078   7.921  -0.664  0.00  0.00    +0.000 N 
ATOM     49  C   UNL     1       8.622   7.329  -1.647  0.00  0.00    +0.000 C 
ATOM     50  O   UNL     1       8.624   7.908  -2.704  0.00  0.00    +0.000 OA
ATOM     51  H   UNL     1       7.835   9.009  -0.784  0.00  0.00    +0.000 HD
ATOM     52  H   UNL     1       8.817   7.803   0.448  0.00  0.00    +0.000 HD
ENDBRANCH  47  49
ENDBRANCH  43  47
ENDBRANCH  42  44
BRANCH  42  53
ATOM     53  C   UNL     1      11.353   5.111  -4.421  0.00  0.00    +0.000 C 
BRANCH  53  54
ATOM     54  C   UNL     1      13.096   6.168  -3.856  0.00  0.00    +0.000 C 
BRANCH  54  55
ATOM     55  C   UNL     1      13.436   7.614  -4.644  0.00  0.00    +0.000 C 
BRANCH  55  56
ATOM     56  N   UNL     1      13.882   8.656  -3.890  0.00  0.00    +0.000 NA
ATOM     57  C   UNL     1      14.062   9.718  -4.587  0.00  0.00    +0.000 C 
ATOM     58  N   UNL     1      13.680   9.987  -5.880  0.00  0.00    +0.000 N 
ATOM     59  N   UNL     1      14.798  10.620  -3.904  0.00  0.00    +0.000 N 
ATOM     60  H   UNL     1      13.120   9.341  -6.438  0.00  0.00    +0.000 HD
ATOM     61  H   UNL     1      13.859  10.844  -6.367  0.00  0.00    +0.000 HD
ATOM     62  H   UNL     1      15.107  10.432  -2.938  0.00  0.00    +0.000 HD
ATOM     63  H   UNL     1      15.077  11.508  -4.267  0.00  0.00    +0.000 HD
ENDBRANCH  55  56
ENDBRANCH  54  55
ENDBRANCH  53  54
ENDBRANCH  42  53
ENDBRANCH  38  42
ENDBRANCH  31  39
ENDBRANCH   1  36
BRANCH  10  64
ATOM     64  C   UNL     1       9.460   9.334  -0.274  0.00  0.00    +0.000 C 
BRANCH  64  65
ATOM     65  C   UNL     1       8.140   9.277   0.959  0.00  0.00    +0.000 A 
ATOM     66  C   UNL     1       7.569  10.451   0.950  0.00  0.00    +0.000 A 
ATOM     67  C   UNL     1       6.423  10.454   1.601  0.00  0.00    +0.000 A 
ATOM     68  C   UNL     1       5.756   9.288   1.968  0.00  0.00    +0.000 A 
ATOM     69  C   UNL     1       6.156   8.027   1.705  0.00  0.00    +0.000 A 
ATOM     70  C   UNL     1       7.331   7.944   1.204  0.00  0.00    +0.000 A 
BRANCH  68  71
ATOM     71  O   UNL     1       4.604   9.293   2.658  0.00  0.00    +0.000 OA
ATOM     72  H   UNL     1       4.281  10.175   2.867  0.00  0.00    +0.000 HD
ENDBRANCH  68  71
ENDBRANCH  64  65
ENDBRANCH  10  64
BRANCH  14  73
ATOM     73  C   UNL     1      11.584   7.103  -2.671  0.00  0.00    +0.000 C 
BRANCH  73  74
ATOM     74  C   UNL     1      11.196   7.192  -4.163  0.00  0.00    +0.000 A 
ATOM     75  C   UNL     1      12.136   6.299  -5.460  0.00  0.00    +0.000 A 
ATOM     76  C   UNL     1      12.143   6.648  -6.648  0.00  0.00    +0.000 A 
ATOM     77  C   UNL     1      11.627   7.896  -6.718  0.00  0.00    +0.000 A 
ATOM     78  C   UNL     1      11.018   8.761  -5.687  0.00  0.00    +0.000 A 
ATOM     79  C   UNL     1      10.771   8.403  -4.398  0.00  0.00    +0.000 A 
ENDBRANCH  73  74
ENDBRANCH  14  73
BRANCH  18  80
ATOM     80  C   UNL     1      11.589   3.790   0.359  0.00  0.00    +0.000 C 
BRANCH  80  81
ATOM     81  C   UNL     1      12.744   3.784   1.217  0.00  0.00    +0.000 A 
ATOM     82  C   UNL     1      13.152   4.970   1.674  0.00  0.00    +0.000 A 
ATOM     83  C   UNL     1      14.220   4.880   2.471  0.00  0.00    +0.000 A 
ATOM     84  C   UNL     1      14.557   3.587   2.668  0.00  0.00    +0.000 A 
ATOM     85  S   UNL     1      13.674   2.481   1.747  0.00  0.00    +0.000 S 
ENDBRANCH  80  81
ENDBRANCH  18  80
BRANCH  22  86
ATOM     86  C   UNL     1       9.374   1.167  -1.492  0.00  0.00    +0.000 C 
BRANCH  86  87
ATOM     87  C   UNL     1       7.979   1.224  -1.522  0.00  0.00    +0.000 C 
ATOM     88  N   UNL     1       7.558   2.427  -1.098  0.00  0.00    +0.000 N 
ATOM     89  O   UNL     1       7.258   0.338  -1.916  0.00  0.00    +0.000 OA
ATOM     90  H   UNL     1       8.205   3.188  -0.888  0.00  0.00    +0.000 HD
ATOM     91  H   UNL     1       6.598   2.603  -1.031  0.00  0.00    +0.000 HD
ENDBRANCH  86  87
ENDBRANCH  22  86
TORSDOF 19
