REMARK  Name = CHEMBL1253499
REMARK  13 active torsions:
REMARK  status: ('A' for Active; 'I' for Inactive)
REMARK    1  A    between atoms: C_1  and  C_2
REMARK    2  A    between atoms: C_2  and  N_3
REMARK    3  A    between atoms: N_3  and  C_4
REMARK    4  A    between atoms: C_4  and  C_5
REMARK    5  A    between atoms: C_11  and  C_13
REMARK    6  A    between atoms: C_18  and  C_19
REMARK    7  A    between atoms: C_19  and  C_20
REMARK    8  A    between atoms: N_23  and  C_24
REMARK    9  A    between atoms: C_24  and  C_25
REMARK   10  A    between atoms: C_28  and  O_29
REMARK   11  A    between atoms: O_29  and  C_30
REMARK   12  A    between atoms: C_32  and  O_33
REMARK   13  A    between atoms: O_33  and  C_34
REMARK                            x       y       z     vdW  Elec       q    Type
REMARK                         _______ _______ _______ _____ _____    ______ ____
ROOT
ATOM      1  C   UNL     1       7.151  -3.380   4.654  0.00  0.00    +0.000 C 
ATOM      2  C   UNL     1       6.709  -2.297   5.624  0.00  0.00    +0.000 C 
ATOM      3  C   UNL     1       7.270  -4.704   5.392  0.00  0.00    +0.000 C 
ATOM      4  O   UNL     1       6.563  -5.697   5.034  0.00  0.00    +0.000 OA
ATOM      5  N   UNL     1       8.203  -4.835   6.520  0.00  0.00    +0.000 N 
ATOM      6  C   UNL     1       8.318  -6.115   7.234  0.00  0.00    +0.000 A 
ATOM      7  C   UNL     1       8.402  -7.306   6.522  0.00  0.00    +0.000 A 
ATOM      8  C   UNL     1       8.400  -8.521   7.200  0.00  0.00    +0.000 A 
ATOM      9  C   UNL     1       8.305  -8.515   8.582  0.00  0.00    +0.000 A 
ATOM     10 CL   UNL     1       8.287 -10.037   9.417  0.00  0.00    +0.000 Cl
ATOM     11  C   UNL     1       8.262  -7.337   9.313  0.00  0.00    +0.000 A 
ATOM     12  C   UNL     1       8.255  -6.128   8.618  0.00  0.00    +0.000 A 
ENDROOT
BRANCH   1  18
ATOM     13  C   UNL     1       4.913  -2.570   1.679  0.00  0.00    +0.000 A 
ATOM     14  C   UNL     1       4.287  -3.791   1.453  0.00  0.00    +0.000 A 
ATOM     15  C   UNL     1       4.565  -4.876   2.279  0.00  0.00    +0.000 A 
ATOM     16  C   UNL     1       5.461  -4.709   3.322  0.00  0.00    +0.000 A 
ATOM     17 CL   UNL     1       5.788  -6.065   4.357  0.00  0.00    +0.000 Cl
ATOM     18  C   UNL     1       6.126  -3.512   3.540  0.00  0.00    +0.000 A 
ATOM     19  C   UNL     1       5.829  -2.432   2.709  0.00  0.00    +0.000 A 
BRANCH  13  21
ATOM     20  N   UNL     1       2.961  -1.172   0.709  0.00  0.00    +0.000 N 
ATOM     21  C   UNL     1       4.406  -1.393   0.862  0.00  0.00    +0.000 C 
ATOM     22  O   UNL     1       5.232  -0.599   0.312  0.00  0.00    +0.000 OA
BRANCH  20  24
ATOM     23  C   UNL     1       0.951  -0.033  -0.080  0.00  0.00    +0.000 C 
ATOM     24  C   UNL     1       2.471  -0.033  -0.080  0.00  0.00    +0.000 C 
ENDBRANCH  20  24
BRANCH  20  25
ATOM     25  C   UNL     1       2.005  -2.090   1.346  0.00  0.00    +0.000 C 
BRANCH  25  26
ATOM     26  C   UNL     1       0.587  -1.641   1.035  0.00  0.00    +0.000 A 
ATOM     27  C   UNL     1      -0.426  -2.582   0.829  0.00  0.00    +0.000 A 
ATOM     28  C   UNL     1      -1.703  -2.105   0.563  0.00  0.00    +0.000 A 
ATOM     29  C   UNL     1      -1.915  -0.746   0.519  0.00  0.00    +0.000 A 
ATOM     30  N   UNL     1      -0.946   0.158   0.694  0.00  0.00    +0.000 NA
ATOM     31  C   UNL     1       0.291  -0.295   0.949  0.00  0.00    +0.000 A 
ENDBRANCH  25  26
ENDBRANCH  20  25
ENDBRANCH  13  21
ENDBRANCH   1  18
BRANCH   5  32
ATOM     32  C   UNL     1       9.021  -3.686   6.935  0.00  0.00    +0.000 C 
BRANCH  32  33
ATOM     33  C   UNL     1       8.713  -2.496   6.041  0.00  0.00    +0.000 A 
ATOM     34  C   UNL     1       8.668  -2.654   4.628  0.00  0.00    +0.000 A 
ATOM     35  C   UNL     1       8.844  -1.530   3.804  0.00  0.00    +0.000 A 
ATOM     36  C   UNL     1       8.774  -0.334   4.310  0.00  0.00    +0.000 A 
ATOM     37  C   UNL     1       8.512  -0.164   5.676  0.00  0.00    +0.000 A 
ATOM     38  C   UNL     1       8.635  -1.267   6.555  0.00  0.00    +0.000 A 
BRANCH  36  39
ATOM     39  O   UNL     1       8.963   0.800   3.477  0.00  0.00    +0.000 OA
ATOM     40  C   UNL     1       8.886   2.106   4.028  0.00  0.00    +0.000 C 
ENDBRANCH  36  39
BRANCH  38  41
ATOM     41  O   UNL     1       8.676  -1.068   7.960  0.00  0.00    +0.000 OA
ATOM     42  C   UNL     1       8.800  -2.183   8.831  0.00  0.00    +0.000 C 
ENDBRANCH  38  41
ENDBRANCH  32  33
ENDBRANCH   5  32
TORSDOF 9
REMARK  Name = CHEMBL1253499
REMARK  13 active torsions:
REMARK  status: ('A' for Active; 'I' for Inactive)
REMARK    1  A    between atoms: C_1  and  C_2
REMARK    2  A    between atoms: C_2  and  N_3
REMARK    3  A    between atoms: N_3  and  C_4
REMARK    4  A    between atoms: C_4  and  C_5
REMARK    5  A    between atoms: C_11  and  C_13
REMARK    6  A    between atoms: C_18  and  C_19
REMARK    7  A    between atoms: C_19  and  C_20
REMARK    8  A    between atoms: N_23  and  C_24
REMARK    9  A    between atoms: C_24  and  C_25
REMARK   10  A    between atoms: C_28  and  O_29
REMARK   11  A    between atoms: O_29  and  C_30
REMARK   12  A    between atoms: C_32  and  O_33
REMARK   13  A    between atoms: O_33  and  C_34
REMARK                            x       y       z     vdW  Elec       q    Type
REMARK                         _______ _______ _______ _____ _____    ______ ____
ROOT
ATOM      1 CL   UNL     1       0.991   0.045  -0.089  0.00  0.00    +0.000 Cl
ATOM      2  H   UNL     1       2.219   0.045  -0.089  0.00  0.00    +0.000 HD
ENDROOT
TORSDOF 0
