REMARK  Name = CHEMBL3416861
REMARK  1 active torsions:
REMARK  status: ('A' for Active; 'I' for Inactive)
REMARK    1  A    between atoms: C_2  and  C_3
REMARK                            x       y       z     vdW  Elec       q    Type
REMARK                         _______ _______ _______ _____ _____    ______ ____
ROOT
ATOM      1  O   UNL     1       1.100  -0.087   0.186  0.00  0.00    +0.000 OA
ATOM      2  C   UNL     1       2.331   0.023   0.166  0.00  0.00    +0.000 C 
ATOM      3  N   UNL     1       3.040   0.391   1.328  0.00  0.00    +0.000 N 
ATOM      4  C   UNL     1       4.081   1.415   1.361  0.00  0.00    +0.000 C 
ATOM      5  C   UNL     1       3.580   2.716   2.060  0.00  0.00    +0.000 C 
ATOM      6  C   UNL     1       3.004   2.470   3.489  0.00  0.00    +0.000 C 
ATOM      7  C   UNL     1       1.967   1.317   3.406  0.00  0.00    +0.000 C 
ATOM      8  C   UNL     1       2.515   0.084   2.657  0.00  0.00    +0.000 C 
ATOM      9  O   UNL     1       4.111   2.032   4.350  0.00  0.00    +0.000 OA
ATOM     10  C   UNL     1       4.281   2.907   5.494  0.00  0.00    +0.000 C 
ATOM     11  C   UNL     1       3.245   3.951   5.355  0.00  0.00    +0.000 A 
ATOM     12  C   UNL     1       3.011   5.024   6.219  0.00  0.00    +0.000 A 
ATOM     13  C   UNL     1       1.975   5.901   5.919  0.00  0.00    +0.000 A 
ATOM     14  C   UNL     1       1.202   5.682   4.772  0.00  0.00    +0.000 A 
ATOM     15  C   UNL     1       1.457   4.590   3.914  0.00  0.00    +0.000 A 
ATOM     16  C   UNL     1       2.496   3.714   4.205  0.00  0.00    +0.000 A 
ENDROOT
BRANCH   2  17
ATOM     17  C   UNL     1       3.083  -0.354  -1.059  0.00  0.00    +0.000 A 
ATOM     18  C   UNL     1       4.178  -1.208  -1.105  0.00  0.00    +0.000 A 
ATOM     19  N   UNL     1       4.545  -1.410  -2.414  0.00  0.00    +0.000 N 
ATOM     20  C   UNL     1       3.728  -0.693  -3.256  0.00  0.00    +0.000 A 
ATOM     21  C   UNL     1       3.772  -0.557  -4.657  0.00  0.00    +0.000 A 
ATOM     22  C   UNL     1       2.814   0.262  -5.255  0.00  0.00    +0.000 A 
ATOM     23 CL   UNL     1       2.873   0.535  -6.958  0.00  0.00    +0.000 Cl
ATOM     24  C   UNL     1       1.823   0.875  -4.496  0.00  0.00    +0.000 A 
ATOM     25  C   UNL     1       1.778   0.700  -3.101  0.00  0.00    +0.000 A 
ATOM     26  C   UNL     1       2.771  -0.065  -2.448  0.00  0.00    +0.000 A 
ATOM     27  H   UNL     1       5.310  -1.993  -2.728  0.00  0.00    +0.000 HD
ENDBRANCH   2  17
TORSDOF 1
