REMARK  Name = CHEMBL1779404
REMARK  16 active torsions:
REMARK  status: ('A' for Active; 'I' for Inactive)
REMARK    1  A    between atoms: C_1  and  O_2
REMARK    2  A    between atoms: O_2  and  C_3
REMARK    3  A    between atoms: C_6  and  S_7
REMARK    4  A    between atoms: S_7  and  N_10
REMARK    5  A    between atoms: C_13  and  C_14
REMARK    6  A    between atoms: C_13  and  N_24
REMARK    7  A    between atoms: C_17  and  O_18
REMARK    8  A    between atoms: O_18  and  C_19
REMARK    9  A    between atoms: C_21  and  O_22
REMARK   10  A    between atoms: O_22  and  C_23
REMARK   11  A    between atoms: C_26  and  O_27
REMARK   12  A    between atoms: C_29  and  C_30
REMARK   13  A    between atoms: N_32  and  C_33
REMARK   14  A    between atoms: N_32  and  C_34
REMARK   15  A    between atoms: C_42  and  O_43
REMARK   16  A    between atoms: O_43  and  C_44
REMARK                            x       y       z     vdW  Elec       q    Type
REMARK                         _______ _______ _______ _____ _____    ______ ____
ROOT
ATOM      1  N   UNL     1       6.219  -4.458  -6.116  0.00  0.00    +0.000 N 
ATOM      2  C   UNL     1       5.013  -5.140  -6.017  0.00  0.00    +0.000 C 
ATOM      3  O   UNL     1       5.009  -6.041  -5.294  0.00  0.00    +0.000 OA
ATOM      4  C   UNL     1       4.363  -4.926  -7.393  0.00  0.00    +0.000 C 
ATOM      5  C   UNL     1       5.152  -5.904  -8.157  0.00  0.00    +0.000 A 
ATOM      6  C   UNL     1       4.621  -6.969  -9.144  0.00  0.00    +0.000 A 
ATOM      7  C   UNL     1       5.467  -7.983  -9.548  0.00  0.00    +0.000 A 
ATOM      8 CL   UNL     1       5.030  -9.690  -9.389  0.00  0.00    +0.000 Cl
ATOM      9  C   UNL     1       6.790  -7.618  -9.404  0.00  0.00    +0.000 A 
ATOM     10  C   UNL     1       7.238  -6.408  -8.500  0.00  0.00    +0.000 A 
ATOM     11  C   UNL     1       6.424  -5.751  -7.476  0.00  0.00    +0.000 A 
ENDROOT
BRANCH   4  12
ATOM     12  C   UNL     1       3.014  -5.467  -7.178  0.00  0.00    +0.000 A 
ATOM     13  C   UNL     1       2.004  -4.539  -7.170  0.00  0.00    +0.000 A 
ATOM     14  N   UNL     1       0.725  -4.823  -7.120  0.00  0.00    +0.000 NA
ATOM     15  C   UNL     1       0.469  -6.115  -7.046  0.00  0.00    +0.000 A 
ATOM     16  N   UNL     1       1.375  -7.122  -6.917  0.00  0.00    +0.000 NA
ATOM     17  C   UNL     1       2.685  -6.809  -6.905  0.00  0.00    +0.000 A 
BRANCH  15  18
ATOM     18  O   UNL     1      -0.878  -6.340  -7.014  0.00  0.00    +0.000 OA
ATOM     19  C   UNL     1      -1.175  -7.710  -6.958  0.00  0.00    +0.000 C 
ENDBRANCH  15  18
BRANCH  17  20
ATOM     20  O   UNL     1       3.481  -7.934  -6.693  0.00  0.00    +0.000 OA
ATOM     21  C   UNL     1       4.901  -8.186  -6.580  0.00  0.00    +0.000 C 
ENDBRANCH  17  20
ENDBRANCH   4  12
BRANCH   4  22
ATOM     22  N   UNL     1       4.708  -3.510  -8.063  0.00  0.00    +0.000 NA
ATOM     23  C   UNL     1       5.989  -3.383  -8.898  0.00  0.00    +0.000 C 
ATOM     24  C   UNL     1       7.101  -2.694  -8.073  0.00  0.00    +0.000 C 
ATOM     25  C   UNL     1       6.243  -1.690  -7.327  0.00  0.00    +0.000 C 
ATOM     26  C   UNL     1       4.819  -2.295  -7.142  0.00  0.00    +0.000 C 
BRANCH  26  27
ATOM     27  C   UNL     1       3.606  -1.354  -7.470  0.00  0.00    +0.000 C 
ATOM     28  O   UNL     1       2.715  -1.782  -8.217  0.00  0.00    +0.000 OA
ATOM     29  N   UNL     1       3.362  -0.147  -6.832  0.00  0.00    +0.000 N 
ATOM     30  C   UNL     1       4.360   0.757  -6.291  0.00  0.00    +0.000 C 
ATOM     31  C   UNL     1       1.974   0.370  -6.911  0.00  0.00    +0.000 C 
ENDBRANCH  26  27
BRANCH  24  32
ATOM     32  O   UNL     1       7.979  -3.445  -7.240  0.00  0.00    +0.000 OA
ATOM     33  H   UNL     1       7.476  -3.830  -6.495  0.00  0.00    +0.000 HD
ENDBRANCH  24  32
ENDBRANCH   4  22
BRANCH   1  34
ATOM     34  S   UNL     1       6.006  -4.086  -3.964  0.00  0.00    +0.000 S 
ATOM     35  O   UNL     1       7.307  -3.509  -3.667  0.00  0.00    +0.000 OA
ATOM     36  O   UNL     1       5.521  -5.247  -3.248  0.00  0.00    +0.000 OA
BRANCH  34  40
ATOM     37  C   UNL     1       3.131  -1.075  -0.854  0.00  0.00    +0.000 A 
ATOM     38  C   UNL     1       4.244  -1.795  -0.450  0.00  0.00    +0.000 A 
ATOM     39  C   UNL     1       5.069  -2.573  -1.402  0.00  0.00    +0.000 A 
ATOM     40  C   UNL     1       4.809  -2.698  -2.829  0.00  0.00    +0.000 A 
ATOM     41  C   UNL     1       3.619  -2.055  -3.161  0.00  0.00    +0.000 A 
ATOM     42  C   UNL     1       2.840  -1.206  -2.197  0.00  0.00    +0.000 A 
BRANCH  37  44
ATOM     43  C   UNL     1       1.055  -0.156  -0.011  0.00  0.00    +0.000 C 
ATOM     44  O   UNL     1       2.491  -0.241   0.031  0.00  0.00    +0.000 OA
ENDBRANCH  37  44
BRANCH  41  45
ATOM     45  O   UNL     1       3.149  -2.283  -4.409  0.00  0.00    +0.000 OA
ATOM     46  C   UNL     1       2.023  -1.482  -4.686  0.00  0.00    +0.000 C 
ENDBRANCH  41  45
ENDBRANCH  34  40
ENDBRANCH   1  34
TORSDOF 10
