REMARK  Name = CHEMBL605373
REMARK  5 active torsions:
REMARK  status: ('A' for Active; 'I' for Inactive)
REMARK    1  A    between atoms: C_1  and  C_2
REMARK    2  A    between atoms: N_5  and  C_6
REMARK    3  A    between atoms: C_9  and  C_10
REMARK    4  A    between atoms: N_17  and  C_18
REMARK    5  A    between atoms: C_28  and  C_29
REMARK                            x       y       z     vdW  Elec       q    Type
REMARK                         _______ _______ _______ _____ _____    ______ ____
ROOT
ATOM      1  C   UNL     1       8.645  -4.552   0.221  0.00  0.00    +0.000 C 
ATOM      2  O   UNL     1       9.340  -4.734   1.234  0.00  0.00    +0.000 OA
ATOM      3  N   UNL     1       8.989  -5.072  -1.050  0.00  0.00    +0.000 N 
ATOM      4  C   UNL     1      10.015  -6.184  -0.967  0.00  0.00    +0.000 C 
ATOM      5  C   UNL     1      10.093  -7.036  -2.182  0.00  0.00    +0.000 A 
ATOM      6  C   UNL     1      10.298  -8.431  -2.311  0.00  0.00    +0.000 A 
ATOM      7  N   UNL     1      10.271  -8.840  -3.586  0.00  0.00    +0.000 NA
ATOM      8  N   UNL     1      10.098  -7.692  -4.277  0.00  0.00    +0.000 N 
ATOM      9  C   UNL     1       9.944  -7.719  -5.710  0.00  0.00    +0.000 C 
ATOM     10  C   UNL     1      10.138  -6.579  -3.480  0.00  0.00    +0.000 A 
ATOM     11  N   UNL     1      10.217  -5.297  -3.944  0.00  0.00    +0.000 N 
ATOM     12  C   UNL     1      10.198  -4.252  -2.979  0.00  0.00    +0.000 A 
ATOM     13  C   UNL     1      11.329  -3.859  -2.253  0.00  0.00    +0.000 A 
ATOM     14  C   UNL     1      11.183  -2.988  -1.139  0.00  0.00    +0.000 A 
ATOM     15  C   UNL     1      10.011  -2.264  -1.019  0.00  0.00    +0.000 A 
ATOM     16  C   UNL     1       9.001  -2.677  -1.856  0.00  0.00    +0.000 A 
ATOM     17  C   UNL     1       9.082  -4.028  -2.220  0.00  0.00    +0.000 A 
ATOM     18  H   UNL     1       9.538  -5.097  -4.681  0.00  0.00    +0.000 HD
ENDROOT
BRANCH   1  22
ATOM     19  C   UNL     1       5.521  -1.668   0.112  0.00  0.00    +0.000 A 
ATOM     20  C   UNL     1       5.558  -2.683  -0.847  0.00  0.00    +0.000 A 
ATOM     21  C   UNL     1       6.493  -3.699  -0.727  0.00  0.00    +0.000 A 
ATOM     22  C   UNL     1       7.455  -3.656   0.295  0.00  0.00    +0.000 A 
ATOM     23  C   UNL     1       7.439  -2.617   1.237  0.00  0.00    +0.000 A 
ATOM     24  C   UNL     1       6.458  -1.616   1.166  0.00  0.00    +0.000 A 
ATOM     25  C   UNL     1       6.373  -0.608   2.275  0.00  0.00    +0.000 C 
BRANCH  19  30
ATOM     26  C   UNL     1       0.974  -0.118   0.001  0.00  0.00    +0.000 C 
ATOM     27  C   UNL     1       2.453  -0.059  -0.020  0.00  0.00    +0.000 A 
ATOM     28  C   UNL     1       3.261   1.096   0.019  0.00  0.00    +0.000 A 
ATOM     29  C   UNL     1       4.549   0.626   0.028  0.00  0.00    +0.000 A 
ATOM     30  N   UNL     1       4.465  -0.742   0.013  0.00  0.00    +0.000 N 
ATOM     31  N   UNL     1       3.187  -1.173  -0.111  0.00  0.00    +0.000 NA
ENDBRANCH  19  30
ENDBRANCH   1  22
TORSDOF 2
