REMARK  Name = CHEMBL31978
REMARK  5 active torsions:
REMARK  status: ('A' for Active; 'I' for Inactive)
REMARK    1  A    between atoms: C_1  and  S_2
REMARK    2  A    between atoms: S_2  and  N_5
REMARK    3  A    between atoms: C_8  and  C_9
REMARK    4  A    between atoms: C_13  and  C_14
REMARK    5  A    between atoms: C_19  and  N_20
REMARK                            x       y       z     vdW  Elec       q    Type
REMARK                         _______ _______ _______ _____ _____    ______ ____
ROOT
ATOM      1  C   UNL     1       1.441  -1.242  -4.634  0.00  0.00    +0.000 A 
ATOM      2  C   UNL     1       0.722  -1.560  -5.765  0.00  0.00    +0.000 A 
ATOM      3  C   UNL     1      -0.650  -1.527  -5.408  0.00  0.00    +0.000 A 
ATOM      4  C   UNL     1      -1.865  -1.762  -6.077  0.00  0.00    +0.000 A 
ATOM      5  C   UNL     1      -3.076  -1.651  -5.366  0.00  0.00    +0.000 A 
ATOM      6  C   UNL     1      -3.048  -1.340  -3.996  0.00  0.00    +0.000 A 
ATOM      7  C   UNL     1      -1.852  -1.065  -3.319  0.00  0.00    +0.000 A 
ATOM      8  C   UNL     1      -0.684  -1.180  -4.065  0.00  0.00    +0.000 A 
ATOM      9  O   UNL     1       0.581  -0.994  -3.600  0.00  0.00    +0.000 OA
ENDROOT
BRANCH   5  10
ATOM     10  C   UNL     1      -4.353  -1.973  -6.091  0.00  0.00    +0.000 C 
ATOM     11  O   UNL     1      -4.321  -2.420  -7.234  0.00  0.00    +0.000 OA
ATOM     12  N   UNL     1      -5.539  -1.843  -5.388  0.00  0.00    +0.000 N 
ATOM     13  C   UNL     1      -6.465  -2.968  -5.315  0.00  0.00    +0.000 C 
ATOM     14  C   UNL     1      -7.835  -2.600  -5.852  0.00  0.00    +0.000 C 
ATOM     15  C   UNL     1      -8.376  -1.323  -5.173  0.00  0.00    +0.000 C 
ATOM     16  C   UNL     1      -7.364  -0.180  -5.328  0.00  0.00    +0.000 C 
ATOM     17  C   UNL     1      -5.973  -0.560  -4.848  0.00  0.00    +0.000 C 
BRANCH  15  18
ATOM     18  N   UNL     1      -8.874  -1.575  -3.778  0.00  0.00    +0.000 N 
ATOM     19  C   UNL     1      -8.076  -2.037  -2.731  0.00  0.00    +0.000 C 
ATOM     20  O   UNL     1      -6.983  -1.616  -2.371  0.00  0.00    +0.000 OA
ATOM     21  O   UNL     1      -8.586  -3.128  -2.110  0.00  0.00    +0.000 OA
ATOM     22  C   UNL     1      -9.747  -2.779  -1.387  0.00  0.00    +0.000 C 
ATOM     23  C   UNL     1     -10.703  -2.019  -2.251  0.00  0.00    +0.000 A 
ATOM     24  C   UNL     1     -12.024  -1.865  -1.823  0.00  0.00    +0.000 A 
ATOM     25  C   UNL     1     -12.917  -1.139  -2.596  0.00  0.00    +0.000 A 
ATOM     26  C   UNL     1     -12.491  -0.559  -3.789  0.00  0.00    +0.000 A 
ATOM     27  C   UNL     1     -11.170  -0.710  -4.221  0.00  0.00    +0.000 A 
ATOM     28  C   UNL     1     -10.262  -1.447  -3.459  0.00  0.00    +0.000 A 
ENDBRANCH  15  18
ENDBRANCH   5  10
BRANCH   1  32
ATOM     29  N   UNL     1       3.322  -0.368  -1.588  0.00  0.00    +0.000 NA
ATOM     30  C   UNL     1       2.945  -1.767  -1.932  0.00  0.00    +0.000 C 
ATOM     31  C   UNL     1       3.402  -2.147  -3.332  0.00  0.00    +0.000 C 
ATOM     32  C   UNL     1       2.919  -1.147  -4.382  0.00  0.00    +0.000 C 
ATOM     33  C   UNL     1       3.362   0.265  -4.002  0.00  0.00    +0.000 C 
ATOM     34  C   UNL     1       2.909   0.643  -2.601  0.00  0.00    +0.000 C 
BRANCH  29  36
ATOM     35  C   UNL     1       1.112   0.059  -0.026  0.00  0.00    +0.000 C 
ATOM     36  S   UNL     1       2.904   0.073   0.021  0.00  0.00    +0.000 S 
ATOM     37  O   UNL     1       3.332   1.439   0.234  0.00  0.00    +0.000 OA
ATOM     38  O   UNL     1       3.335  -0.991   0.902  0.00  0.00    +0.000 OA
ENDBRANCH  29  36
ENDBRANCH   1  32
TORSDOF 4
