REMARK  Name = CHEMBL286476
REMARK  5 active torsions:
REMARK  status: ('A' for Active; 'I' for Inactive)
REMARK    1  A    between atoms: C_1  and  C_2
REMARK    2  A    between atoms: C_8  and  C_9
REMARK    3  A    between atoms: C_9  and  N_10
REMARK    4  A    between atoms: C_15  and  C_16
REMARK    5  A    between atoms: C_21  and  N_22
REMARK                            x       y       z     vdW  Elec       q    Type
REMARK                         _______ _______ _______ _____ _____    ______ ____
ROOT
ATOM      1  C   UNL     1       7.495  -6.593   5.343  0.00  0.00    +0.000 C 
ATOM      2  O   UNL     1       8.646  -7.017   5.224  0.00  0.00    +0.000 OA
ATOM      3  N   UNL     1       6.725  -6.817   6.523  0.00  0.00    +0.000 N 
ATOM      4  C   UNL     1       7.203  -6.379   7.840  0.00  0.00    +0.000 C 
ATOM      5  C   UNL     1       6.956  -7.419   8.949  0.00  0.00    +0.000 C 
ATOM      6  C   UNL     1       5.217  -7.750   9.231  0.00  0.00    +0.000 C 
ATOM      7  C   UNL     1       5.072  -8.371   7.618  0.00  0.00    +0.000 C 
ATOM      8  C   UNL     1       5.351  -7.327   6.521  0.00  0.00    +0.000 C 
ENDROOT
BRANCH   6   9
ATOM      9  N   UNL     1       4.088  -6.813  10.380  0.00  0.00    +0.000 N 
ATOM     10  C   UNL     1       5.216  -7.051  11.287  0.00  0.00    +0.000 C 
ATOM     11  O   UNL     1       6.032  -8.017  11.409  0.00  0.00    +0.000 OA
ATOM     12  O   UNL     1       5.587  -5.940  11.856  0.00  0.00    +0.000 OA
ATOM     13  C   UNL     1       5.205  -6.121  13.165  0.00  0.00    +0.000 C 
ATOM     14  C   UNL     1       3.847  -5.625  13.037  0.00  0.00    +0.000 A 
ATOM     15  C   UNL     1       3.531  -4.908  14.416  0.00  0.00    +0.000 A 
ATOM     16  C   UNL     1       2.357  -4.361  14.815  0.00  0.00    +0.000 A 
ATOM     17  C   UNL     1       1.520  -4.427  13.726  0.00  0.00    +0.000 A 
ATOM     18  C   UNL     1       1.910  -5.113  12.224  0.00  0.00    +0.000 A 
ATOM     19  C   UNL     1       3.201  -5.896  11.764  0.00  0.00    +0.000 A 
ENDBRANCH   6   9
BRANCH   1  25
ATOM     20  N   UNL     1       5.694  -3.228   1.069  0.00  0.00    +0.000 N 
ATOM     21  C   UNL     1       6.771  -3.356   0.225  0.00  0.00    +0.000 A 
ATOM     22  C   UNL     1       7.668  -4.240   0.765  0.00  0.00    +0.000 A 
ATOM     23  C   UNL     1       7.164  -4.651   2.022  0.00  0.00    +0.000 A 
ATOM     24  C   UNL     1       7.667  -5.514   3.034  0.00  0.00    +0.000 A 
ATOM     25  C   UNL     1       6.931  -5.737   4.217  0.00  0.00    +0.000 A 
ATOM     26  C   UNL     1       5.719  -5.061   4.357  0.00  0.00    +0.000 A 
ATOM     27  C   UNL     1       5.184  -4.217   3.365  0.00  0.00    +0.000 A 
ATOM     28  C   UNL     1       5.927  -4.011   2.197  0.00  0.00    +0.000 A 
BRANCH  20  29
ATOM     29  C   UNL     1       4.500  -2.409   0.806  0.00  0.00    +0.000 C 
BRANCH  29  37
ATOM     30  C   UNL     1       1.153   0.071  -0.066  0.00  0.00    +0.000 C 
ATOM     31  C   UNL     1       2.673   0.031  -0.042  0.00  0.00    +0.000 C 
ATOM     32  O   UNL     1       3.313   0.696   0.768  0.00  0.00    +0.000 OA
ATOM     33  N   UNL     1       3.243  -0.932  -0.852  0.00  0.00    +0.000 N 
ATOM     34  C   UNL     1       2.883  -1.124  -2.246  0.00  0.00    +0.000 C 
ATOM     35  C   UNL     1       3.265  -2.563  -2.477  0.00  0.00    +0.000 C 
ATOM     36  C   UNL     1       4.590  -2.666  -1.743  0.00  0.00    +0.000 C 
ATOM     37  C   UNL     1       4.493  -1.664  -0.554  0.00  0.00    +0.000 C 
ENDBRANCH  29  37
ENDBRANCH  20  29
ENDBRANCH   1  25
TORSDOF 4
