REMARK  Name = CHEMBL4213812
REMARK  1 active torsions:
REMARK  status: ('A' for Active; 'I' for Inactive)
REMARK    1  A    between atoms: C_2  and  C_3
REMARK                            x       y       z     vdW  Elec       q    Type
REMARK                         _______ _______ _______ _____ _____    ______ ____
ROOT
ATOM      1  O   UNL     1       1.170   0.303  -0.128  0.00  0.00    +0.000 OA
ATOM      2  C   UNL     1       2.400   0.195  -0.215  0.00  0.00    +0.000 C 
ATOM      3  N   UNL     1       3.175   1.074  -1.017  0.00  0.00    +0.000 N 
ATOM      4  C   UNL     1       2.682   2.455  -1.275  0.00  0.00    +0.000 C 
ATOM      5  C   UNL     1       1.795   2.742  -2.497  0.00  0.00    +0.000 C 
ATOM      6  C   UNL     1       2.486   2.478  -3.827  0.00  0.00    +0.000 C 
ATOM      7  C   UNL     1       2.719   0.986  -3.969  0.00  0.00    +0.000 C 
ATOM      8  C   UNL     1       4.024   0.622  -3.317  0.00  0.00    +0.000 A 
ATOM      9  C   UNL     1       5.101   0.345  -4.184  0.00  0.00    +0.000 A 
ATOM     10  C   UNL     1       6.355   0.043  -3.679  0.00  0.00    +0.000 A 
ATOM     11  C   UNL     1       6.536   0.007  -2.301  0.00  0.00    +0.000 A 
ATOM     12  C   UNL     1       5.469   0.279  -1.426  0.00  0.00    +0.000 A 
ATOM     13  C   UNL     1       4.198   0.599  -1.913  0.00  0.00    +0.000 A 
ENDROOT
BRANCH   2  14
ATOM     14  C   UNL     1       3.043  -0.811   0.712  0.00  0.00    +0.000 A 
ATOM     15  C   UNL     1       2.533  -2.118   0.843  0.00  0.00    +0.000 A 
ATOM     16  C   UNL     1       3.074  -3.024   1.781  0.00  0.00    +0.000 A 
ATOM     17  C   UNL     1       4.103  -2.617   2.627  0.00  0.00    +0.000 A 
ATOM     18  I   UNL     1       4.954  -3.965   3.970  0.00  0.00    +0.000 I 
ATOM     19  C   UNL     1       4.559  -1.301   2.574  0.00  0.00    +0.000 A 
ATOM     20  C   UNL     1       4.018  -0.402   1.635  0.00  0.00    +0.000 A 
ENDBRANCH   2  14
TORSDOF 1
