REMARK  Name = CHEMBL412210
REMARK  40 active torsions:
REMARK  status: ('A' for Active; 'I' for Inactive)
REMARK    1  A    between atoms: C_1  and  N_2
REMARK    2  A    between atoms: N_2  and  C_14
REMARK    3  A    between atoms: C_3  and  C_5
REMARK    4  A    between atoms: C_5  and  C_6
REMARK    5  A    between atoms: C_6  and  C_7
REMARK    6  A    between atoms: C_10  and  O_11
REMARK    7  A    between atoms: C_14  and  C_15
REMARK    8  A    between atoms: C_14  and  C_23
REMARK    9  A    between atoms: C_15  and  C_16
REMARK   10  A    between atoms: C_19  and  O_20
REMARK   11  A    between atoms: N_25  and  C_26
REMARK   12  A    between atoms: C_26  and  C_27
REMARK   13  A    between atoms: C_26  and  C_34
REMARK   14  A    between atoms: C_27  and  C_28
REMARK   15  A    between atoms: N_36  and  C_37
REMARK   16  A    between atoms: C_37  and  C_38
REMARK   17  A    between atoms: C_37  and  C_43
REMARK   18  A    between atoms: C_38  and  C_39
REMARK   19  A    between atoms: C_39  and  C_40
REMARK   20  A    between atoms: N_45  and  C_46
REMARK   21  A    between atoms: C_46  and  C_47
REMARK   22  A    between atoms: C_46  and  C_51
REMARK   23  A    between atoms: C_47  and  C_48
REMARK   24  A    between atoms: N_53  and  C_54
REMARK   25  A    between atoms: C_54  and  C_55
REMARK   26  A    between atoms: C_54  and  C_62
REMARK   27  A    between atoms: C_55  and  C_56
REMARK   28  A    between atoms: C_56  and  C_57
REMARK   29  A    between atoms: C_57  and  N_58
REMARK   30  A    between atoms: C_68  and  C_69
REMARK   31  A    between atoms: N_71  and  C_99
REMARK   32  A    between atoms: C_72  and  C_74
REMARK   33  A    between atoms: C_87  and  O_88
REMARK   34  A    between atoms: C_94  and  O_95
REMARK   35  A    between atoms: C_99  and  C_100
REMARK   36  A    between atoms: C_99  and  C_105
REMARK   37  A    between atoms: C_100  and  C_101
REMARK   38  A    between atoms: C_101  and  C_102
REMARK   39  A    between atoms: C_102  and  C_103
REMARK   40  A    between atoms: C_103  and  N_104
REMARK                            x       y       z     vdW  Elec       q    Type
REMARK                         _______ _______ _______ _____ _____    ______ ____
ROOT
ATOM      1  C   UNL     1      16.847  -5.580   5.228  0.00  0.00    +0.000 C 
ENDROOT
BRANCH   1   2
ATOM      2  C   UNL     1      18.431  -5.388   5.035  0.00  0.00    +0.000 C 
ATOM      3  O   UNL     1      18.855  -4.327   4.562  0.00  0.00    +0.000 OA
ATOM      4  N   UNL     1      19.333  -6.324   5.532  0.00  0.00    +0.000 N 
ATOM      5  C   UNL     1      19.290  -7.785   5.368  0.00  0.00    +0.000 C 
ATOM      6  C   UNL     1      19.656  -8.219   6.712  0.00  0.00    +0.000 C 
ATOM      7  C   UNL     1      20.899  -7.430   6.907  0.00  0.00    +0.000 C 
ATOM      8  C   UNL     1      20.538  -5.990   6.369  0.00  0.00    +0.000 C 
BRANCH   8   9
ATOM      9  C   UNL     1      21.847  -5.590   5.695  0.00  0.00    +0.000 C 
ATOM     10  O   UNL     1      22.061  -6.167   4.619  0.00  0.00    +0.000 OA
ATOM     11  N   UNL     1      22.854  -4.774   6.381  0.00  0.00    +0.000 N 
ATOM     12  C   UNL     1      22.922  -4.343   7.757  0.00  0.00    +0.000 C 
ATOM     13  O   UNL     1      23.915  -4.239   8.473  0.00  0.00    +0.000 OA
BRANCH  12  14
ATOM     14  C   UNL     1      21.892  -4.492   8.735  0.00  0.00    +0.000 A 
ATOM     15  C   UNL     1      21.603  -3.681   9.840  0.00  0.00    +0.000 A 
ATOM     16  C   UNL     1      20.747  -4.167  10.839  0.00  0.00    +0.000 A 
ATOM     17  C   UNL     1      20.070  -5.321  10.519  0.00  0.00    +0.000 A 
ATOM     18  C   UNL     1      20.512  -6.092   9.450  0.00  0.00    +0.000 A 
ATOM     19  C   UNL     1      21.704  -5.813   8.911  0.00  0.00    +0.000 A 
ATOM     20  C   UNL     1      19.701  -7.294   9.419  0.00  0.00    +0.000 C 
ATOM     21  O   UNL     1      18.647  -7.709   8.950  0.00  0.00    +0.000 OA
ATOM     22  O   UNL     1      19.780  -6.998  10.688  0.00  0.00    +0.000 OA
ATOM     23  C   UNL     1      18.777  -5.936  10.917  0.00  0.00    +0.000 C 
ATOM     24  C   UNL     1      17.978  -7.229  11.470  0.00  0.00    +0.000 A 
ATOM     25  C   UNL     1      18.561  -8.582  11.661  0.00  0.00    +0.000 A 
ATOM     26  C   UNL     1      17.976  -9.707  11.055  0.00  0.00    +0.000 A 
ATOM     27  C   UNL     1      16.698  -9.582  10.539  0.00  0.00    +0.000 A 
ATOM     28  C   UNL     1      16.021  -8.359  10.591  0.00  0.00    +0.000 A 
ATOM     29  C   UNL     1      16.645  -7.195  11.065  0.00  0.00    +0.000 A 
ATOM     30  O   UNL     1      15.958  -6.005  10.993  0.00  0.00    +0.000 OA
ATOM     31  C   UNL     1      16.529  -4.999  10.258  0.00  0.00    +0.000 A 
ATOM     32  C   UNL     1      15.813  -3.801  10.112  0.00  0.00    +0.000 A 
ATOM     33  C   UNL     1      16.267  -2.761   9.305  0.00  0.00    +0.000 A 
ATOM     34  C   UNL     1      17.383  -2.953   8.523  0.00  0.00    +0.000 A 
ATOM     35  C   UNL     1      18.147  -4.127   8.729  0.00  0.00    +0.000 A 
ATOM     36  C   UNL     1      17.799  -5.117   9.743  0.00  0.00    +0.000 A 
BRANCH  33  37
ATOM     37  O   UNL     1      15.643  -1.549   9.258  0.00  0.00    +0.000 OA
ATOM     38  H   UNL     1      14.934  -1.523   9.923  0.00  0.00    +0.000 HD
ENDBRANCH  33  37
BRANCH  27  39
ATOM     39  O   UNL     1      16.078 -10.630   9.920  0.00  0.00    +0.000 OA
ATOM     40  H   UNL     1      16.625 -11.427  10.020  0.00  0.00    +0.000 HD
ENDBRANCH  27  39
ENDBRANCH  12  14
BRANCH  11  41
ATOM     41  C   UNL     1      24.079  -4.515   5.491  0.00  0.00    +0.000 C 
BRANCH  41  42
ATOM     42  C   UNL     1      25.529  -4.055   5.982  0.00  0.00    +0.000 C 
ATOM     43  N   UNL     1      25.758  -3.794   7.283  0.00  0.00    +0.000 N 
ATOM     44  O   UNL     1      26.467  -3.877   5.204  0.00  0.00    +0.000 OA
ATOM     45  H   UNL     1      25.097  -4.090   7.979  0.00  0.00    +0.000 HD
ATOM     46  H   UNL     1      26.616  -3.487   7.706  0.00  0.00    +0.000 HD
ENDBRANCH  41  42
BRANCH  41  47
ATOM     47  C   UNL     1      23.714  -3.488   4.365  0.00  0.00    +0.000 C 
BRANCH  47  48
ATOM     48  C   UNL     1      22.555  -3.899   3.465  0.00  0.00    +0.000 C 
BRANCH  48  49
ATOM     49  C   UNL     1      22.137  -2.894   2.424  0.00  0.00    +0.000 C 
BRANCH  49  50
ATOM     50  C   UNL     1      20.930  -3.451   1.664  0.00  0.00    +0.000 C 
BRANCH  50  51
ATOM     51  N   UNL     1      20.496  -2.462   0.691  0.00  0.00    +0.000 NA
ATOM     52  H   UNL     1      20.213  -1.620   1.191  0.00  0.00    +0.000 HD
ATOM     53  H   UNL     1      19.669  -2.806   0.210  0.00  0.00    +0.000 HD
ENDBRANCH  50  51
ENDBRANCH  49  50
ENDBRANCH  48  49
ENDBRANCH  47  48
ENDBRANCH  41  47
ENDBRANCH  11  41
ENDBRANCH   8   9
ENDBRANCH   1   2
BRANCH   1  56
ATOM     54  C   UNL     1      14.666  -4.424   4.567  0.00  0.00    +0.000 C 
ATOM     55  O   UNL     1      14.028  -4.859   5.528  0.00  0.00    +0.000 OA
ATOM     56  N   UNL     1      16.039  -4.630   4.395  0.00  0.00    +0.000 N 
ATOM     57  H   UNL     1      16.588  -4.034   3.784  0.00  0.00    +0.000 HD
BRANCH  54  58
ATOM     58  C   UNL     1      13.891  -3.590   3.506  0.00  0.00    +0.000 C 
BRANCH  58  61
ATOM     59  C   UNL     1      11.371  -3.169   2.955  0.00  0.00    +0.000 C 
ATOM     60  O   UNL     1      11.570  -2.544   1.912  0.00  0.00    +0.000 OA
ATOM     61  N   UNL     1      12.385  -3.769   3.687  0.00  0.00    +0.000 N 
ATOM     62  H   UNL     1      12.154  -4.469   4.393  0.00  0.00    +0.000 HD
BRANCH  59  63
ATOM     63  C   UNL     1       9.887  -3.368   3.273  0.00  0.00    +0.000 C 
BRANCH  63  66
ATOM     64  C   UNL     1       7.741  -2.215   2.473  0.00  0.00    +0.000 C 
ATOM     65  O   UNL     1       7.068  -2.710   3.380  0.00  0.00    +0.000 OA
ATOM     66  N   UNL     1       9.107  -2.419   2.394  0.00  0.00    +0.000 N 
ATOM     67  H   UNL     1       9.678  -1.903   1.723  0.00  0.00    +0.000 HD
BRANCH  64  68
ATOM     68  C   UNL     1       7.030  -1.356   1.393  0.00  0.00    +0.000 C 
BRANCH  68  71
ATOM     69  C   UNL     1       4.544  -1.169   0.713  0.00  0.00    +0.000 C 
ATOM     70  O   UNL     1       4.769  -1.125  -0.499  0.00  0.00    +0.000 OA
ATOM     71  N   UNL     1       5.532  -1.488   1.627  0.00  0.00    +0.000 N 
ATOM     72  H   UNL     1       5.300  -2.184   2.335  0.00  0.00    +0.000 HD
BRANCH  69  73
ATOM     73  C   UNL     1       3.060  -1.159   1.071  0.00  0.00    +0.000 C 
BRANCH  73  75
ATOM     74  C   UNL     1       3.510  -3.634   0.532  0.00  0.00    +0.000 C 
ATOM     75  N   UNL     1       2.578  -2.493   0.661  0.00  0.00    +0.000 N 
ATOM     76  C   UNL     1       1.218  -2.581   0.557  0.00  0.00    +0.000 C 
ATOM     77  O   UNL     1       0.471  -1.657   0.880  0.00  0.00    +0.000 OA
BRANCH  76  78
ATOM     78  C   UNL     1       0.646  -3.853   0.068  0.00  0.00    +0.000 C 
BRANCH  78  79
ATOM     79  C   UNL     1      -0.827  -3.566  -0.142  0.00  0.00    +0.000 C 
BRANCH  79  80
ATOM     80  C   UNL     1      -1.571  -4.811  -0.451  0.00  0.00    +0.000 A 
ATOM     81  C   UNL     1      -2.610  -5.204   0.397  0.00  0.00    +0.000 A 
ATOM     82  C   UNL     1      -3.358  -6.329   0.088  0.00  0.00    +0.000 A 
ATOM     83  C   UNL     1      -3.047  -7.053  -1.060  0.00  0.00    +0.000 A 
ATOM     84  C   UNL     1      -1.988  -6.690  -1.884  0.00  0.00    +0.000 A 
ATOM     85  C   UNL     1      -1.246  -5.562  -1.582  0.00  0.00    +0.000 A 
BRANCH  83  86
ATOM     86  O   UNL     1      -3.770  -8.146  -1.432  0.00  0.00    +0.000 OA
ATOM     87  H   UNL     1      -4.498  -8.258  -0.801  0.00  0.00    +0.000 HD
ENDBRANCH  83  86
ENDBRANCH  79  80
ENDBRANCH  78  79
ENDBRANCH  76  78
ENDBRANCH  73  75
BRANCH  73  88
ATOM     88  C   UNL     1       2.414   0.011   0.179  0.00  0.00    +0.000 C 
BRANCH  88  89
ATOM     89  C   UNL     1       2.710   1.419   0.621  0.00  0.00    +0.000 A 
ATOM     90  C   UNL     1       3.454   1.676   1.775  0.00  0.00    +0.000 A 
ATOM     91  C   UNL     1       3.765   2.975   2.143  0.00  0.00    +0.000 A 
ATOM     92  C   UNL     1       3.308   4.028   1.362  0.00  0.00    +0.000 A 
ATOM     93  C   UNL     1       2.541   3.802   0.224  0.00  0.00    +0.000 A 
ATOM     94  C   UNL     1       2.243   2.495  -0.154  0.00  0.00    +0.000 A 
BRANCH  92  95
ATOM     95  O   UNL     1       3.646   5.314   1.660  0.00  0.00    +0.000 OA
ATOM     96  H   UNL     1       4.207   5.293   2.452  0.00  0.00    +0.000 HD
ENDBRANCH  92  95
ENDBRANCH  88  89
ENDBRANCH  73  88
ENDBRANCH  69  73
ENDBRANCH  68  71
BRANCH  68  97
ATOM     97  C   UNL     1       7.541   0.093   1.609  0.00  0.00    +0.000 C 
BRANCH  97  98
ATOM     98  C   UNL     1       7.072   1.140   0.631  0.00  0.00    +0.000 A 
ATOM     99  C   UNL     1       7.258   2.497   0.831  0.00  0.00    +0.000 A 
ATOM    100  C   UNL     1       6.537   3.422   0.060  0.00  0.00    +0.000 A 
ATOM    101  C   UNL     1       5.607   2.994  -0.885  0.00  0.00    +0.000 A 
ATOM    102  C   UNL     1       5.511   1.651  -1.150  0.00  0.00    +0.000 A 
ATOM    103  C   UNL     1       6.397   0.789  -0.522  0.00  0.00    +0.000 A 
ENDBRANCH  97  98
ENDBRANCH  68  97
ENDBRANCH  64  68
ENDBRANCH  63  66
BRANCH  63 104
ATOM    104  C   UNL     1       9.646  -4.808   2.847  0.00  0.00    +0.000 C 
BRANCH 104 105
ATOM    105  C   UNL     1       8.187  -5.171   2.948  0.00  0.00    +0.000 C 
BRANCH 105 106
ATOM    106  C   UNL     1       7.819  -6.578   2.633  0.00  0.00    +0.000 C 
ATOM    107  N   UNL     1       8.814  -7.390   2.200  0.00  0.00    +0.000 N 
ATOM    108  O   UNL     1       6.656  -6.963   2.698  0.00  0.00    +0.000 OA
ATOM    109  H   UNL     1       9.777  -7.106   2.093  0.00  0.00    +0.000 HD
ATOM    110  H   UNL     1       8.561  -8.328   1.935  0.00  0.00    +0.000 HD
ENDBRANCH 105 106
ENDBRANCH 104 105
ENDBRANCH  63 104
ENDBRANCH  59  63
ENDBRANCH  58  61
BRANCH  58 111
ATOM    111  C   UNL     1      14.346  -2.164   3.780  0.00  0.00    +0.000 C 
BRANCH 111 112
ATOM    112  C   UNL     1      13.805  -1.110   2.862  0.00  0.00    +0.000 C 
ATOM    113  N   UNL     1      13.513  -1.485   1.588  0.00  0.00    +0.000 N 
ATOM    114  O   UNL     1      13.658   0.054   3.215  0.00  0.00    +0.000 OA
ATOM    115  H   UNL     1      13.151  -2.438   1.503  0.00  0.00    +0.000 HD
ATOM    116  H   UNL     1      12.711  -0.937   1.280  0.00  0.00    +0.000 HD
ENDBRANCH 111 112
ENDBRANCH  58 111
ENDBRANCH  54  58
ENDBRANCH   1  56
BRANCH   1 117
ATOM    117  C   UNL     1      16.425  -7.009   4.927  0.00  0.00    +0.000 C 
BRANCH 117 118
ATOM    118  C   UNL     1      14.963  -7.320   5.074  0.00  0.00    +0.000 C 
BRANCH 118 119
ATOM    119  C   UNL     1      14.653  -8.763   4.804  0.00  0.00    +0.000 C 
BRANCH 119 120
ATOM    120  N   UNL     1      13.216  -8.901   4.992  0.00  0.00    +0.000 NA
ATOM    121  C   UNL     1      12.720 -10.047   4.714  0.00  0.00    +0.000 C 
ATOM    122  N   UNL     1      13.392 -11.120   4.265  0.00  0.00    +0.000 N 
ATOM    123  N   UNL     1      11.394 -10.231   4.802  0.00  0.00    +0.000 N 
ATOM    124  H   UNL     1      14.397 -11.071   4.185  0.00  0.00    +0.000 HD
ATOM    125  H   UNL     1      12.966 -12.021   4.150  0.00  0.00    +0.000 HD
ATOM    126  H   UNL     1      10.868  -9.483   5.238  0.00  0.00    +0.000 HD
ATOM    127  H   UNL     1      10.968 -11.141   4.771  0.00  0.00    +0.000 HD
ENDBRANCH 119 120
ENDBRANCH 118 119
ENDBRANCH 117 118
ENDBRANCH   1 117
TORSDOF 39
