REMARK  Name = CHEMBL466762
REMARK  6 active torsions:
REMARK  status: ('A' for Active; 'I' for Inactive)
REMARK    1  A    between atoms: C_1  and  O_2
REMARK    2  A    between atoms: O_2  and  C_3
REMARK    3  A    between atoms: C_6  and  N_7
REMARK    4  A    between atoms: C_8  and  C_9
REMARK    5  A    between atoms: C_12  and  C_13
REMARK    6  A    between atoms: C_16  and  C_17
REMARK                            x       y       z     vdW  Elec       q    Type
REMARK                         _______ _______ _______ _____ _____    ______ ____
ROOT
ATOM      1  N   UNL     1       4.977   4.103  -2.944  0.00  0.00    +0.000 N 
ATOM      2  C   UNL     1       5.228   4.131  -4.314  0.00  0.00    +0.000 A 
ATOM      3  C   UNL     1       4.734   3.203  -5.366  0.00  0.00    +0.000 C 
ATOM      4  N   UNL     1       5.908   5.225  -4.602  0.00  0.00    +0.000 NA
ATOM      5  N   UNL     1       6.092   5.937  -3.456  0.00  0.00    +0.000 NA
ATOM      6  C   UNL     1       5.542   5.277  -2.448  0.00  0.00    +0.000 A 
ENDROOT
BRANCH   1  10
ATOM      7  C   UNL     1       3.148   1.070  -0.735  0.00  0.00    +0.000 A 
ATOM      8  C   UNL     1       2.758   2.381  -0.497  0.00  0.00    +0.000 A 
ATOM      9  C   UNL     1       3.354   3.410  -1.234  0.00  0.00    +0.000 A 
ATOM     10  C   UNL     1       4.324   3.095  -2.188  0.00  0.00    +0.000 A 
ATOM     11  C   UNL     1       4.696   1.765  -2.316  0.00  0.00    +0.000 A 
ATOM     12  N   UNL     1       4.132   0.754  -1.606  0.00  0.00    +0.000 NA
BRANCH   7  14
ATOM     13  C   UNL     1       1.191  -0.011  -0.034  0.00  0.00    +0.000 C 
ATOM     14  O   UNL     1       2.618   0.008  -0.049  0.00  0.00    +0.000 OA
ENDBRANCH   7  14
ENDBRANCH   1  10
BRANCH   6  15
ATOM     15  C   UNL     1       5.648   5.679  -1.050  0.00  0.00    +0.000 A 
ATOM     16  C   UNL     1       6.281   4.906  -0.080  0.00  0.00    +0.000 A 
ATOM     17  N   UNL     1       6.369   5.275   1.230  0.00  0.00    +0.000 NA
ATOM     18  C   UNL     1       5.800   6.464   1.554  0.00  0.00    +0.000 A 
ATOM     19  C   UNL     1       5.209   7.253   0.565  0.00  0.00    +0.000 A 
ATOM     20  N   UNL     1       5.110   6.881  -0.738  0.00  0.00    +0.000 NA
BRANCH  18  21
ATOM     21  C   UNL     1       5.804   6.845   2.976  0.00  0.00    +0.000 A 
ATOM     22  C   UNL     1       7.027   7.020   3.659  0.00  0.00    +0.000 A 
ATOM     23  C   UNL     1       7.067   7.417   5.003  0.00  0.00    +0.000 A 
ATOM     24  C   UNL     1       5.882   7.639   5.697  0.00  0.00    +0.000 A 
ATOM     25  C   UNL     1       4.668   7.456   5.047  0.00  0.00    +0.000 A 
ATOM     26  F   UNL     1       3.538   7.671   5.738  0.00  0.00    +0.000 F 
ATOM     27  C   UNL     1       4.616   7.060   3.706  0.00  0.00    +0.000 A 
ATOM     28 CL   UNL     1       3.050   6.824   2.998  0.00  0.00    +0.000 Cl
ENDBRANCH  18  21
ENDBRANCH   6  15
TORSDOF 4
