REMARK  Name = CHEMBL200415
REMARK  8 active torsions:
REMARK  status: ('A' for Active; 'I' for Inactive)
REMARK    1  A    between atoms: C_1  and  C_2
REMARK    2  A    between atoms: C_5  and  N_6
REMARK    3  A    between atoms: N_6  and  C_7
REMARK    4  A    between atoms: N_6  and  S_19
REMARK    5  A    between atoms: C_7  and  C_8
REMARK    6  A    between atoms: N_10  and  C_11
REMARK    7  A    between atoms: C_17  and  C_18
REMARK    8  A    between atoms: S_19  and  C_22
REMARK                            x       y       z     vdW  Elec       q    Type
REMARK                         _______ _______ _______ _____ _____    ______ ____
ROOT
ATOM      1  N   UNL     1      -3.180  -0.007   0.018  0.00  0.00    +0.000 N 
ENDROOT
BRANCH   1   6
ATOM      2  C   UNL     1       2.640   0.153  -0.027  0.00  0.00    +0.000 C 
ATOM      3  C   UNL     1       1.150   0.211  -0.017  0.00  0.00    +0.000 A 
ATOM      4  C   UNL     1       0.477  -0.980   0.013  0.00  0.00    +0.000 A 
ATOM      5  C   UNL     1      -0.902  -0.960   0.065  0.00  0.00    +0.000 A 
ATOM      6  C   UNL     1      -1.718   0.159   0.007  0.00  0.00    +0.000 A 
ATOM      7  C   UNL     1      -1.024   1.366  -0.010  0.00  0.00    +0.000 A 
ATOM      8  C   UNL     1       0.396   1.391  -0.014  0.00  0.00    +0.000 A 
ENDBRANCH   1   6
BRANCH   1   9
ATOM      9  S   UNL     1      -4.147   1.439  -0.078  0.00  0.00    +0.000 S 
ATOM     10  O   UNL     1      -3.917   2.162   1.160  0.00  0.00    +0.000 OA
ATOM     11  O   UNL     1      -3.858   2.082  -1.347  0.00  0.00    +0.000 OA
BRANCH   9  12
ATOM     12  C   UNL     1      -5.930   1.149  -0.096  0.00  0.00    +0.000 A 
ATOM     13  C   UNL     1      -6.793   2.258  -0.038  0.00  0.00    +0.000 A 
ATOM     14  C   UNL     1      -8.183   2.064   0.090  0.00  0.00    +0.000 A 
ATOM     15  C   UNL     1      -8.725   0.779   0.108  0.00  0.00    +0.000 A 
ATOM     16  C   UNL     1      -7.886  -0.308   0.005  0.00  0.00    +0.000 A 
ATOM     17  C   UNL     1      -6.518  -0.109  -0.100  0.00  0.00    +0.000 A 
ENDBRANCH   9  12
ENDBRANCH   1   9
BRANCH   1  18
ATOM     18  C   UNL     1      -3.808  -1.359  -0.109  0.00  0.00    +0.000 C 
BRANCH  18  19
ATOM     19  C   UNL     1      -3.185  -2.702  -0.470  0.00  0.00    +0.000 C 
ATOM     20  O   UNL     1      -2.387  -2.805  -1.411  0.00  0.00    +0.000 OA
ATOM     21  N   UNL     1      -3.605  -3.848   0.210  0.00  0.00    +0.000 N 
ATOM     22  H   UNL     1      -4.536  -4.105  -0.114  0.00  0.00    +0.000 HD
BRANCH  21  23
ATOM     23  C   UNL     1      -2.679  -4.952   0.171  0.00  0.00    +0.000 A 
ATOM     24  C   UNL     1      -2.867  -5.994  -0.754  0.00  0.00    +0.000 A 
ATOM     25  C   UNL     1      -1.935  -7.035  -0.842  0.00  0.00    +0.000 A 
ATOM     26  C   UNL     1      -0.816  -7.042  -0.014  0.00  0.00    +0.000 A 
ATOM     27  C   UNL     1      -0.613  -6.006   0.897  0.00  0.00    +0.000 A 
ATOM     28 CL   UNL     1       0.818  -6.100   1.868  0.00  0.00    +0.000 Cl
ATOM     29  C   UNL     1      -1.541  -4.953   1.019  0.00  0.00    +0.000 A 
ATOM     30  C   UNL     1      -1.344  -3.882   2.054  0.00  0.00    +0.000 C 
ENDBRANCH  21  23
ENDBRANCH  18  19
ENDBRANCH   1  18
TORSDOF 6
