REMARK  Name = CHEMBL435021
REMARK  9 active torsions:
REMARK  status: ('A' for Active; 'I' for Inactive)
REMARK    1  A    between atoms: CD1_1  and  CG1_2
REMARK    2  A    between atoms: CG1_2  and  CB_3
REMARK    3  A    between atoms: CB_3  and  CG2_4
REMARK    4  A    between atoms: CB_3  and  CA_5
REMARK    5  A    between atoms: CA_9  and  CB_10
REMARK    6  A    between atoms: CB_10  and  CG_11
REMARK    7  A    between atoms: CA_30  and  CB_31
REMARK    8  A    between atoms: CB_31  and  CG_32
REMARK    9  A    between atoms: N_38  and  C_39
REMARK                            x       y       z     vdW  Elec       q    Type
REMARK                         _______ _______ _______ _____ _____    ______ ____
ROOT
ATOM      1  CA  ILE A   1       4.507   1.191  -0.302  0.00  0.00    +0.000 C 
ATOM      2  N   ILE A   1       5.295   2.265  -0.876  0.00  0.00    +0.000 N 
ATOM      3  C   TRP A   6       5.500   3.532  -0.353  0.00  0.00    +0.000 C 
ATOM      4  O   TRP A   6       5.064   3.925   0.706  0.00  0.00    +0.000 OA
ATOM      5  CA  TRP A   6       6.551   4.366  -1.139  0.00  0.00    +0.000 C 
ATOM      6  N   TRP A   6       7.087   5.478  -0.166  0.00  0.00    +0.000 N 
ATOM      7  C   PRO A   5       8.468   5.624   0.156  0.00  0.00    +0.000 C 
ATOM      8  O   PRO A   5       9.100   6.144  -0.807  0.00  0.00    +0.000 OA
ATOM      9  CA  PRO A   5       9.275   4.210   1.368  0.00  0.00    +0.000 C 
ATOM     10  CB  PRO A   5       9.490   2.773   0.246  0.00  0.00    +0.000 C 
ATOM     11  CG  PRO A   5       8.496   3.624   0.207  0.00  0.00    +0.000 C 
ATOM     12  CD  PRO A   5      10.270   4.463   0.373  0.00  0.00    +0.000 C 
ATOM     13  N   PRO A   5      10.652   4.115   1.610  0.00  0.00    +0.000 N 
ATOM     14  C   PHE A   4      11.503   3.007   1.910  0.00  0.00    +0.000 C 
ATOM     15  O   PHE A   4      12.218   3.174   2.904  0.00  0.00    +0.000 OA
ATOM     16  CA  PHE A   4      11.671   1.482   1.126  0.00  0.00    +0.000 C 
ATOM     17  N   PHE A   4      11.647   0.210   2.106  0.00  0.00    +0.000 N 
ATOM     18  C   ACE A   0      12.089   0.298   3.468  0.00  0.00    +0.000 C 
ATOM     19  C   UNK A   3      11.269  -1.121   1.784  0.00  0.00    +0.000 C 
ATOM     20  O   UNK A   3      12.009  -1.705   0.975  0.00  0.00    +0.000 OA
ATOM     21  C   UNK A   3       9.554  -1.684   2.119  0.00  0.00    +0.000 C 
ATOM     22  C   UNK A   3       8.327  -0.754   2.553  0.00  0.00    +0.000 C 
ATOM     23  N   UNK A   3       8.925   0.393   3.065  0.00  0.00    +0.000 NA
ATOM     24  C   UNK A   3       9.074   0.774   1.695  0.00  0.00    +0.000 C 
ATOM     25  C   UNK A   3       9.451  -0.492   0.274  0.00  0.00    +0.000 C 
ATOM     26  N   UNK A   3       9.101  -1.787   0.761  0.00  0.00    +0.000 N 
ATOM     27  C   LYS A   2       7.764  -2.120   0.585  0.00  0.00    +0.000 C 
ATOM     28  O   LYS A   2       7.274  -2.910   1.386  0.00  0.00    +0.000 OA
ATOM     29  CA  LYS A   2       6.961  -1.022  -0.604  0.00  0.00    +0.000 C 
ATOM     30  CB  LYS A   2       6.911  -1.530  -2.016  0.00  0.00    +0.000 C 
ATOM     31  CG  LYS A   2       7.836  -2.665  -1.922  0.00  0.00    +0.000 C 
ATOM     32  CD  LYS A   2       6.575  -3.475  -1.533  0.00  0.00    +0.000 C 
ATOM     33  CE  LYS A   2       5.381  -2.535  -0.366  0.00  0.00    +0.000 C 
ATOM     34  N   LYS A   2       5.596  -1.042  -0.310  0.00  0.00    +0.000 N 
ATOM     35  C   ILE A   1       4.877  -0.090  -1.084  0.00  0.00    +0.000 C 
ATOM     36  O   ILE A   1       4.639  -0.182  -2.275  0.00  0.00    +0.000 OA
ATOM     37  H   ILE A   1       5.525   2.110  -1.846  0.00  0.00    +0.000 HD
ATOM     38  H   TRP A   6       6.568   5.453   0.698  0.00  0.00    +0.000 HD
ATOM     39  H   UNK A   3       9.902   0.371   3.338  0.00  0.00    +0.000 HD
ENDROOT
BRANCH   1  40
ATOM     40  CB  ILE A   1       2.976   1.301  -0.430  0.00  0.00    +0.000 C 
ATOM     41  CG2 ILE A   1       2.380  -0.004   0.138  0.00  0.00    +0.000 C 
BRANCH  40  43
ATOM     42  CD1 ILE A   1       2.145   3.963  -0.247  0.00  0.00    +0.000 C 
ATOM     43  CG1 ILE A   1       2.369   2.533   0.299  0.00  0.00    +0.000 C 
ENDBRANCH  40  43
ENDBRANCH   1  40
BRANCH   5  44
ATOM     44  CB  TRP A   6       6.511   4.726  -2.592  0.00  0.00    +0.000 C 
BRANCH  44  45
ATOM     45  CG  TRP A   6       6.005   3.658  -3.537  0.00  0.00    +0.000 A 
ATOM     46  CD1 TRP A   6       6.739   2.977  -4.487  0.00  0.00    +0.000 A 
ATOM     47  NE1 TRP A   6       5.911   2.085  -5.129  0.00  0.00    +0.000 N 
ATOM     48  CE2 TRP A   6       4.654   2.106  -4.580  0.00  0.00    +0.000 A 
ATOM     49  CZ2 TRP A   6       3.508   1.311  -4.797  0.00  0.00    +0.000 A 
ATOM     50  CH2 TRP A   6       2.372   1.531  -4.015  0.00  0.00    +0.000 A 
ATOM     51  CZ3 TRP A   6       2.362   2.556  -3.102  0.00  0.00    +0.000 A 
ATOM     52  CE3 TRP A   6       3.517   3.310  -2.901  0.00  0.00    +0.000 A 
ATOM     53  CD2 TRP A   6       4.681   3.125  -3.644  0.00  0.00    +0.000 A 
ATOM     54  HE1 TRP A   6       6.171   1.502  -5.909  0.00  0.00    +0.000 HD
ENDBRANCH  44  45
ENDBRANCH   5  44
BRANCH  16  55
ATOM     55  CB  PHE A   4      12.249   1.310  -0.313  0.00  0.00    +0.000 C 
BRANCH  55  56
ATOM     56  CG  PHE A   4      11.957   2.353  -1.396  0.00  0.00    +0.000 A 
ATOM     57  CD1 PHE A   4      11.105   2.161  -2.506  0.00  0.00    +0.000 A 
ATOM     58  CE1 PHE A   4      10.796   3.231  -3.377  0.00  0.00    +0.000 A 
ATOM     59  CZ  PHE A   4      11.174   4.531  -3.068  0.00  0.00    +0.000 A 
ATOM     60  CE2 PHE A   4      12.070   4.722  -2.030  0.00  0.00    +0.000 A 
ATOM     61  CD2 PHE A   4      12.525   3.619  -1.250  0.00  0.00    +0.000 A 
ENDBRANCH  55  56
ENDBRANCH  16  55
TORSDOF 6
