REMARK  Name = CHEMBL68373
REMARK  9 active torsions:
REMARK  status: ('A' for Active; 'I' for Inactive)
REMARK    1  A    between atoms: C_1  and  O_2
REMARK    2  A    between atoms: O_2  and  C_3
REMARK    3  A    between atoms: C_5  and  O_6
REMARK    4  A    between atoms: O_6  and  C_7
REMARK    5  A    between atoms: N_10  and  C_11
REMARK    6  A    between atoms: C_11  and  C_12
REMARK    7  A    between atoms: C_15  and  C_16
REMARK    8  A    between atoms: C_24  and  C_25
REMARK    9  A    between atoms: C_30  and  N_31
REMARK                            x       y       z     vdW  Elec       q    Type
REMARK                         _______ _______ _______ _____ _____    ______ ____
ROOT
ATOM      1  C   UNL     1       3.054  -0.228  -0.755  0.00  0.00    +0.000 A 
ATOM      2  C   UNL     1       4.256  -1.000  -0.952  0.00  0.00    +0.000 A 
ATOM      3  C   UNL     1       4.974  -0.880  -2.097  0.00  0.00    +0.000 A 
ATOM      4  C   UNL     1       4.298  -0.116  -2.989  0.00  0.00    +0.000 A 
ATOM      5  C   UNL     1       3.184   0.700  -2.866  0.00  0.00    +0.000 A 
ATOM      6  C   UNL     1       2.502   0.692  -1.697  0.00  0.00    +0.000 A 
ENDROOT
BRANCH   6   7
ATOM      7  C   UNL     1       1.238   1.567  -1.771  0.00  0.00    +0.000 C 
ATOM      8  O   UNL     1       0.904   2.003  -2.882  0.00  0.00    +0.000 OA
ATOM      9  N   UNL     1       0.401   1.784  -0.639  0.00  0.00    +0.000 N 
ATOM     10  C   UNL     1      -0.934   1.136  -0.659  0.00  0.00    +0.000 C 
ATOM     11  C   UNL     1      -1.953   1.830   0.245  0.00  0.00    +0.000 C 
ATOM     12  C   UNL     1      -1.548   1.826   1.999  0.00  0.00    +0.000 C 
ATOM     13  C   UNL     1      -0.056   2.719   1.696  0.00  0.00    +0.000 C 
ATOM     14  C   UNL     1       0.957   2.067   0.693  0.00  0.00    +0.000 C 
BRANCH  12  15
ATOM     15  N   UNL     1      -2.661   1.157   3.307  0.00  0.00    +0.000 N 
ATOM     16  C   UNL     1      -3.609   0.929   2.348  0.00  0.00    +0.000 C 
ATOM     17  O   UNL     1      -4.220   1.895   1.704  0.00  0.00    +0.000 OA
ATOM     18  O   UNL     1      -3.670  -0.296   1.867  0.00  0.00    +0.000 OA
ATOM     19  C   UNL     1      -4.521  -0.858   2.819  0.00  0.00    +0.000 C 
ATOM     20  C   UNL     1      -3.441  -1.256   3.748  0.00  0.00    +0.000 A 
ATOM     21  C   UNL     1      -2.844  -2.472   4.109  0.00  0.00    +0.000 A 
ATOM     22  C   UNL     1      -3.102  -3.062   5.350  0.00  0.00    +0.000 A 
ATOM     23  C   UNL     1      -3.803  -2.244   6.179  0.00  0.00    +0.000 A 
ATOM     24  C   UNL     1      -3.824  -0.769   5.705  0.00  0.00    +0.000 A 
ATOM     25  C   UNL     1      -2.972  -0.232   4.445  0.00  0.00    +0.000 A 
ENDBRANCH  12  15
ENDBRANCH   6   7
BRANCH   1  27
ATOM     26  C   UNL     1       1.197  -0.917   0.329  0.00  0.00    +0.000 C 
ATOM     27  O   UNL     1       2.538  -0.533   0.475  0.00  0.00    +0.000 OA
ENDBRANCH   1  27
BRANCH   3  28
ATOM     28  O   UNL     1       6.195  -1.440  -2.303  0.00  0.00    +0.000 OA
BRANCH  28  29
ATOM     29  C   UNL     1       7.076  -1.180  -3.455  0.00  0.00    +0.000 C 
ATOM     30  C   UNL     1       7.477   0.276  -3.783  0.00  0.00    +0.000 C 
ATOM     31  C   UNL     1       6.397   1.068  -4.510  0.00  0.00    +0.000 C 
ATOM     32  N   UNL     1       5.782   0.296  -5.656  0.00  0.00    +0.000 NA
ATOM     33  C   UNL     1       5.580  -1.186  -5.461  0.00  0.00    +0.000 C 
ATOM     34  C   UNL     1       6.666  -1.915  -4.722  0.00  0.00    +0.000 C 
BRANCH  32  35
ATOM     35  C   UNL     1       4.523   0.965  -6.076  0.00  0.00    +0.000 C 
BRANCH  35  36
ATOM     36  C   UNL     1       3.818   0.358  -7.247  0.00  0.00    +0.000 A 
ATOM     37  C   UNL     1       3.269  -0.932  -7.215  0.00  0.00    +0.000 A 
ATOM     38  C   UNL     1       2.716  -1.494  -8.338  0.00  0.00    +0.000 A 
ATOM     39  C   UNL     1       2.537  -0.687  -9.454  0.00  0.00    +0.000 A 
ATOM     40  C   UNL     1       1.834  -1.201 -10.654  0.00  0.00    +0.000 C 
ATOM     41  N   UNL     1       2.950   0.649  -9.463  0.00  0.00    +0.000 N 
ATOM     42  O   UNL     1       2.732   1.411 -10.455  0.00  0.00    +0.000 OA
ATOM     43  C   UNL     1       3.608   1.145  -8.366  0.00  0.00    +0.000 A 
ENDBRANCH  35  36
ENDBRANCH  32  35
ENDBRANCH  28  29
ENDBRANCH   3  28
TORSDOF 7
