REMARK  Name = CHEMBL287629
REMARK  7 active torsions:
REMARK  status: ('A' for Active; 'I' for Inactive)
REMARK    1  A    between atoms: C_2  and  C_3
REMARK    2  A    between atoms: C_3  and  N_4
REMARK    3  A    between atoms: C_6  and  C_7
REMARK    4  A    between atoms: N_15  and  C_16
REMARK    5  A    between atoms: C_16  and  C_17
REMARK    6  A    between atoms: C_21  and  C_22
REMARK    7  A    between atoms: C_27  and  N_28
REMARK                            x       y       z     vdW  Elec       q    Type
REMARK                         _______ _______ _______ _____ _____    ______ ____
ROOT
ATOM      1  C   UNL     1       5.378  -0.277  -2.878  0.00  0.00    +0.000 A 
ATOM      2  C   UNL     1       6.702   0.130  -2.945  0.00  0.00    +0.000 A 
ATOM      3  C   UNL     1       7.010   0.167  -4.328  0.00  0.00    +0.000 A 
ATOM      4  C   UNL     1       6.404   0.798  -5.463  0.00  0.00    +0.000 A 
ATOM      5  C   UNL     1       6.540   0.379  -6.806  0.00  0.00    +0.000 A 
ATOM      6  C   UNL     1       7.416  -0.669  -7.037  0.00  0.00    +0.000 A 
ATOM      7  C   UNL     1       7.739  -1.455  -5.900  0.00  0.00    +0.000 A 
ATOM      8  C   UNL     1       7.053  -1.192  -4.617  0.00  0.00    +0.000 A 
ATOM      9  O   UNL     1       5.448  -1.259  -4.089  0.00  0.00    +0.000 OA
ENDROOT
BRANCH   5  10
ATOM     10  C   UNL     1       5.663   0.958  -7.897  0.00  0.00    +0.000 C 
ATOM     11  O   UNL     1       5.856   0.547  -9.044  0.00  0.00    +0.000 OA
ATOM     12  N   UNL     1       4.619   1.899  -7.546  0.00  0.00    +0.000 N 
ATOM     13  C   UNL     1       3.185   1.598  -7.647  0.00  0.00    +0.000 C 
ATOM     14  C   UNL     1       2.286   2.853  -8.109  0.00  0.00    +0.000 C 
ATOM     15  C   UNL     1       2.080   4.409  -6.956  0.00  0.00    +0.000 C 
ATOM     16  C   UNL     1       3.975   4.394  -7.140  0.00  0.00    +0.000 C 
ATOM     17  C   UNL     1       4.841   3.093  -6.731  0.00  0.00    +0.000 C 
BRANCH  15  18
ATOM     18  N   UNL     1       0.570   5.162  -5.962  0.00  0.00    +0.000 N 
ATOM     19  C   UNL     1       0.239   3.911  -6.569  0.00  0.00    +0.000 C 
ATOM     20  O   UNL     1      -0.102   3.661  -7.711  0.00  0.00    +0.000 OA
ATOM     21  C   UNL     1       0.162   3.289  -5.293  0.00  0.00    +0.000 C 
ATOM     22  C   UNL     1      -1.348   3.417  -5.771  0.00  0.00    +0.000 C 
ATOM     23  C   UNL     1      -1.554   3.812  -4.446  0.00  0.00    +0.000 A 
ATOM     24  C   UNL     1      -2.507   2.783  -3.670  0.00  0.00    +0.000 A 
ATOM     25  C   UNL     1      -3.338   3.028  -2.635  0.00  0.00    +0.000 A 
ATOM     26  C   UNL     1      -3.217   4.377  -2.463  0.00  0.00    +0.000 A 
ATOM     27  C   UNL     1      -2.045   5.376  -3.350  0.00  0.00    +0.000 A 
ATOM     28  C   UNL     1      -0.897   5.087  -4.559  0.00  0.00    +0.000 A 
ENDBRANCH  15  18
ENDBRANCH   5  10
BRANCH   1  29
ATOM     29  C   UNL     1       4.553  -0.259  -1.498  0.00  0.00    +0.000 C 
BRANCH  29  32
ATOM     30  O   UNL     1       1.127  -0.075  -0.209  0.00  0.00    +0.000 OA
ATOM     31  C   UNL     1       2.361  -0.077  -0.153  0.00  0.00    +0.000 C 
ATOM     32  N   UNL     1       3.096  -0.167  -1.353  0.00  0.00    +0.000 N 
ATOM     33  H   UNL     1       2.516  -0.196  -2.181  0.00  0.00    +0.000 HD
BRANCH  31  34
ATOM     34  C   UNL     1       3.095  -0.008   1.230  0.00  0.00    +0.000 C 
BRANCH  34  35
ATOM     35  N   UNL     1       2.185   0.057   2.402  0.00  0.00    +0.000 N 
ATOM     36  C   UNL     1       1.654  -1.107   2.949  0.00  0.00    +0.000 A 
ATOM     37  C   UNL     1       0.588  -1.080   3.773  0.00  0.00    +0.000 A 
ATOM     38  C   UNL     1       0.111   0.198   4.262  0.00  0.00    +0.000 A 
ATOM     39  C   UNL     1       0.734   1.329   3.909  0.00  0.00    +0.000 A 
ATOM     40  C   UNL     1       1.737   1.315   2.807  0.00  0.00    +0.000 A 
ATOM     41  O   UNL     1       2.115   2.378   2.323  0.00  0.00    +0.000 OA
BRANCH  37  42
ATOM     42  C   UNL     1      -0.139  -2.308   4.233  0.00  0.00    +0.000 C 
ATOM     43  F   UNL     1      -0.126  -2.437   5.584  0.00  0.00    +0.000 F 
ATOM     44  F   UNL     1      -1.444  -2.287   3.855  0.00  0.00    +0.000 F 
ATOM     45  F   UNL     1       0.401  -3.444   3.722  0.00  0.00    +0.000 F 
ENDBRANCH  37  42
ENDBRANCH  34  35
ENDBRANCH  31  34
ENDBRANCH  29  32
ENDBRANCH   1  29
TORSDOF 7
