REMARK  Name = CHEMBL31645
REMARK  2 active torsions:
REMARK  status: ('A' for Active; 'I' for Inactive)
REMARK    1  A    between atoms: C_2  and  C_3
REMARK    2  A    between atoms: C_15  and  N_16
REMARK                            x       y       z     vdW  Elec       q    Type
REMARK                         _______ _______ _______ _____ _____    ______ ____
ROOT
ATOM      1  O   UNL     1       0.981  -0.127   0.004  0.00  0.00    +0.000 OA
ATOM      2  C   UNL     1       2.207  -0.045  -0.007  0.00  0.00    +0.000 C 
ATOM      3  N   UNL     1       2.959   0.286   1.110  0.00  0.00    +0.000 N 
ATOM      4  C   UNL     1       4.101   1.192   1.054  0.00  0.00    +0.000 C 
ATOM      5  C   UNL     1       5.298   0.544   1.716  0.00  0.00    +0.000 C 
ATOM      6  C   UNL     1       4.957   0.095   3.154  0.00  0.00    +0.000 C 
ATOM      7  C   UNL     1       3.698  -0.788   3.166  0.00  0.00    +0.000 C 
ATOM      8  C   UNL     1       2.525  -0.147   2.431  0.00  0.00    +0.000 C 
ENDROOT
BRANCH   6   9
ATOM      9  N   UNL     1       4.965   1.233   4.131  0.00  0.00    +0.000 N 
ATOM     10  C   UNL     1       4.096   2.323   4.077  0.00  0.00    +0.000 C 
ATOM     11  O   UNL     1       2.883   2.314   3.912  0.00  0.00    +0.000 OA
ATOM     12  O   UNL     1       4.730   3.520   4.156  0.00  0.00    +0.000 OA
ATOM     13  C   UNL     1       5.281   3.704   5.442  0.00  0.00    +0.000 C 
ATOM     14  C   UNL     1       6.087   2.512   5.854  0.00  0.00    +0.000 A 
ATOM     15  C   UNL     1       6.963   2.625   6.936  0.00  0.00    +0.000 A 
ATOM     16  C   UNL     1       7.695   1.521   7.349  0.00  0.00    +0.000 A 
ATOM     17  C   UNL     1       7.545   0.303   6.692  0.00  0.00    +0.000 A 
ATOM     18  C   UNL     1       6.670   0.185   5.611  0.00  0.00    +0.000 A 
ATOM     19  C   UNL     1       5.937   1.291   5.174  0.00  0.00    +0.000 A 
ENDBRANCH   6   9
BRANCH   2  20
ATOM     20  C   UNL     1       2.961  -0.446  -1.241  0.00  0.00    +0.000 A 
ATOM     21  C   UNL     1       2.511  -0.000  -2.480  0.00  0.00    +0.000 A 
ATOM     22  C   UNL     1       3.137  -0.460  -3.639  0.00  0.00    +0.000 A 
ATOM     23  C   UNL     1       4.166  -1.383  -3.452  0.00  0.00    +0.000 A 
ATOM     24  N   UNL     1       4.970  -2.052  -4.348  0.00  0.00    +0.000 N 
ATOM     25  C   UNL     1       5.836  -2.879  -3.677  0.00  0.00    +0.000 A 
ATOM     26  C   UNL     1       5.591  -2.740  -2.327  0.00  0.00    +0.000 A 
ATOM     27  C   UNL     1       4.551  -1.792  -2.177  0.00  0.00    +0.000 A 
ATOM     28  N   UNL     1       3.981  -1.325  -1.040  0.00  0.00    +0.000 NA
ATOM     29  H   UNL     1       4.926  -1.950  -5.354  0.00  0.00    +0.000 HD
ENDBRANCH   2  20
TORSDOF 2
