REMARK  Name = CHEMBL2037509
REMARK  11 active torsions:
REMARK  status: ('A' for Active; 'I' for Inactive)
REMARK    1  A    between atoms: CD1_1  and  CG1_2
REMARK    2  A    between atoms: CG1_2  and  CB_3
REMARK    3  A    between atoms: CB_3  and  CG2_4
REMARK    4  A    between atoms: CB_3  and  CA_5
REMARK    5  A    between atoms: C_9  and  C_10
REMARK    6  A    between atoms: N_21  and  C_22
REMARK    7  A    between atoms: C_22  and  C_23
REMARK    8  A    between atoms: C_22  and  C_27
REMARK    9  A    between atoms: N_25  and  C_26
REMARK   10  A    between atoms: C_30  and  C_31
REMARK   11  A    between atoms: C_33  and  C_34
REMARK                            x       y       z     vdW  Elec       q    Type
REMARK                         _______ _______ _______ _____ _____    ______ ____
ROOT
ATOM      1  CA  ILE A   2       4.755   1.079   0.751  0.00  0.00    +0.000 C 
ATOM      2  C   ILE A   2       5.365   1.582   2.069  0.00  0.00    +0.000 C 
ATOM      3  O   ILE A   2       5.130   1.166   3.195  0.00  0.00    +0.000 OA
ATOM      4  N   UNK A   1       6.372   2.464   1.917  0.00  0.00    +0.000 N 
ATOM      5  C   UNK A   1       7.239   2.190   0.808  0.00  0.00    +0.000 C 
ATOM      6  C   UNK A   1       6.448   2.461  -0.452  0.00  0.00    +0.000 C 
ATOM      7  O   UNK A   1       7.072   2.963  -1.376  0.00  0.00    +0.000 OA
ATOM      8  N   ILE A   2       5.095   2.028  -0.425  0.00  0.00    +0.000 N 
ATOM      9  H   UNK A   1       6.767   2.702   2.817  0.00  0.00    +0.000 HD
ENDROOT
BRANCH   5  10
ATOM     10  C   UNK A   1       8.543   2.995   0.847  0.00  0.00    +0.000 C 
ATOM     11  C   UNK A   1       9.266   2.632   2.155  0.00  0.00    +0.000 C 
ATOM     12  C   UNK A   1       8.856   3.765   3.048  0.00  0.00    +0.000 A 
ATOM     13  C   UNK A   1       8.852   3.792   4.430  0.00  0.00    +0.000 A 
ATOM     14  C   UNK A   1       8.408   4.951   5.069  0.00  0.00    +0.000 A 
ATOM     15  C   UNK A   1       7.976   6.060   4.325  0.00  0.00    +0.000 A 
ATOM     16  C   UNK A   1       7.948   6.012   2.931  0.00  0.00    +0.000 A 
ATOM     17  C   UNK A   1       8.369   4.849   2.308  0.00  0.00    +0.000 A 
ATOM     18  C   UNK A   1       8.383   4.539   0.844  0.00  0.00    +0.000 C 
ENDBRANCH   5  10
BRANCH   1  19
ATOM     19  CB  ILE A   2       3.264   0.984   0.978  0.00  0.00    +0.000 C 
ATOM     20  CG2 ILE A   2       2.671  -0.100   0.038  0.00  0.00    +0.000 C 
BRANCH  19  22
ATOM     21  CD1 ILE A   2       2.539   2.184   3.253  0.00  0.00    +0.000 C 
ATOM     22  CG1 ILE A   2       2.557   0.928   2.347  0.00  0.00    +0.000 C 
ENDBRANCH  19  22
ENDBRANCH   1  19
BRANCH   8  23
ATOM     23  C   UNK A   0       4.065   2.440  -1.556  0.00  0.00    +0.000 C 
BRANCH  23  24
ATOM     24  C   UNK A   0       4.806   3.198  -2.746  0.00  0.00    +0.000 A 
ATOM     25  C   UNK A   0       5.820   2.504  -3.472  0.00  0.00    +0.000 A 
ATOM     26  C   UNK A   0       6.746   3.201  -4.274  0.00  0.00    +0.000 A 
ATOM     27  C   UNK A   0       6.593   4.562  -4.431  0.00  0.00    +0.000 A 
ATOM     28  C   UNK A   0       7.474   5.437  -5.245  0.00  0.00    +0.000 C 
ATOM     29  N   UNK A   0       5.586   5.220  -3.869  0.00  0.00    +0.000 NA
ATOM     30  C   UNK A   0       4.734   4.571  -3.050  0.00  0.00    +0.000 A 
ATOM     31  C   UNK A   0       3.733   5.554  -2.597  0.00  0.00    +0.000 C 
ENDBRANCH  23  24
BRANCH  23  32
ATOM     32  C   UNK A   0       2.638   3.202  -1.069  0.00  0.00    +0.000 C 
ATOM     33  O   UNK A   0       2.420   4.372  -1.204  0.00  0.00    +0.000 OA
ATOM     34  N   UNK A   0       1.553   2.663  -0.408  0.00  0.00    +0.000 N 
ATOM     35  C   UNK A   0       0.714   3.577   0.373  0.00  0.00    +0.000 C 
ATOM     36  H   UNK A   0       1.459   1.717  -0.126  0.00  0.00    +0.000 HD
ENDBRANCH  23  32
ENDBRANCH   8  23
TORSDOF 6
