REMARK  Name = CHEMBL590097
REMARK  9 active torsions:
REMARK  status: ('A' for Active; 'I' for Inactive)
REMARK    1  A    between atoms: C_1  and  O_2
REMARK    2  A    between atoms: O_2  and  C_3
REMARK    3  A    between atoms: C_3  and  C_4
REMARK    4  A    between atoms: C_11  and  O_12
REMARK    5  A    between atoms: O_12  and  C_13
REMARK    6  A    between atoms: C_18  and  C_19
REMARK    7  A    between atoms: N_21  and  C_22
REMARK    8  A    between atoms: C_25  and  O_26
REMARK    9  A    between atoms: O_26  and  C_27
REMARK                            x       y       z     vdW  Elec       q    Type
REMARK                         _______ _______ _______ _____ _____    ______ ____
ROOT
ATOM      1  C   UNL     1       4.470   1.206   0.386  0.00  0.00    +0.000 A 
ATOM      2  N   UNL     1       5.313   0.926   1.369  0.00  0.00    +0.000 NA
ATOM      3  N   UNL     1       6.596   0.926   0.863  0.00  0.00    +0.000 NA
ATOM      4  C   UNL     1       6.556   1.253  -0.426  0.00  0.00    +0.000 A 
ATOM      5  N   UNL     1       7.608   1.585  -1.216  0.00  0.00    +0.000 N 
ATOM      6  C   UNL     1       7.607   2.763  -2.037  0.00  0.00    +0.000 C 
ATOM      7  C   UNL     1       7.968   2.187  -3.378  0.00  0.00    +0.000 C 
ATOM      8  C   UNL     1       9.124   1.261  -3.128  0.00  0.00    +0.000 C 
ATOM      9  C   UNL     1       8.638   0.645  -1.742  0.00  0.00    +0.000 C 
ATOM     10  N   UNL     1       5.206   1.432  -0.757  0.00  0.00    +0.000 N 
ENDROOT
BRANCH  10  11
ATOM     11  C   UNL     1       4.669   1.726  -2.026  0.00  0.00    +0.000 A 
ATOM     12  C   UNL     1       3.887   2.860  -2.222  0.00  0.00    +0.000 A 
ATOM     13  C   UNL     1       3.426   3.130  -3.507  0.00  0.00    +0.000 A 
ATOM     14  C   UNL     1       3.764   2.266  -4.542  0.00  0.00    +0.000 A 
ATOM     15  N   UNL     1       4.528   1.167  -4.352  0.00  0.00    +0.000 NA
ATOM     16  C   UNL     1       4.962   0.911  -3.097  0.00  0.00    +0.000 A 
BRANCH  14  17
ATOM     17  O   UNL     1       3.383   2.430  -5.844  0.00  0.00    +0.000 OA
ATOM     18  C   UNL     1       2.574   3.562  -6.124  0.00  0.00    +0.000 C 
ENDBRANCH  14  17
ENDBRANCH  10  11
BRANCH   1  19
ATOM     19  C   UNL     1       2.976   1.226   0.462  0.00  0.00    +0.000 C 
BRANCH  19  21
ATOM     20  C   UNL     1       1.042  -0.032  -0.048  0.00  0.00    +0.000 C 
ATOM     21  O   UNL     1       2.470  -0.014  -0.043  0.00  0.00    +0.000 OA
ENDBRANCH  19  21
ENDBRANCH   1  19
BRANCH   8  22
ATOM     22  O   UNL     1      10.358   2.034  -3.029  0.00  0.00    +0.000 OA
BRANCH  22  23
ATOM     23  C   UNL     1      10.968   2.531  -4.179  0.00  0.00    +0.000 A 
ATOM     24  C   UNL     1      12.252   2.011  -4.452  0.00  0.00    +0.000 A 
ATOM     25  C   UNL     1      13.080   2.571  -5.446  0.00  0.00    +0.000 A 
ATOM     26  C   UNL     1      12.649   3.655  -6.195  0.00  0.00    +0.000 A 
ATOM     27  C   UNL     1      11.400   4.184  -5.945  0.00  0.00    +0.000 A 
ATOM     28  C   UNL     1      10.565   3.671  -4.931  0.00  0.00    +0.000 A 
ATOM     29  C   UNL     1       9.310   4.487  -4.812  0.00  0.00    +0.000 C 
ENDBRANCH  22  23
ENDBRANCH   8  22
TORSDOF 6
