REMARK  Name = CHEMBL436540
REMARK  13 active torsions:
REMARK  status: ('A' for Active; 'I' for Inactive)
REMARK    1  A    between atoms: C_1  and  C_2
REMARK    2  A    between atoms: C_2  and  C_4
REMARK    3  A    between atoms: C_4  and  C_5
REMARK    4  A    between atoms: C_5  and  C_6
REMARK    5  A    between atoms: C_6  and  C_7
REMARK    6  A    between atoms: N_9  and  C_10
REMARK    7  A    between atoms: C_12  and  C_13
REMARK    8  A    between atoms: N_25  and  C_26
REMARK    9  A    between atoms: C_26  and  C_27
REMARK   10  A    between atoms: N_29  and  C_30
REMARK   11  A    between atoms: C_30  and  C_31
REMARK   12  A    between atoms: C_30  and  C_39
REMARK   13  A    between atoms: C_31  and  C_32
REMARK                            x       y       z     vdW  Elec       q    Type
REMARK                         _______ _______ _______ _____ _____    ______ ____
ROOT
ATOM      1  C   UNL     1       9.351   2.852  -0.344  0.00  0.00    +0.000 C 
ATOM      2  N   UNL     1       9.585   1.732   0.578  0.00  0.00    +0.000 NA
ATOM      3  C   UNL     1      10.729   1.167   0.592  0.00  0.00    +0.000 C 
ATOM      4  C   UNL     1      11.838   1.674  -0.163  0.00  0.00    +0.000 A 
ATOM      5  C   UNL     1      12.713   0.713  -0.696  0.00  0.00    +0.000 A 
ATOM      6  C   UNL     1      13.853   1.193  -1.195  0.00  0.00    +0.000 A 
ATOM      7  C   UNL     1      13.879   2.570  -1.271  0.00  0.00    +0.000 A 
ATOM      8  C   UNL     1      12.942   3.531  -1.085  0.00  0.00    +0.000 A 
ATOM      9  C   UNL     1      12.012   3.082  -0.248  0.00  0.00    +0.000 A 
ATOM     10  N   UNL     1      11.337   4.069   0.499  0.00  0.00    +0.000 N 
ATOM     11  C   UNL     1       9.964   4.128   0.320  0.00  0.00    +0.000 C 
ATOM     12  O   UNL     1       9.308   5.135   0.601  0.00  0.00    +0.000 OA
ENDROOT
BRANCH   3  13
ATOM     13  C   UNL     1      10.993  -0.035   1.399  0.00  0.00    +0.000 A 
ATOM     14  C   UNL     1      10.348  -1.224   1.072  0.00  0.00    +0.000 A 
ATOM     15  C   UNL     1      10.510  -2.315   1.916  0.00  0.00    +0.000 A 
ATOM     16  C   UNL     1      11.415  -2.247   2.980  0.00  0.00    +0.000 A 
ATOM     17  C   UNL     1      12.207  -1.114   3.169  0.00  0.00    +0.000 A 
ATOM     18  C   UNL     1      11.973   0.015   2.397  0.00  0.00    +0.000 A 
ENDBRANCH   3  13
BRANCH   1  21
ATOM     19  C   UNL     1       7.089   1.973  -0.431  0.00  0.00    +0.000 C 
ATOM     20  O   UNL     1       7.443   0.795  -0.405  0.00  0.00    +0.000 OA
ATOM     21  N   UNL     1       7.940   3.042  -0.489  0.00  0.00    +0.000 N 
ATOM     22  H   UNL     1       7.619   3.996  -0.574  0.00  0.00    +0.000 HD
BRANCH  19  23
ATOM     23  C   UNL     1       5.633   2.347  -0.420  0.00  0.00    +0.000 C 
BRANCH  23  24
ATOM     24  C   UNL     1       4.832   1.066  -0.212  0.00  0.00    +0.000 C 
BRANCH  24  25
ATOM     25  C   UNL     1       3.333   1.284  -0.242  0.00  0.00    +0.000 C 
BRANCH  25  27
ATOM     26  C   UNL     1       1.099   0.022  -0.053  0.00  0.00    +0.000 C 
ATOM     27  C   UNL     1       2.600  -0.033  -0.044  0.00  0.00    +0.000 C 
ATOM     28  O   UNL     1       3.181  -1.106   0.115  0.00  0.00    +0.000 OA
ENDBRANCH  25  27
ENDBRANCH  24  25
ENDBRANCH  23  24
ENDBRANCH  19  23
ENDBRANCH   1  21
BRANCH  10  29
ATOM     29  C   UNL     1      12.085   5.233   1.065  0.00  0.00    +0.000 C 
BRANCH  29  30
ATOM     30  C   UNL     1      13.612   5.082   1.345  0.00  0.00    +0.000 C 
ATOM     31  O   UNL     1      14.178   3.974   1.455  0.00  0.00    +0.000 OA
ATOM     32  N   UNL     1      14.355   6.230   1.489  0.00  0.00    +0.000 N 
ATOM     33  H   UNL     1      13.881   7.012   1.917  0.00  0.00    +0.000 HD
BRANCH  32  34
ATOM     34  C   UNL     1      15.833   6.142   1.573  0.00  0.00    +0.000 C 
BRANCH  34  35
ATOM     35  C   UNL     1      16.502   7.320   2.330  0.00  0.00    +0.000 C 
ATOM     36  N   UNL     1      15.705   8.292   2.862  0.00  0.00    +0.000 N 
ATOM     37  O   UNL     1      17.721   7.415   2.473  0.00  0.00    +0.000 OA
ATOM     38  H   UNL     1      14.703   8.318   2.846  0.00  0.00    +0.000 HD
ATOM     39  H   UNL     1      16.173   9.050   3.347  0.00  0.00    +0.000 HD
ENDBRANCH  34  35
BRANCH  34  40
ATOM     40  C   UNL     1      16.493   6.082   0.164  0.00  0.00    +0.000 C 
BRANCH  40  41
ATOM     41  C   UNL     1      16.352   4.882  -0.748  0.00  0.00    +0.000 A 
ATOM     42  C   UNL     1      16.786   3.606  -0.325  0.00  0.00    +0.000 A 
ATOM     43  C   UNL     1      16.810   2.518  -1.230  0.00  0.00    +0.000 A 
ATOM     44  C   UNL     1      16.304   2.685  -2.546  0.00  0.00    +0.000 A 
ATOM     45  F   UNL     1      15.899   1.586  -3.216  0.00  0.00    +0.000 F 
ATOM     46  C   UNL     1      15.714   3.914  -2.913  0.00  0.00    +0.000 A 
ATOM     47  C   UNL     1      15.790   5.020  -2.041  0.00  0.00    +0.000 A 
ENDBRANCH  40  41
ENDBRANCH  34  40
ENDBRANCH  32  34
ENDBRANCH  29  30
ENDBRANCH  10  29
TORSDOF 12
