REMARK  Name = CHEMBL515975
REMARK  10 active torsions:
REMARK  status: ('A' for Active; 'I' for Inactive)
REMARK    1  A    between atoms: C_1  and  O_2
REMARK    2  A    between atoms: O_2  and  C_3
REMARK    3  A    between atoms: C_6  and  N_7
REMARK    4  A    between atoms: N_7  and  C_8
REMARK    5  A    between atoms: N_7  and  S_22
REMARK    6  A    between atoms: C_8  and  C_9
REMARK    7  A    between atoms: C_12  and  C_13
REMARK    8  A    between atoms: C_18  and  C_19
REMARK    9  A    between atoms: S_22  and  C_25
REMARK   10  A    between atoms: N_27  and  C_28
REMARK                            x       y       z     vdW  Elec       q    Type
REMARK                         _______ _______ _______ _____ _____    ______ ____
ROOT
ATOM      1  N   UNL     1       5.144  -4.592  -1.680  0.00  0.00    +0.000 N 
ENDROOT
BRANCH   1   5
ATOM      2  C   UNL     1       2.963  -1.130  -0.539  0.00  0.00    +0.000 A 
ATOM      3  C   UNL     1       2.726  -1.648  -1.798  0.00  0.00    +0.000 A 
ATOM      4  C   UNL     1       3.402  -2.819  -2.198  0.00  0.00    +0.000 A 
ATOM      5  C   UNL     1       4.251  -3.486  -1.317  0.00  0.00    +0.000 A 
ATOM      6  C   UNL     1       4.175  -2.986  -0.024  0.00  0.00    +0.000 A 
ATOM      7  N   UNL     1       3.670  -1.792   0.365  0.00  0.00    +0.000 NA
BRANCH   2   9
ATOM      8  C   UNL     1       1.044  -0.039   0.033  0.00  0.00    +0.000 C 
ATOM      9  O   UNL     1       2.455   0.056  -0.098  0.00  0.00    +0.000 OA
ENDBRANCH   2   9
ENDBRANCH   1   5
BRANCH   1  10
ATOM     10  S   UNL     1       4.891  -5.388  -3.168  0.00  0.00    +0.000 S 
ATOM     11  O   UNL     1       3.546  -5.955  -3.116  0.00  0.00    +0.000 OA
ATOM     12  O   UNL     1       5.262  -4.506  -4.247  0.00  0.00    +0.000 OA
BRANCH  10  13
ATOM     13  C   UNL     1       5.919  -6.804  -3.377  0.00  0.00    +0.000 A 
ATOM     14  C   UNL     1       5.507  -8.122  -3.318  0.00  0.00    +0.000 A 
ATOM     15  N   UNL     1       6.624  -8.869  -3.558  0.00  0.00    +0.000 N 
ATOM     16  C   UNL     1       6.695 -10.310  -3.602  0.00  0.00    +0.000 C 
ATOM     17  C   UNL     1       7.669  -8.007  -3.744  0.00  0.00    +0.000 A 
ATOM     18  N   UNL     1       7.286  -6.751  -3.628  0.00  0.00    +0.000 NA
ENDBRANCH  10  13
ENDBRANCH   1  10
BRANCH   1  19
ATOM     19  C   UNL     1       6.368  -5.014  -0.896  0.00  0.00    +0.000 C 
BRANCH  19  20
ATOM     20  C   UNL     1       6.812  -4.182   0.315  0.00  0.00    +0.000 A 
ATOM     21  C   UNL     1       6.934  -2.795   0.191  0.00  0.00    +0.000 A 
ATOM     22  C   UNL     1       6.774  -2.008   1.338  0.00  0.00    +0.000 A 
ATOM     23  C   UNL     1       6.695  -2.598   2.600  0.00  0.00    +0.000 A 
ATOM     24  C   UNL     1       6.770  -3.988   2.635  0.00  0.00    +0.000 A 
ATOM     25  N   UNL     1       6.788  -4.790   1.534  0.00  0.00    +0.000 NA
BRANCH  23  26
ATOM     26  C   UNL     1       6.630  -1.783   3.818  0.00  0.00    +0.000 A 
ATOM     27  C   UNL     1       7.796  -1.726   4.599  0.00  0.00    +0.000 A 
ATOM     28  C   UNL     1       7.872  -0.923   5.732  0.00  0.00    +0.000 A 
ATOM     29  C   UNL     1       6.778  -0.155   6.108  0.00  0.00    +0.000 A 
ATOM     30  C   UNL     1       5.601  -0.206   5.362  0.00  0.00    +0.000 A 
ATOM     31  C   UNL     1       5.507  -1.021   4.219  0.00  0.00    +0.000 A 
ATOM     32  C   UNL     1       4.204  -1.045   3.466  0.00  0.00    +0.000 C 
ENDBRANCH  23  26
ENDBRANCH  19  20
ENDBRANCH   1  19
TORSDOF 7
