REMARK  Name = CHEMBL1077300
REMARK  8 active torsions:
REMARK  status: ('A' for Active; 'I' for Inactive)
REMARK    1  A    between atoms: C_1  and  C_2
REMARK    2  A    between atoms: C_2  and  N_3
REMARK    3  A    between atoms: N_3  and  C_19
REMARK    4  A    between atoms: C_8  and  O_9
REMARK    5  A    between atoms: O_9  and  C_10
REMARK    6  A    between atoms: C_16  and  C_17
REMARK    7  A    between atoms: C_22  and  O_23
REMARK    8  A    between atoms: O_23  and  C_24
REMARK                            x       y       z     vdW  Elec       q    Type
REMARK                         _______ _______ _______ _____ _____    ______ ____
ROOT
ATOM      1  N   UNL     1       2.942   1.154  -0.769  0.00  0.00    +0.000 N 
ATOM      2  C   UNL     1       1.983   1.998  -1.445  0.00  0.00    +0.000 C 
ATOM      3  O   UNL     1       2.345   2.961  -2.142  0.00  0.00    +0.000 OA
ATOM      4  N   UNL     1       0.629   1.606  -1.437  0.00  0.00    +0.000 N 
ATOM      5  C   UNL     1      -0.508   1.991  -2.291  0.00  0.00    +0.000 C 
ATOM      6  C   UNL     1      -1.327   2.372  -1.019  0.00  0.00    +0.000 C 
ATOM      7  C   UNL     1      -0.283   1.572  -0.296  0.00  0.00    +0.000 C 
ENDROOT
BRANCH   1   8
ATOM      8  C   UNL     1       4.385   1.397  -0.937  0.00  0.00    +0.000 A 
ATOM      9  C   UNL     1       5.281   0.335  -1.159  0.00  0.00    +0.000 A 
ATOM     10  C   UNL     1       6.659   0.541  -1.303  0.00  0.00    +0.000 A 
ATOM     11  C   UNL     1       7.158   1.823  -1.190  0.00  0.00    +0.000 A 
ATOM     12  N   UNL     1       6.345   2.871  -0.927  0.00  0.00    +0.000 NA
ATOM     13  C   UNL     1       4.992   2.644  -0.825  0.00  0.00    +0.000 A 
BRANCH  11  14
ATOM     14  O   UNL     1       8.482   2.154  -1.334  0.00  0.00    +0.000 OA
ATOM     15  C   UNL     1       9.381   1.101  -1.672  0.00  0.00    +0.000 C 
ENDBRANCH  11  14
ENDBRANCH   1   8
BRANCH   1  17
ATOM     16  C   UNL     1       1.302  -0.488   0.278  0.00  0.00    +0.000 C 
ATOM     17  C   UNL     1       2.710  -0.105   0.008  0.00  0.00    +0.000 C 
ENDBRANCH   1  17
BRANCH   6  18
ATOM     18  O   UNL     1      -1.471   3.754  -0.605  0.00  0.00    +0.000 OA
BRANCH  18  19
ATOM     19  C   UNL     1      -2.238   4.030   0.523  0.00  0.00    +0.000 A 
ATOM     20  C   UNL     1      -3.339   4.868   0.299  0.00  0.00    +0.000 A 
ATOM     21  C   UNL     1      -4.073   5.390   1.374  0.00  0.00    +0.000 A 
ATOM     22  C   UNL     1      -3.727   5.069   2.681  0.00  0.00    +0.000 A 
ATOM     23  C   UNL     1      -2.662   4.220   2.904  0.00  0.00    +0.000 A 
ATOM     24  F   UNL     1      -2.339   3.914   4.171  0.00  0.00    +0.000 F 
ATOM     25  C   UNL     1      -1.902   3.696   1.853  0.00  0.00    +0.000 A 
ATOM     26  C   UNL     1      -0.782   2.820   2.287  0.00  0.00    +0.000 C 
ENDBRANCH  18  19
ENDBRANCH   6  18
TORSDOF 5
