REMARK  Name = CHEMBL66931
REMARK  9 active torsions:
REMARK  status: ('A' for Active; 'I' for Inactive)
REMARK    1  A    between atoms: C_1  and  O_2
REMARK    2  A    between atoms: O_2  and  C_3
REMARK    3  A    between atoms: C_5  and  O_6
REMARK    4  A    between atoms: O_6  and  C_7
REMARK    5  A    between atoms: N_10  and  C_11
REMARK    6  A    between atoms: C_11  and  C_12
REMARK    7  A    between atoms: C_18  and  C_19
REMARK    8  A    between atoms: C_27  and  C_28
REMARK    9  A    between atoms: C_33  and  N_34
REMARK                            x       y       z     vdW  Elec       q    Type
REMARK                         _______ _______ _______ _____ _____    ______ ____
ROOT
ATOM      1  C   UNL     1       2.978  -0.576   0.599  0.00  0.00    +0.000 A 
ATOM      2  C   UNL     1       4.206  -0.349   1.360  0.00  0.00    +0.000 A 
ATOM      3  C   UNL     1       4.868  -1.379   1.938  0.00  0.00    +0.000 A 
ATOM      4  C   UNL     1       4.077  -2.467   1.894  0.00  0.00    +0.000 A 
ATOM      5  C   UNL     1       3.064  -2.771   0.967  0.00  0.00    +0.000 A 
ATOM      6  C   UNL     1       2.396  -1.830   0.316  0.00  0.00    +0.000 A 
ENDROOT
BRANCH   6   7
ATOM      7  C   UNL     1       1.186  -2.476  -0.410  0.00  0.00    +0.000 C 
ATOM      8  O   UNL     1       0.944  -3.685  -0.297  0.00  0.00    +0.000 OA
ATOM      9  N   UNL     1       0.317  -1.661  -1.137  0.00  0.00    +0.000 N 
ATOM     10  C   UNL     1      -0.996  -1.335  -0.507  0.00  0.00    +0.000 C 
ATOM     11  C   UNL     1      -1.979  -0.816  -1.540  0.00  0.00    +0.000 C 
ATOM     12  C   UNL     1      -1.409   0.670  -2.365  0.00  0.00    +0.000 C 
ATOM     13  C   UNL     1      -0.041  -0.134  -3.083  0.00  0.00    +0.000 C 
ATOM     14  C   UNL     1       0.923  -0.690  -2.050  0.00  0.00    +0.000 C 
BRANCH  12  15
ATOM     15  N   UNL     1      -2.141   2.365  -2.259  0.00  0.00    +0.000 N 
ATOM     16  C   UNL     1      -3.299   1.676  -1.872  0.00  0.00    +0.000 C 
ATOM     17  O   UNL     1      -3.927   0.755  -2.545  0.00  0.00    +0.000 OA
ATOM     18  O   UNL     1      -3.612   1.801  -0.608  0.00  0.00    +0.000 OA
ATOM     19  C   UNL     1      -4.613   2.725  -0.777  0.00  0.00    +0.000 C 
ATOM     20  C   UNL     1      -3.787   3.913  -0.563  0.00  0.00    +0.000 A 
ATOM     21  C   UNL     1      -4.619   4.894   0.264  0.00  0.00    +0.000 A 
ATOM     22  C   UNL     1      -4.543   6.249   0.225  0.00  0.00    +0.000 A 
ATOM     23  C   UNL     1      -3.594   6.599  -0.709  0.00  0.00    +0.000 A 
ATOM     24  C   UNL     1      -2.677   5.503  -1.560  0.00  0.00    +0.000 A 
ATOM     25  C   UNL     1      -2.631   3.951  -1.417  0.00  0.00    +0.000 A 
ENDBRANCH  12  15
ENDBRANCH   6   7
BRANCH   1  27
ATOM     26  C   UNL     1       1.119   0.649   0.642  0.00  0.00    +0.000 C 
ATOM     27  O   UNL     1       2.458   0.628   0.224  0.00  0.00    +0.000 OA
ENDBRANCH   1  27
BRANCH   3  28
ATOM     28  O   UNL     1       6.150  -1.428   2.435  0.00  0.00    +0.000 OA
BRANCH  28  29
ATOM     29  C   UNL     1       7.130  -2.549   2.140  0.00  0.00    +0.000 C 
ATOM     30  C   UNL     1       7.155  -3.024   0.675  0.00  0.00    +0.000 C 
ATOM     31  C   UNL     1       5.917  -3.864   0.388  0.00  0.00    +0.000 C 
ATOM     32  N   UNL     1       5.599  -4.922   1.461  0.00  0.00    +0.000 NA
ATOM     33  C   UNL     1       5.932  -4.624   2.899  0.00  0.00    +0.000 C 
ATOM     34  C   UNL     1       7.154  -3.791   3.056  0.00  0.00    +0.000 C 
BRANCH  32  35
ATOM     35  C   UNL     1       4.189  -5.361   1.394  0.00  0.00    +0.000 C 
BRANCH  35  36
ATOM     36  C   UNL     1       3.815  -6.576   2.144  0.00  0.00    +0.000 A 
ATOM     37  C   UNL     1       3.748  -6.524   3.548  0.00  0.00    +0.000 A 
ATOM     38  C   UNL     1       3.676  -7.691   4.243  0.00  0.00    +0.000 A 
ATOM     39  C   UNL     1       3.459  -8.841   3.504  0.00  0.00    +0.000 A 
ATOM     40  N   UNL     1       3.287  -8.860   2.105  0.00  0.00    +0.000 N 
ATOM     41  O   UNL     1       3.011  -9.953   1.543  0.00  0.00    +0.000 OA
ATOM     42  C   UNL     1       3.463  -7.710   1.412  0.00  0.00    +0.000 A 
BRANCH  42  43
ATOM     43  C   UNL     1       3.251  -7.653  -0.072  0.00  0.00    +0.000 C 
ATOM     44  F   UNL     1       2.251  -6.768  -0.395  0.00  0.00    +0.000 F 
ATOM     45  F   UNL     1       4.353  -7.167  -0.730  0.00  0.00    +0.000 F 
ATOM     46  F   UNL     1       2.934  -8.793  -0.727  0.00  0.00    +0.000 F 
ENDBRANCH  42  43
ENDBRANCH  35  36
ENDBRANCH  32  35
ENDBRANCH  28  29
ENDBRANCH   3  28
TORSDOF 8
