REMARK  Name = CHEMBL3813722
REMARK  25 active torsions:
REMARK  status: ('A' for Active; 'I' for Inactive)
REMARK    1  A    between atoms: C_1  and  C_2
REMARK    2  A    between atoms: C_2  and  C_3
REMARK    3  A    between atoms: C_3  and  C_4
REMARK    4  A    between atoms: C_3  and  C_5
REMARK    5  A    between atoms: C_9  and  C_10
REMARK    6  A    between atoms: C_10  and  C_11
REMARK    7  A    between atoms: C_14  and  O_15
REMARK    8  A    between atoms: C_21  and  N_22
REMARK    9  A    between atoms: C_27  and  C_28
REMARK   10  A    between atoms: C_34  and  C_35
REMARK   11  A    between atoms: N_37  and  C_38
REMARK   12  A    between atoms: N_37  and  C_39
REMARK   13  A    between atoms: C_39  and  C_40
REMARK   14  A    between atoms: C_39  and  C_44
REMARK   15  A    between atoms: C_40  and  C_41
REMARK   16  A    between atoms: C_41  and  C_42
REMARK   17  A    between atoms: C_41  and  C_43
REMARK   18  A    between atoms: N_46  and  C_47
REMARK   19  A    between atoms: N_46  and  C_48
REMARK   20  A    between atoms: C_48  and  C_49
REMARK   21  A    between atoms: C_55  and  C_56
REMARK   22  A    between atoms: C_56  and  C_57
REMARK   23  A    between atoms: C_63  and  C_64
REMARK   24  A    between atoms: C_64  and  C_65
REMARK   25  A    between atoms: C_65  and  C_66
REMARK                            x       y       z     vdW  Elec       q    Type
REMARK                         _______ _______ _______ _____ _____    ______ ____
ROOT
ATOM      1  C   UNL     1       4.763   4.134  -2.820  0.00  0.00    +0.000 C 
ATOM      2  N   UNL     1       5.316   6.226  -3.740  0.00  0.00    +0.000 N 
ATOM      3  C   UNL     1       5.724   8.024  -4.418  0.00  0.00    +0.000 C 
ATOM      4  O   UNL     1       6.082   8.685  -5.764  0.00  0.00    +0.000 OA
ATOM      5  C   UNL     1       4.937  10.009  -4.341  0.00  0.00    +0.000 C 
ATOM      6  N   UNL     1       3.438  10.568  -4.706  0.00  0.00    +0.000 N 
ATOM      7  C   UNL     1       2.527   9.734  -5.287  0.00  0.00    +0.000 C 
ATOM      8  O   UNL     1       1.348  10.022  -5.441  0.00  0.00    +0.000 OA
ATOM      9  C   UNL     1       2.864   8.343  -5.737  0.00  0.00    +0.000 C 
ATOM     10  C   UNL     1       2.543   7.237  -4.805  0.00  0.00    +0.000 C 
ATOM     11  S   UNL     1       0.827   7.328  -5.359  0.00  0.00    +0.000 S 
ATOM     12  S   UNL     1      -0.261   6.521  -3.947  0.00  0.00    +0.000 S 
ATOM     13  C   UNL     1      -1.715   5.487  -4.510  0.00  0.00    +0.000 C 
ATOM     14  C   UNL     1      -2.287   4.295  -3.717  0.00  0.00    +0.000 C 
ATOM     15  N   UNL     1      -1.641   3.006  -4.061  0.00  0.00    +0.000 N 
ATOM     16  C   UNL     1      -0.356   2.787  -3.927  0.00  0.00    +0.000 C 
ATOM     17  O   UNL     1       0.164   1.764  -4.376  0.00  0.00    +0.000 OA
ATOM     18  C   UNL     1       0.290   4.075  -3.155  0.00  0.00    +0.000 C 
ATOM     19  N   UNL     1       0.825   3.721  -1.421  0.00  0.00    +0.000 N 
ATOM     20  C   UNL     1       2.570   3.350  -1.490  0.00  0.00    +0.000 C 
ATOM     21  O   UNL     1       2.827   3.290  -0.123  0.00  0.00    +0.000 OA
ATOM     22  C   UNL     1       3.039   1.855  -3.152  0.00  0.00    +0.000 C 
ATOM     23  N   UNL     1       4.328   1.751  -3.793  0.00  0.00    +0.000 N 
ATOM     24  C   UNL     1       5.328   2.440  -3.173  0.00  0.00    +0.000 C 
ATOM     25  O   UNL     1       6.218   1.720  -2.693  0.00  0.00    +0.000 OA
ATOM     26  H   UNL     1       6.107   6.873  -4.537  0.00  0.00    +0.000 HD
ATOM     27  H   UNL     1       2.992  11.531  -4.485  0.00  0.00    +0.000 HD
ATOM     28  H   UNL     1      -2.102   2.190  -4.458  0.00  0.00    +0.000 HD
ATOM     29  H   UNL     1       0.957   4.428  -0.763  0.00  0.00    +0.000 HD
ATOM     30  H   UNL     1       4.309   2.370  -4.546  0.00  0.00    +0.000 HD
ENDROOT
BRANCH  14  31
ATOM     31  C   UNL     1      -3.741   4.128  -4.064  0.00  0.00    +0.000 C 
ATOM     32  O   UNL     1      -4.004   2.979  -4.416  0.00  0.00    +0.000 OA
ATOM     33  N   UNL     1      -4.611   5.201  -3.811  0.00  0.00    +0.000 N 
ATOM     34  C   UNL     1      -4.442   6.603  -4.151  0.00  0.00    +0.000 C 
ATOM     35  C   UNL     1      -5.139   7.322  -3.032  0.00  0.00    +0.000 C 
ATOM     36  C   UNL     1      -6.396   6.526  -2.882  0.00  0.00    +0.000 C 
ATOM     37  C   UNL     1      -6.004   5.110  -3.284  0.00  0.00    +0.000 C 
BRANCH  37  38
ATOM     38  C   UNL     1      -7.089   4.953  -4.397  0.00  0.00    +0.000 C 
ATOM     39  O   UNL     1      -6.704   4.959  -5.579  0.00  0.00    +0.000 OA
ATOM     40  N   UNL     1      -8.353   4.400  -3.958  0.00  0.00    +0.000 N 
ATOM     41  C   UNL     1      -8.829   4.601  -2.604  0.00  0.00    +0.000 C 
BRANCH  40  42
ATOM     42  C   UNL     1      -9.270   3.682  -4.916  0.00  0.00    +0.000 C 
BRANCH  42  43
ATOM     43  C   UNL     1     -10.729   3.518  -4.344  0.00  0.00    +0.000 C 
ATOM     44  O   UNL     1     -11.045   3.845  -3.201  0.00  0.00    +0.000 OA
ATOM     45  N   UNL     1     -11.706   2.995  -5.147  0.00  0.00    +0.000 N 
ATOM     46  C   UNL     1     -11.421   2.610  -6.484  0.00  0.00    +0.000 C 
BRANCH  45  47
ATOM     47  C   UNL     1     -13.085   2.832  -4.631  0.00  0.00    +0.000 C 
BRANCH  47  48
ATOM     48  C   UNL     1     -14.122   2.226  -5.621  0.00  0.00    +0.000 C 
ATOM     49  N   UNL     1     -13.766   1.861  -6.892  0.00  0.00    +0.000 N 
ATOM     50  O   UNL     1     -15.293   2.055  -5.294  0.00  0.00    +0.000 OA
ATOM     51  H   UNL     1     -12.898   1.908  -7.355  0.00  0.00    +0.000 HD
ATOM     52  H   UNL     1     -14.346   1.469  -7.597  0.00  0.00    +0.000 HD
ENDBRANCH  47  48
ENDBRANCH  45  47
ENDBRANCH  42  43
BRANCH  42  53
ATOM     53  C   UNL     1      -8.747   2.275  -5.331  0.00  0.00    +0.000 C 
BRANCH  53  54
ATOM     54  C   UNL     1      -7.400   2.294  -6.005  0.00  0.00    +0.000 C 
ATOM     55  C   UNL     1      -6.345   2.523  -5.009  0.00  0.00    +0.000 C 
ATOM     56  C   UNL     1      -6.904   0.969  -6.426  0.00  0.00    +0.000 C 
ENDBRANCH  53  54
ENDBRANCH  42  53
ENDBRANCH  40  42
ENDBRANCH  37  38
ENDBRANCH  14  31
BRANCH   9  57
ATOM     57  N   UNL     1       4.154   8.104  -5.581  0.00  0.00    +0.000 NA
ATOM     58  H   UNL     1       4.164   8.437  -4.630  0.00  0.00    +0.000 HD
ATOM     59  H   UNL     1       4.649   8.891  -6.043  0.00  0.00    +0.000 HD
ENDBRANCH   9  57
BRANCH   1  60
ATOM     60  C   UNL     1       4.170   2.365  -1.632  0.00  0.00    +0.000 C 
ATOM     61  C   UNL     1       3.262   0.802  -0.349  0.00  0.00    +0.000 C 
BRANCH  60  63
ATOM     62  C   UNL     1       1.534   2.690  -2.802  0.00  0.00    +0.000 C 
ATOM     63  C   UNL     1       2.332   1.637  -1.376  0.00  0.00    +0.000 C 
ENDBRANCH  60  63
ENDBRANCH   1  60
BRANCH  18  64
ATOM     64  C   UNL     1       1.670   4.523  -4.360  0.00  0.00    +0.000 C 
BRANCH  64  65
ATOM     65  C   UNL     1       1.190   4.609  -5.745  0.00  0.00    +0.000 C 
ATOM     66  N   UNL     1      -0.091   4.302  -5.966  0.00  0.00    +0.000 N 
ATOM     67  O   UNL     1       1.901   5.047  -6.631  0.00  0.00    +0.000 OA
ATOM     68  H   UNL     1      -0.662   4.111  -5.178  0.00  0.00    +0.000 HD
ATOM     69  H   UNL     1      -0.624   4.787  -6.672  0.00  0.00    +0.000 HD
ENDBRANCH  64  65
ENDBRANCH  18  64
BRANCH   5  70
ATOM     70  C   UNL     1       5.089   9.583  -3.024  0.00  0.00    +0.000 C 
BRANCH  70  71
ATOM     71  C   UNL     1       6.596   9.641  -2.998  0.00  0.00    +0.000 A 
ATOM     72  C   UNL     1       7.413  10.521  -3.761  0.00  0.00    +0.000 A 
ATOM     73  C   UNL     1       8.784  10.453  -3.662  0.00  0.00    +0.000 A 
ATOM     74  C   UNL     1       9.327   9.449  -2.888  0.00  0.00    +0.000 A 
ATOM     75  C   UNL     1       8.528   8.471  -2.318  0.00  0.00    +0.000 A 
ATOM     76  C   UNL     1       7.169   8.543  -2.398  0.00  0.00    +0.000 A 
BRANCH  74  77
ATOM     77  O   UNL     1      10.655   9.338  -2.629  0.00  0.00    +0.000 OA
ATOM     78  H   UNL     1      11.173  10.050  -3.034  0.00  0.00    +0.000 HD
ENDBRANCH  74  77
ENDBRANCH  70  71
ENDBRANCH   5  70
BRANCH  22  79
ATOM     79  C   UNL     1       2.317   0.189  -3.150  0.00  0.00    +0.000 C 
BRANCH  79  80
ATOM     80  C   UNL     1       2.382  -0.770  -4.268  0.00  0.00    +0.000 C 
BRANCH  80  81
ATOM     81  C   UNL     1       1.248  -1.789  -4.120  0.00  0.00    +0.000 C 
ATOM     82  N   UNL     1       0.327  -1.678  -3.092  0.00  0.00    +0.000 N 
ATOM     83  O   UNL     1       1.174  -2.712  -4.928  0.00  0.00    +0.000 OA
ATOM     84  H   UNL     1       0.309  -0.961  -2.376  0.00  0.00    +0.000 HD
ATOM     85  H   UNL     1      -0.441  -2.330  -3.011  0.00  0.00    +0.000 HD
ENDBRANCH  80  81
ENDBRANCH  79  80
ENDBRANCH  22  79
TORSDOF 19
