REMARK  Name = CHEMBL68199
REMARK  10 active torsions:
REMARK  status: ('A' for Active; 'I' for Inactive)
REMARK    1  A    between atoms: C_1  and  O_2
REMARK    2  A    between atoms: O_2  and  C_3
REMARK    3  A    between atoms: C_5  and  O_6
REMARK    4  A    between atoms: O_6  and  C_7
REMARK    5  A    between atoms: N_10  and  C_11
REMARK    6  A    between atoms: C_11  and  C_12
REMARK    7  A    between atoms: C_16  and  C_17
REMARK    8  A    between atoms: C_19  and  C_20
REMARK    9  A    between atoms: C_25  and  C_26
REMARK   10  A    between atoms: C_31  and  N_32
REMARK                            x       y       z     vdW  Elec       q    Type
REMARK                         _______ _______ _______ _____ _____    ______ ____
ROOT
ATOM      1  C   UNL     1       3.127  -0.870  -0.509  0.00  0.00    +0.000 A 
ATOM      2  C   UNL     1       4.264  -1.559  -0.001  0.00  0.00    +0.000 A 
ATOM      3  C   UNL     1       5.032  -2.312  -0.828  0.00  0.00    +0.000 A 
ATOM      4  C   UNL     1       4.474  -2.433  -2.061  0.00  0.00    +0.000 A 
ATOM      5  C   UNL     1       3.396  -1.805  -2.638  0.00  0.00    +0.000 A 
ATOM      6  C   UNL     1       2.690  -0.941  -1.865  0.00  0.00    +0.000 A 
ENDROOT
BRANCH   6   7
ATOM      7  C   UNL     1       1.534  -0.343  -2.630  0.00  0.00    +0.000 C 
ATOM      8  O   UNL     1       1.242  -0.793  -3.744  0.00  0.00    +0.000 OA
ATOM      9  N   UNL     1       0.743   0.631  -2.030  0.00  0.00    +0.000 N 
ATOM     10  C   UNL     1      -0.641   0.232  -1.701  0.00  0.00    +0.000 C 
ATOM     11  C   UNL     1      -1.554   1.410  -1.724  0.00  0.00    +0.000 C 
ATOM     12  C   UNL     1      -1.130   2.507  -0.394  0.00  0.00    +0.000 C 
ATOM     13  C   UNL     1       0.368   2.904  -1.162  0.00  0.00    +0.000 C 
ATOM     14  C   UNL     1       1.335   1.753  -1.289  0.00  0.00    +0.000 C 
BRANCH  12  15
ATOM     15  N   UNL     1      -1.931   2.097   1.212  0.00  0.00    +0.000 N 
ATOM     16  C   UNL     1      -3.130   2.511   0.547  0.00  0.00    +0.000 C 
ATOM     17  O   UNL     1      -3.626   2.115  -0.559  0.00  0.00    +0.000 OA
ATOM     18  O   UNL     1      -3.666   3.621   0.988  0.00  0.00    +0.000 OA
ATOM     19  C   UNL     1      -4.577   3.021   1.816  0.00  0.00    +0.000 C 
ATOM     20  C   UNL     1      -3.736   3.258   2.987  0.00  0.00    +0.000 A 
ATOM     21  C   UNL     1      -4.513   3.963   4.039  0.00  0.00    +0.000 A 
ATOM     22  C   UNL     1      -4.221   3.929   5.363  0.00  0.00    +0.000 A 
ATOM     23  C   UNL     1      -3.356   2.886   5.598  0.00  0.00    +0.000 A 
ATOM     24  C   UNL     1      -2.513   2.171   4.403  0.00  0.00    +0.000 A 
ATOM     25  C   UNL     1      -2.466   2.589   2.914  0.00  0.00    +0.000 A 
ENDBRANCH  12  15
ENDBRANCH   6   7
BRANCH   1  27
ATOM     26  C   UNL     1       1.236  -0.439   0.699  0.00  0.00    +0.000 C 
ATOM     27  O   UNL     1       2.593  -0.133   0.513  0.00  0.00    +0.000 OA
ENDBRANCH   1  27
BRANCH   3  28
ATOM     28  O   UNL     1       6.213  -2.850  -0.442  0.00  0.00    +0.000 OA
BRANCH  28  29
ATOM     29  C   UNL     1       7.081  -3.656  -1.295  0.00  0.00    +0.000 C 
ATOM     30  C   UNL     1       7.643  -3.055  -2.603  0.00  0.00    +0.000 C 
ATOM     31  C   UNL     1       6.692  -3.095  -3.797  0.00  0.00    +0.000 C 
ATOM     32  N   UNL     1       5.997  -4.422  -3.936  0.00  0.00    +0.000 NA
ATOM     33  C   UNL     1       5.580  -5.116  -2.672  0.00  0.00    +0.000 C 
ATOM     34  C   UNL     1       6.549  -5.058  -1.525  0.00  0.00    +0.000 C 
BRANCH  32  35
ATOM     35  C   UNL     1       4.859  -4.294  -4.887  0.00  0.00    +0.000 C 
BRANCH  35  36
ATOM     36  C   UNL     1       4.188  -5.608  -5.208  0.00  0.00    +0.000 A 
ATOM     37  C   UNL     1       3.490  -6.307  -4.209  0.00  0.00    +0.000 A 
ATOM     38  N   UNL     1       3.291  -7.664  -4.287  0.00  0.00    +0.000 N 
ATOM     39  O   UNL     1       2.998  -8.310  -3.232  0.00  0.00    +0.000 OA
ATOM     40  C   UNL     1       3.445  -8.264  -5.520  0.00  0.00    +0.000 A 
ATOM     41  C   UNL     1       3.201  -9.728  -5.636  0.00  0.00    +0.000 C 
ATOM     42  C   UNL     1       3.825  -7.491  -6.632  0.00  0.00    +0.000 A 
ATOM     43  C   UNL     1       4.296  -6.191  -6.464  0.00  0.00    +0.000 A 
ATOM     44  C   UNL     1       4.939  -5.446  -7.597  0.00  0.00    +0.000 C 
ENDBRANCH  35  36
ENDBRANCH  32  35
ENDBRANCH  28  29
ENDBRANCH   3  28
TORSDOF 7
