REMARK  Name = CHEMBL1092499
REMARK  7 active torsions:
REMARK  status: ('A' for Active; 'I' for Inactive)
REMARK    1  A    between atoms: C_1  and  O_2
REMARK    2  A    between atoms: O_2  and  C_3
REMARK    3  A    between atoms: C_6  and  N_7
REMARK    4  A    between atoms: N_7  and  C_8
REMARK    5  A    between atoms: C_13  and  O_14
REMARK    6  A    between atoms: O_14  and  C_15
REMARK    7  A    between atoms: C_21  and  C_22
REMARK                            x       y       z     vdW  Elec       q    Type
REMARK                         _______ _______ _______ _____ _____    ______ ____
ROOT
ATOM      1  N   UNL     1       5.652  -3.288   3.499  0.00  0.00    +0.000 N 
ATOM      2  C   UNL     1       6.854  -2.634   4.025  0.00  0.00    +0.000 C 
ATOM      3  C   UNL     1       5.485  -4.704   3.723  0.00  0.00    +0.000 C 
ATOM      4  O   UNL     1       4.547  -5.383   3.303  0.00  0.00    +0.000 OA
ATOM      5  N   UNL     1       6.553  -5.323   4.392  0.00  0.00    +0.000 N 
ATOM      6  C   UNL     1       6.860  -6.747   4.569  0.00  0.00    +0.000 C 
ATOM      7  C   UNL     1       6.891  -6.530   6.111  0.00  0.00    +0.000 C 
ATOM      8  C   UNL     1       6.992  -5.030   5.748  0.00  0.00    +0.000 C 
ENDROOT
BRANCH   1  12
ATOM      9  C   UNL     1       3.162  -0.879   0.952  0.00  0.00    +0.000 A 
ATOM     10  C   UNL     1       2.800  -2.190   1.201  0.00  0.00    +0.000 A 
ATOM     11  C   UNL     1       3.603  -2.986   2.046  0.00  0.00    +0.000 A 
ATOM     12  C   UNL     1       4.766  -2.490   2.641  0.00  0.00    +0.000 A 
ATOM     13  C   UNL     1       5.019  -1.148   2.304  0.00  0.00    +0.000 A 
ATOM     14  N   UNL     1       4.268  -0.349   1.489  0.00  0.00    +0.000 NA
BRANCH   9  16
ATOM     15  C   UNL     1       1.105  -0.089   0.108  0.00  0.00    +0.000 C 
ATOM     16  O   UNL     1       2.525  -0.052   0.071  0.00  0.00    +0.000 OA
ENDBRANCH   9  16
ENDBRANCH   1  12
BRANCH   7  17
ATOM     17  O   UNL     1       5.756  -7.044   6.879  0.00  0.00    +0.000 OA
BRANCH  17  18
ATOM     18  C   UNL     1       5.820  -7.047   8.267  0.00  0.00    +0.000 A 
ATOM     19  C   UNL     1       5.740  -8.278   8.942  0.00  0.00    +0.000 A 
ATOM     20  C   UNL     1       5.625  -8.317  10.346  0.00  0.00    +0.000 A 
ATOM     21  C   UNL     1       5.551  -7.134  11.066  0.00  0.00    +0.000 A 
ATOM     22  F   UNL     1       5.402  -7.152  12.397  0.00  0.00    +0.000 F 
ATOM     23  C   UNL     1       5.630  -5.919  10.419  0.00  0.00    +0.000 A 
ATOM     24  C   UNL     1       5.776  -5.866   9.027  0.00  0.00    +0.000 A 
ATOM     25  C   UNL     1       5.900  -4.505   8.447  0.00  0.00    +0.000 C 
ENDBRANCH  17  18
ENDBRANCH   7  17
TORSDOF 4
