REMARK  Name = CHEMBL480584
REMARK  7 active torsions:
REMARK  status: ('A' for Active; 'I' for Inactive)
REMARK    1  A    between atoms: C_2  and  C_3
REMARK    2  A    between atoms: C_8  and  C_9
REMARK    3  A    between atoms: C_12  and  C_13
REMARK    4  A    between atoms: N_15  and  C_16
REMARK    5  A    between atoms: N_15  and  C_23
REMARK    6  A    between atoms: C_16  and  C_17
REMARK    7  A    between atoms: C_23  and  C_24
REMARK                            x       y       z     vdW  Elec       q    Type
REMARK                         _______ _______ _______ _____ _____    ______ ____
ROOT
ATOM      1  C   UNL     1      -2.577  -6.364  -0.262  0.00  0.00    +0.000 C 
ATOM      2  O   UNL     1      -2.412  -7.360   0.446  0.00  0.00    +0.000 OA
ATOM      3  N   UNL     1      -3.268  -6.448  -1.526  0.00  0.00    +0.000 N 
ENDROOT
BRANCH   1   7
ATOM      4  C   UNL     1      -0.750  -2.472   0.631  0.00  0.00    +0.000 A 
ATOM      5  C   UNL     1      -0.350  -3.573   1.359  0.00  0.00    +0.000 A 
ATOM      6  C   UNL     1      -0.924  -4.879   1.129  0.00  0.00    +0.000 A 
ATOM      7  C   UNL     1      -2.039  -5.075   0.298  0.00  0.00    +0.000 A 
ATOM      8  C   UNL     1      -2.635  -3.938  -0.116  0.00  0.00    +0.000 A 
ATOM      9  C   UNL     1      -1.929  -2.741  -0.045  0.00  0.00    +0.000 A 
BRANCH   4  15
ATOM     10  C   UNL     1      -0.548   0.074   0.250  0.00  0.00    +0.000 A 
ATOM     11  C   UNL     1       0.217   1.248   0.066  0.00  0.00    +0.000 A 
ATOM     12  C   UNL     1       1.608   1.197   0.045  0.00  0.00    +0.000 A 
ATOM     13  C   UNL     1       2.236  -0.041   0.111  0.00  0.00    +0.000 A 
ATOM     14  C   UNL     1       1.471  -1.222   0.242  0.00  0.00    +0.000 A 
ATOM     15  C   UNL     1       0.057  -1.202   0.404  0.00  0.00    +0.000 A 
BRANCH  10  17
ATOM     16  N   UNL     1      -3.131   0.241   0.129  0.00  0.00    +0.000 NA
ATOM     17  C   UNL     1      -1.990   0.203   0.218  0.00  0.00    +0.000 C 
ENDBRANCH  10  17
ENDBRANCH   4  15
ENDBRANCH   1   7
BRANCH   3  18
ATOM     18  C   UNL     1      -3.388  -5.460  -2.656  0.00  0.00    +0.000 C 
BRANCH  18  19
ATOM     19  C   UNL     1      -2.466  -4.280  -2.957  0.00  0.00    +0.000 A 
ATOM     20  C   UNL     1      -1.100  -4.400  -2.687  0.00  0.00    +0.000 A 
ATOM     21  C   UNL     1      -0.347  -3.237  -2.494  0.00  0.00    +0.000 A 
ATOM     22  C   UNL     1      -0.898  -1.950  -2.734  0.00  0.00    +0.000 A 
ATOM     23  C   UNL     1      -2.265  -1.825  -3.061  0.00  0.00    +0.000 A 
ATOM     24  C   UNL     1      -3.038  -2.992  -3.213  0.00  0.00    +0.000 A 
ENDBRANCH  18  19
ENDBRANCH   3  18
BRANCH   3  25
ATOM     25  C   UNL     1      -4.109  -7.685  -1.694  0.00  0.00    +0.000 C 
BRANCH  25  26
ATOM     26  C   UNL     1      -5.075  -7.867  -2.939  0.00  0.00    +0.000 C 
ATOM     27  C   UNL     1      -4.661  -9.011  -3.861  0.00  0.00    +0.000 C 
ATOM     28  C   UNL     1      -4.968  -8.495  -5.253  0.00  0.00    +0.000 C 
ATOM     29  C   UNL     1      -4.756  -7.020  -5.115  0.00  0.00    +0.000 C 
ATOM     30  O   UNL     1      -5.255  -6.724  -3.801  0.00  0.00    +0.000 OA
ENDBRANCH  25  26
ENDBRANCH   3  25
TORSDOF 7
