REMARK  Name = CHEMBL515384
REMARK  8 active torsions:
REMARK  status: ('A' for Active; 'I' for Inactive)
REMARK    1  A    between atoms: C_1  and  O_2
REMARK    2  A    between atoms: O_2  and  C_3
REMARK    3  A    between atoms: C_6  and  N_7
REMARK    4  A    between atoms: N_7  and  C_8
REMARK    5  A    between atoms: N_7  and  S_20
REMARK    6  A    between atoms: C_8  and  C_9
REMARK    7  A    between atoms: C_11  and  C_12
REMARK    8  A    between atoms: S_20  and  C_23
REMARK                            x       y       z     vdW  Elec       q    Type
REMARK                         _______ _______ _______ _____ _____    ______ ____
ROOT
ATOM      1  N   UNL     1       5.314   2.758   4.004  0.00  0.00    +0.000 N 
ENDROOT
BRANCH   1   5
ATOM      2  C   UNL     1       2.913   0.715   1.121  0.00  0.00    +0.000 A 
ATOM      3  C   UNL     1       2.594   0.566   2.453  0.00  0.00    +0.000 A 
ATOM      4  C   UNL     1       3.352   1.253   3.421  0.00  0.00    +0.000 A 
ATOM      5  C   UNL     1       4.428   2.063   3.060  0.00  0.00    +0.000 A 
ATOM      6  C   UNL     1       4.490   2.247   1.693  0.00  0.00    +0.000 A 
ATOM      7  N   UNL     1       3.796   1.614   0.722  0.00  0.00    +0.000 NA
BRANCH   2   9
ATOM      8  C   UNL     1       1.020  -0.025   0.063  0.00  0.00    +0.000 C 
ATOM      9  O   UNL     1       2.432  -0.058   0.111  0.00  0.00    +0.000 OA
ENDBRANCH   2   9
ENDBRANCH   1   5
BRANCH   1  10
ATOM     10  S   UNL     1       4.867   2.685   5.668  0.00  0.00    +0.000 S 
ATOM     11  O   UNL     1       3.572   3.362   5.757  0.00  0.00    +0.000 OA
ATOM     12  O   UNL     1       4.974   1.319   6.122  0.00  0.00    +0.000 OA
BRANCH  10  13
ATOM     13  C   UNL     1       5.998   3.704   6.624  0.00  0.00    +0.000 A 
ATOM     14  C   UNL     1       5.778   5.070   6.697  0.00  0.00    +0.000 A 
ATOM     15  C   UNL     1       6.611   5.818   7.520  0.00  0.00    +0.000 A 
ATOM     16  C   UNL     1       7.591   5.174   8.270  0.00  0.00    +0.000 A 
ATOM     17  C   UNL     1       7.707   3.794   8.164  0.00  0.00    +0.000 A 
ATOM     18  N   UNL     1       6.943   3.038   7.343  0.00  0.00    +0.000 NA
ENDBRANCH  10  13
ENDBRANCH   1  10
BRANCH   1  19
ATOM     19  C   UNL     1       6.653   3.382   3.655  0.00  0.00    +0.000 C 
BRANCH  19  20
ATOM     20  C   UNL     1       7.152   3.218   2.213  0.00  0.00    +0.000 A 
ATOM     21  N   UNL     1       7.356   2.057   1.605  0.00  0.00    +0.000 NA
ATOM     22  C   UNL     1       7.316   2.210   0.217  0.00  0.00    +0.000 A 
ATOM     23  C   UNL     1       7.298   3.530  -0.210  0.00  0.00    +0.000 A 
ATOM     24  S   UNL     1       7.250   4.597   1.149  0.00  0.00    +0.000 S 
BRANCH  22  25
ATOM     25  C   UNL     1       7.227   1.084  -0.720  0.00  0.00    +0.000 A 
ATOM     26  C   UNL     1       8.264   0.869  -1.621  0.00  0.00    +0.000 A 
ATOM     27  C   UNL     1       8.162  -0.118  -2.611  0.00  0.00    +0.000 A 
ATOM     28  C   UNL     1       7.041  -0.944  -2.690  0.00  0.00    +0.000 A 
ATOM     29  C   UNL     1       6.001  -0.759  -1.797  0.00  0.00    +0.000 A 
ATOM     30  C   UNL     1       6.111   0.236  -0.817  0.00  0.00    +0.000 A 
ENDBRANCH  22  25
ENDBRANCH  19  20
ENDBRANCH   1  19
TORSDOF 7
