REMARK  Name = CHEMBL338522
REMARK  8 active torsions:
REMARK  status: ('A' for Active; 'I' for Inactive)
REMARK    1  A    between atoms: C_1  and  C_2
REMARK    2  A    between atoms: C_2  and  C_3
REMARK    3  A    between atoms: C_7  and  C_8
REMARK    4  A    between atoms: C_8  and  S_9
REMARK    5  A    between atoms: S_9  and  N_12
REMARK    6  A    between atoms: C_26  and  N_27
REMARK    7  A    between atoms: C_28  and  C_30
REMARK    8  A    between atoms: C_30  and  C_31
REMARK                            x       y       z     vdW  Elec       q    Type
REMARK                         _______ _______ _______ _____ _____    ______ ____
ROOT
ATOM      1  C   UNL     1       1.019  -0.068   0.013  0.00  0.00    +0.000 C 
ATOM      2  C   UNL     1       2.547  -0.079  -0.153  0.00  0.00    +0.000 C 
ATOM      3  C   UNL     1       2.789   0.033  -1.662  0.00  0.00    +0.000 C 
ATOM      4  C   UNL     1       3.257   1.029   0.631  0.00  0.00    +0.000 C 
ATOM      5  C   UNL     1       4.764   0.729   0.415  0.00  0.00    +0.000 C 
ATOM      6  C   UNL     1       4.813  -0.810   0.304  0.00  0.00    +0.000 C 
ATOM      7  C   UNL     1       3.337  -1.223   0.589  0.00  0.00    +0.000 C 
ATOM      8  C   UNL     1       3.098  -0.868   2.120  0.00  0.00    +0.000 C 
ATOM      9  C   UNL     1       2.955   0.675   2.080  0.00  0.00    +0.000 C 
ENDROOT
BRANCH   8  10
ATOM     10  N   UNL     1       4.207  -1.336   2.970  0.00  0.00    +0.000 N 
ATOM     11  C   UNL     1       4.710  -0.640   4.041  0.00  0.00    +0.000 C 
ATOM     12  O   UNL     1       4.212   0.421   4.406  0.00  0.00    +0.000 OA
ATOM     13  H   UNL     1       4.364  -2.341   2.998  0.00  0.00    +0.000 HD
BRANCH  11  14
ATOM     14  C   UNL     1       5.876  -1.284   4.770  0.00  0.00    +0.000 C 
BRANCH  14  15
ATOM     15  C   UNL     1       6.516  -0.305   5.706  0.00  0.00    +0.000 A 
ATOM     16  C   UNL     1       7.201  -0.551   6.874  0.00  0.00    +0.000 A 
ATOM     17  N   UNL     1       7.499   0.682   7.387  0.00  0.00    +0.000 N 
ATOM     18  C   UNL     1       6.991   1.622   6.544  0.00  0.00    +0.000 A 
ATOM     19  N   UNL     1       6.472   1.057   5.485  0.00  0.00    +0.000 NA
ATOM     20  H   UNL     1       8.006   0.873   8.238  0.00  0.00    +0.000 HD
ENDBRANCH  14  15
ENDBRANCH  11  14
ENDBRANCH   8  10
BRANCH   7  21
ATOM     21  C   UNL     1       2.990  -2.668   0.122  0.00  0.00    +0.000 C 
BRANCH  21  22
ATOM     22  S   UNL     1       3.647  -3.949   1.266  0.00  0.00    +0.000 S 
ATOM     23  O   UNL     1       5.092  -4.044   1.048  0.00  0.00    +0.000 OA
ATOM     24  O   UNL     1       3.162  -3.619   2.570  0.00  0.00    +0.000 OA
BRANCH  22  25
ATOM     25  N   UNL     1       2.904  -5.441   0.891  0.00  0.00    +0.000 NA
ATOM     26  C   UNL     1       3.604  -6.803   1.081  0.00  0.00    +0.000 C 
ATOM     27  C   UNL     1       3.498  -7.502   2.533  0.00  0.00    +0.000 C 
ATOM     28  C   UNL     1       1.923  -7.881   3.133  0.00  0.00    +0.000 C 
ATOM     29  C   UNL     1       1.128  -8.089   1.955  0.00  0.00    +0.000 C 
ATOM     30  C   UNL     1       0.028  -7.478   3.058  0.00  0.00    +0.000 C 
ATOM     31  C   UNL     1      -0.592  -8.669   3.003  0.00  0.00    +0.000 A 
ATOM     32  C   UNL     1      -1.955  -8.619   2.452  0.00  0.00    +0.000 A 
ATOM     33  C   UNL     1      -2.605  -9.737   2.190  0.00  0.00    +0.000 A 
ATOM     34  C   UNL     1      -1.729 -10.785   2.373  0.00  0.00    +0.000 A 
ATOM     35  C   UNL     1      -0.134 -10.582   2.796  0.00  0.00    +0.000 A 
ATOM     36  C   UNL     1       0.569  -9.395   3.349  0.00  0.00    +0.000 A 
ATOM     37  C   UNL     1       1.648  -6.017   2.997  0.00  0.00    +0.000 C 
ATOM     38  C   UNL     1       1.549  -5.467   1.486  0.00  0.00    +0.000 C 
ENDBRANCH  22  25
ENDBRANCH  21  22
ENDBRANCH   7  21
TORSDOF 6
