REMARK  Name = CHEMBL302128
REMARK  7 active torsions:
REMARK  status: ('A' for Active; 'I' for Inactive)
REMARK    1  A    between atoms: C_1  and  O_2
REMARK    2  A    between atoms: O_2  and  C_3
REMARK    3  A    between atoms: C_5  and  O_6
REMARK    4  A    between atoms: O_6  and  C_7
REMARK    5  A    between atoms: N_10  and  C_11
REMARK    6  A    between atoms: C_26  and  C_27
REMARK    7  A    between atoms: C_32  and  N_33
REMARK                            x       y       z     vdW  Elec       q    Type
REMARK                         _______ _______ _______ _____ _____    ______ ____
ROOT
ATOM      1  C   UNL     1       2.963  -0.015  -0.964  0.00  0.00    +0.000 A 
ATOM      2  C   UNL     1       2.582   0.786  -2.102  0.00  0.00    +0.000 A 
ATOM      3  C   UNL     1       3.281   0.653  -3.258  0.00  0.00    +0.000 A 
ATOM      4  C   UNL     1       4.258  -0.255  -3.058  0.00  0.00    +0.000 A 
ATOM      5  F   UNL     1       5.103  -0.473  -3.986  0.00  0.00    +0.000 F 
ATOM      6  C   UNL     1       4.703  -1.071  -2.088  0.00  0.00    +0.000 A 
ATOM      7  C   UNL     1       4.019  -0.965  -0.957  0.00  0.00    +0.000 A 
ENDROOT
BRANCH   7   8
ATOM      8  C   UNL     1       4.609  -1.860   0.052  0.00  0.00    +0.000 C 
ATOM      9  O   UNL     1       5.660  -2.475  -0.117  0.00  0.00    +0.000 OA
ATOM     10  N   UNL     1       3.931  -1.926   1.210  0.00  0.00    +0.000 N 
ATOM     11  C   UNL     1       4.587  -1.491   2.413  0.00  0.00    +0.000 C 
ATOM     12  C   UNL     1       4.400  -2.569   3.446  0.00  0.00    +0.000 C 
ATOM     13  C   UNL     1       2.901  -2.918   3.609  0.00  0.00    +0.000 C 
ATOM     14  C   UNL     1       2.283  -3.344   2.268  0.00  0.00    +0.000 C 
ATOM     15  C   UNL     1       2.543  -2.304   1.231  0.00  0.00    +0.000 C 
BRANCH  13  16
ATOM     16  N   UNL     1       2.160  -1.852   4.369  0.00  0.00    +0.000 N 
ATOM     17  C   UNL     1       2.047  -0.517   3.973  0.00  0.00    +0.000 C 
ATOM     18  O   UNL     1       1.597  -0.077   2.933  0.00  0.00    +0.000 OA
ATOM     19  O   UNL     1       2.488   0.357   4.911  0.00  0.00    +0.000 OA
ATOM     20  C   UNL     1       1.569   0.382   5.979  0.00  0.00    +0.000 C 
ATOM     21  C   UNL     1       1.312  -1.009   6.472  0.00  0.00    +0.000 A 
ATOM     22  C   UNL     1       0.727  -1.187   7.723  0.00  0.00    +0.000 A 
ATOM     23  C   UNL     1       0.466  -2.470   8.181  0.00  0.00    +0.000 A 
ATOM     24  C   UNL     1       0.776  -3.572   7.386  0.00  0.00    +0.000 A 
ATOM     25  C   UNL     1       1.361  -3.400   6.132  0.00  0.00    +0.000 A 
ATOM     26  C   UNL     1       1.642  -2.117   5.667  0.00  0.00    +0.000 A 
ENDBRANCH  13  16
ENDBRANCH   7   8
BRANCH   1  28
ATOM     27  C   UNL     1       0.901   0.061   0.001  0.00  0.00    +0.000 C 
ATOM     28  O   UNL     1       2.300   0.252   0.192  0.00  0.00    +0.000 OA
ENDBRANCH   1  28
BRANCH   3  29
ATOM     29  O   UNL     1       3.047   1.360  -4.396  0.00  0.00    +0.000 OA
BRANCH  29  30
ATOM     30  C   UNL     1       3.824   1.208  -5.642  0.00  0.00    +0.000 C 
ATOM     31  C   UNL     1       3.672  -0.145  -6.378  0.00  0.00    +0.000 C 
ATOM     32  C   UNL     1       4.634  -1.206  -5.865  0.00  0.00    +0.000 C 
ATOM     33  N   UNL     1       6.046  -0.564  -5.722  0.00  0.00    +0.000 N 
ATOM     34  C   UNL     1       6.306   0.789  -5.074  0.00  0.00    +0.000 C 
ATOM     35  C   UNL     1       5.282   1.758  -5.637  0.00  0.00    +0.000 C 
BRANCH  33  36
ATOM     36  C   UNL     1       7.120  -1.429  -5.882  0.00  0.00    +0.000 A 
ATOM     37  C   UNL     1       8.034  -1.754  -4.871  0.00  0.00    +0.000 A 
ATOM     38  C   UNL     1       9.139  -2.545  -5.179  0.00  0.00    +0.000 A 
ATOM     39  C   UNL     1       9.324  -2.994  -6.494  0.00  0.00    +0.000 A 
ATOM     40  C   UNL     1       8.420  -2.699  -7.512  0.00  0.00    +0.000 A 
ATOM     41  N   UNL     1       8.615  -3.120  -8.779  0.00  0.00    +0.000 NA
ATOM     42  C   UNL     1       7.697  -2.782  -9.724  0.00  0.00    +0.000 A 
ATOM     43  C   UNL     1       6.571  -2.039  -9.492  0.00  0.00    +0.000 A 
ATOM     44  C   UNL     1       6.412  -1.594  -8.212  0.00  0.00    +0.000 A 
ATOM     45  C   UNL     1       7.311  -1.924  -7.184  0.00  0.00    +0.000 A 
ENDBRANCH  33  36
ENDBRANCH  29  30
ENDBRANCH   3  29
TORSDOF 6
