REMARK  Name = CHEMBL1643589
REMARK  12 active torsions:
REMARK  status: ('A' for Active; 'I' for Inactive)
REMARK    1  A    between atoms: C_1  and  O_2
REMARK    2  A    between atoms: O_2  and  C_3
REMARK    3  A    between atoms: C_6  and  S_7
REMARK    4  A    between atoms: S_7  and  N_10
REMARK    5  A    between atoms: N_10  and  C_11
REMARK    6  A    between atoms: N_10  and  C_32
REMARK    7  A    between atoms: C_11  and  C_12
REMARK    8  A    between atoms: C_15  and  C_16
REMARK    9  A    between atoms: C_19  and  C_20
REMARK   10  A    between atoms: C_20  and  N_21
REMARK   11  A    between atoms: N_21  and  C_22
REMARK   12  A    between atoms: C_22  and  C_23
REMARK                            x       y       z     vdW  Elec       q    Type
REMARK                         _______ _______ _______ _____ _____    ______ ____
ROOT
ATOM      1  C   UNL     1       3.761   2.374  -4.899  0.00  0.00    +0.000 A 
ATOM      2  C   UNL     1       3.535   3.600  -4.340  0.00  0.00    +0.000 A 
ATOM      3  S   UNL     1       2.242   3.348  -2.952  0.00  0.00    +0.000 S 
ATOM      4  C   UNL     1       1.886   1.486  -3.585  0.00  0.00    +0.000 A 
ATOM      5  N   UNL     1       3.083   1.477  -4.175  0.00  0.00    +0.000 NA
ENDROOT
BRANCH   4   6
ATOM      6  C   UNL     1       1.184   0.025  -2.666  0.00  0.00    +0.000 A 
ATOM      7  C   UNL     1       0.037   0.195  -1.912  0.00  0.00    +0.000 A 
ATOM      8  C   UNL     1      -0.277  -0.666  -0.678  0.00  0.00    +0.000 A 
ATOM      9  C   UNL     1       0.568  -1.700  -0.066  0.00  0.00    +0.000 A 
ATOM     10  C   UNL     1       1.690  -2.000  -0.793  0.00  0.00    +0.000 A 
ATOM     11  C   UNL     1       1.869  -1.331  -2.088  0.00  0.00    +0.000 A 
BRANCH   9  12
ATOM     12  C   UNL     1       0.477  -2.184   1.394  0.00  0.00    +0.000 C 
BRANCH  12  13
ATOM     13  N   UNL     1       1.607  -3.031   1.842  0.00  0.00    +0.000 NA
ATOM     14  H   UNL     1       2.417  -2.492   2.160  0.00  0.00    +0.000 HD
BRANCH  13  15
ATOM     15  C   UNL     1       1.156  -3.918   2.901  0.00  0.00    +0.000 C 
BRANCH  15  16
ATOM     16  C   UNL     1       2.268  -4.899   3.269  0.00  0.00    +0.000 C 
ATOM     17  C   UNL     1       2.820  -4.527   4.648  0.00  0.00    +0.000 C 
ATOM     18  C   UNL     1       3.831  -5.548   5.141  0.00  0.00    +0.000 C 
ATOM     19  C   UNL     1       3.245  -6.956   5.124  0.00  0.00    +0.000 C 
ATOM     20  C   UNL     1       2.738  -7.326   3.735  0.00  0.00    +0.000 C 
ATOM     21  C   UNL     1       1.707  -6.323   3.249  0.00  0.00    +0.000 C 
ENDBRANCH  15  16
ENDBRANCH  13  15
ENDBRANCH  12  13
ENDBRANCH   9  12
ENDBRANCH   4   6
BRANCH   1  22
ATOM     22  C   UNL     1       4.712   1.824  -5.955  0.00  0.00    +0.000 C 
BRANCH  22  23
ATOM     23  N   UNL     1       4.692   0.293  -6.276  0.00  0.00    +0.000 NA
BRANCH  23  24
ATOM     24  C   UNL     1       5.345   0.085  -7.677  0.00  0.00    +0.000 C 
ATOM     25  C   UNL     1       4.883  -1.184  -8.396  0.00  0.00    +0.000 C 
ATOM     26  C   UNL     1       5.312  -0.975  -9.849  0.00  0.00    +0.000 C 
ATOM     27  C   UNL     1       5.265   0.529 -10.083  0.00  0.00    +0.000 C 
ATOM     28  C   UNL     1       4.982   1.149  -8.722  0.00  0.00    +0.000 C 
ENDBRANCH  23  24
BRANCH  23  29
ATOM     29  S   UNL     1       5.648  -0.745  -5.124  0.00  0.00    +0.000 S 
ATOM     30  O   UNL     1       6.920  -0.172  -5.039  0.00  0.00    +0.000 OA
ATOM     31  O   UNL     1       5.459  -2.152  -5.621  0.00  0.00    +0.000 OA
BRANCH  29  35
ATOM     32  C   UNL     1       4.037   0.164  -0.699  0.00  0.00    +0.000 A 
ATOM     33  C   UNL     1       4.958  -0.825  -0.944  0.00  0.00    +0.000 A 
ATOM     34  C   UNL     1       5.567  -1.130  -2.293  0.00  0.00    +0.000 A 
ATOM     35  C   UNL     1       5.022  -0.770  -3.496  0.00  0.00    +0.000 A 
ATOM     36  C   UNL     1       3.871  -0.235  -3.243  0.00  0.00    +0.000 A 
ATOM     37  C   UNL     1       3.624   0.530  -1.915  0.00  0.00    +0.000 A 
BRANCH  32  39
ATOM     38  C   UNL     1       1.930   0.803   0.425  0.00  0.00    +0.000 C 
ATOM     39  O   UNL     1       3.373   0.551   0.462  0.00  0.00    +0.000 OA
ENDBRANCH  32  39
ENDBRANCH  29  35
ENDBRANCH  23  29
ENDBRANCH  22  23
ENDBRANCH   1  22
TORSDOF 11
