REMARK  Name = CHEMBL271657
REMARK  13 active torsions:
REMARK  status: ('A' for Active; 'I' for Inactive)
REMARK    1  A    between atoms: C_1  and  C_2
REMARK    2  A    between atoms: C_4  and  C_5
REMARK    3  A    between atoms: C_5  and  C_6
REMARK    4  A    between atoms: C_5  and  N_12
REMARK    5  A    between atoms: N_8  and  C_9
REMARK    6  A    between atoms: C_9  and  C_10
REMARK    7  A    between atoms: C_9  and  C_11
REMARK    8  A    between atoms: C_15  and  C_16
REMARK    9  A    between atoms: CA_28  and  CB_29
REMARK   10  A    between atoms: CB_29  and  CG_30
REMARK   11  A    between atoms: CG_30  and  CD1_31
REMARK   12  A    between atoms: CG_30  and  CD2_32
REMARK   13  A    between atoms: C_34  and  C_35
REMARK                            x       y       z     vdW  Elec       q    Type
REMARK                         _______ _______ _______ _____ _____    ______ ____
ROOT
ATOM      1  N   LEU A   1       5.584   3.004  -0.016  0.00  0.00    +0.000 N 
ATOM      2  C   UNK A   2       5.040   3.451   1.177  0.00  0.00    +0.000 C 
ATOM      3  O   UNK A   2       5.027   2.729   2.171  0.00  0.00    +0.000 OA
ATOM      4  C   UNK A   2       4.348   4.824   1.129  0.00  0.00    +0.000 C 
ATOM      5  N   UNK A   2       5.286   5.718   0.525  0.00  0.00    +0.000 N 
ATOM      6  C   LEU A   1       5.549   5.476  -0.794  0.00  0.00    +0.000 C 
ATOM      7  O   LEU A   1       5.740   6.424  -1.530  0.00  0.00    +0.000 OA
ATOM      8  CA  LEU A   1       5.571   3.958  -1.195  0.00  0.00    +0.000 C 
ATOM      9  H   UNK A   2       5.315   6.699   0.774  0.00  0.00    +0.000 HD
ENDROOT
BRANCH   4  10
ATOM     10  C   UNK A   2       3.951   5.301   2.503  0.00  0.00    +0.000 C 
ATOM     11  C   UNK A   2       2.878   4.388   3.120  0.00  0.00    +0.000 C 
ATOM     12  C   UNK A   2       3.226   4.462   4.561  0.00  0.00    +0.000 A 
ATOM     13  C   UNK A   2       2.467   4.016   5.623  0.00  0.00    +0.000 A 
ATOM     14  C   UNK A   2       2.987   4.186   6.903  0.00  0.00    +0.000 A 
ATOM     15  C   UNK A   2       4.261   4.748   7.094  0.00  0.00    +0.000 A 
ATOM     16  C   UNK A   2       5.041   5.138   6.009  0.00  0.00    +0.000 A 
ATOM     17  C   UNK A   2       4.502   5.001   4.750  0.00  0.00    +0.000 A 
ATOM     18  C   UNK A   2       5.164   5.321   3.458  0.00  0.00    +0.000 C 
ENDBRANCH   4  10
BRANCH   1  19
ATOM     19  C   UNK A   0       5.880   1.500  -0.048  0.00  0.00    +0.000 C 
BRANCH  19  23
ATOM     20  C   UNK A   0       9.761   1.218  -3.411  0.00  0.00    +0.000 C 
ATOM     21  C   UNK A   0       8.573   0.895  -2.585  0.00  0.00    +0.000 A 
ATOM     22  C   UNK A   0       8.251   1.272  -1.254  0.00  0.00    +0.000 A 
ATOM     23  C   UNK A   0       6.888   1.016  -1.079  0.00  0.00    +0.000 A 
ATOM     24  O   UNK A   0       6.466   0.246  -2.132  0.00  0.00    +0.000 OA
ATOM     25  C   UNK A   0       7.502   0.144  -3.004  0.00  0.00    +0.000 A 
ATOM     26  C   UNK A   0       7.355  -0.688  -4.209  0.00  0.00    +0.000 C 
ENDBRANCH  19  23
BRANCH  19  27
ATOM     27  C   UNK A   0       4.517   0.720  -0.080  0.00  0.00    +0.000 C 
ATOM     28  O   UNK A   0       4.166  -0.053  -0.964  0.00  0.00    +0.000 OA
ATOM     29  N   UNK A   0       3.679   0.977   1.006  0.00  0.00    +0.000 N 
ATOM     30  H   UNK A   0       4.079   1.454   1.817  0.00  0.00    +0.000 HD
BRANCH  29  31
ATOM     31  C   UNK A   0       2.305   0.526   1.085  0.00  0.00    +0.000 C 
ATOM     32  C   UNK A   0       2.251  -0.986   1.197  0.00  0.00    +0.000 C 
ATOM     33  C   UNK A   0       1.568   1.146   2.272  0.00  0.00    +0.000 C 
ENDBRANCH  29  31
ENDBRANCH  19  27
ENDBRANCH   1  19
BRANCH   8  34
ATOM     34  CB  LEU A   1       6.841   3.744  -1.995  0.00  0.00    +0.000 C 
BRANCH  34  35
ATOM     35  CG  LEU A   1       7.830   4.844  -2.354  0.00  0.00    +0.000 C 
ATOM     36  CD1 LEU A   1       8.495   5.411  -1.078  0.00  0.00    +0.000 C 
ATOM     37  CD2 LEU A   1       8.979   4.282  -3.176  0.00  0.00    +0.000 C 
ENDBRANCH  34  35
ENDBRANCH   8  34
TORSDOF 7
