REMARK  Name = CHEMBL458634
REMARK  10 active torsions:
REMARK  status: ('A' for Active; 'I' for Inactive)
REMARK    1  A    between atoms: C_1  and  O_2
REMARK    2  A    between atoms: O_2  and  C_3
REMARK    3  A    between atoms: C_6  and  S_7
REMARK    4  A    between atoms: S_7  and  N_10
REMARK    5  A    between atoms: N_10  and  C_11
REMARK    6  A    between atoms: N_10  and  C_25
REMARK    7  A    between atoms: C_11  and  C_12
REMARK    8  A    between atoms: C_15  and  C_16
REMARK    9  A    between atoms: C_28  and  O_29
REMARK   10  A    between atoms: O_29  and  C_30
REMARK                            x       y       z     vdW  Elec       q    Type
REMARK                         _______ _______ _______ _____ _____    ______ ____
ROOT
ATOM      1  N   UNL     1       4.842   2.161   5.904  0.00  0.00    +0.000 N 
ENDROOT
BRANCH   1   2
ATOM      2  C   UNL     1       5.366   2.726   7.193  0.00  0.00    +0.000 A 
ATOM      3  C   UNL     1       5.876   4.024   7.278  0.00  0.00    +0.000 A 
ATOM      4  C   UNL     1       6.305   4.571   8.488  0.00  0.00    +0.000 A 
ATOM      5  C   UNL     1       6.203   3.822   9.643  0.00  0.00    +0.000 A 
ATOM      6  N   UNL     1       5.726   2.558   9.620  0.00  0.00    +0.000 NA
ATOM      7  C   UNL     1       5.335   2.044   8.410  0.00  0.00    +0.000 A 
BRANCH   5   8
ATOM      8  O   UNL     1       6.549   4.285  10.887  0.00  0.00    +0.000 OA
ATOM      9  C   UNL     1       7.043   5.623  10.938  0.00  0.00    +0.000 C 
ENDBRANCH   5   8
ENDBRANCH   1   2
BRANCH   1  10
ATOM     10  S   UNL     1       5.923   2.592   4.561  0.00  0.00    +0.000 S 
ATOM     11  O   UNL     1       7.167   1.924   4.827  0.00  0.00    +0.000 OA
ATOM     12  O   UNL     1       5.853   4.046   4.360  0.00  0.00    +0.000 OA
BRANCH  10  16
ATOM     13  C   UNL     1       3.492   1.682   0.994  0.00  0.00    +0.000 A 
ATOM     14  C   UNL     1       4.716   2.178   0.662  0.00  0.00    +0.000 A 
ATOM     15  C   UNL     1       5.729   2.347   1.707  0.00  0.00    +0.000 A 
ATOM     16  C   UNL     1       5.490   1.978   3.026  0.00  0.00    +0.000 A 
ATOM     17  C   UNL     1       4.813   0.870   3.118  0.00  0.00    +0.000 A 
ATOM     18  C   UNL     1       3.819   1.044   2.191  0.00  0.00    +0.000 A 
BRANCH  13  20
ATOM     19  C   UNL     1       0.892   0.999   0.029  0.00  0.00    +0.000 C 
ATOM     20  O   UNL     1       2.354   1.629   0.135  0.00  0.00    +0.000 OA
ENDBRANCH  13  20
ENDBRANCH  10  16
ENDBRANCH   1  10
BRANCH   1  21
ATOM     21  C   UNL     1       3.366   1.556   6.029  0.00  0.00    +0.000 C 
BRANCH  21  22
ATOM     22  C   UNL     1       2.381   0.853   4.914  0.00  0.00    +0.000 A 
ATOM     23  C   UNL     1       2.624  -0.571   4.633  0.00  0.00    +0.000 A 
ATOM     24  C   UNL     1       2.424  -1.197   3.325  0.00  0.00    +0.000 A 
ATOM     25  C   UNL     1       1.902  -0.450   2.242  0.00  0.00    +0.000 A 
ATOM     26  C   UNL     1       1.346   1.021   2.743  0.00  0.00    +0.000 A 
ATOM     27  N   UNL     1       1.628   1.619   4.032  0.00  0.00    +0.000 NA
BRANCH  25  28
ATOM     28  C   UNL     1       2.519  -1.052   0.674  0.00  0.00    +0.000 A 
ATOM     29  C   UNL     1       3.503  -0.566  -0.395  0.00  0.00    +0.000 A 
ATOM     30  C   UNL     1       3.181  -0.501  -1.784  0.00  0.00    +0.000 A 
ATOM     31  C   UNL     1       2.107  -1.248  -2.189  0.00  0.00    +0.000 A 
ATOM     32  C   UNL     1       1.406  -2.005  -1.230  0.00  0.00    +0.000 A 
ATOM     33  C   UNL     1       1.639  -1.974   0.156  0.00  0.00    +0.000 A 
ATOM     34 CL   UNL     1       0.471  -2.725   1.186  0.00  0.00    +0.000 Cl
ENDBRANCH  25  28
ENDBRANCH  21  22
ENDBRANCH   1  21
TORSDOF 8
