REMARK  Name = CHEMBL66567
REMARK  8 active torsions:
REMARK  status: ('A' for Active; 'I' for Inactive)
REMARK    1  A    between atoms: C_1  and  O_2
REMARK    2  A    between atoms: O_2  and  C_3
REMARK    3  A    between atoms: C_5  and  O_6
REMARK    4  A    between atoms: O_6  and  C_7
REMARK    5  A    between atoms: N_10  and  C_11
REMARK    6  A    between atoms: C_11  and  C_12
REMARK    7  A    between atoms: C_22  and  C_23
REMARK    8  A    between atoms: C_28  and  N_29
REMARK                            x       y       z     vdW  Elec       q    Type
REMARK                         _______ _______ _______ _____ _____    ______ ____
ROOT
ATOM      1  C   UNL     1       3.034  -0.725  -0.673  0.00  0.00    +0.000 A 
ATOM      2  C   UNL     1       4.167  -1.452  -0.204  0.00  0.00    +0.000 A 
ATOM      3  C   UNL     1       4.928  -2.165  -1.072  0.00  0.00    +0.000 A 
ATOM      4  C   UNL     1       4.363  -2.210  -2.306  0.00  0.00    +0.000 A 
ATOM      5  C   UNL     1       3.295  -1.535  -2.850  0.00  0.00    +0.000 A 
ATOM      6  C   UNL     1       2.599  -0.711  -2.032  0.00  0.00    +0.000 A 
ENDROOT
BRANCH   6   7
ATOM      7  C   UNL     1       1.448  -0.062  -2.762  0.00  0.00    +0.000 C 
ATOM      8  O   UNL     1       1.153  -0.446  -3.899  0.00  0.00    +0.000 OA
ATOM      9  N   UNL     1       0.658   0.873  -2.104  0.00  0.00    +0.000 N 
ATOM     10  C   UNL     1      -0.734   0.464  -1.811  0.00  0.00    +0.000 C 
ATOM     11  C   UNL     1      -1.646   1.642  -1.784  0.00  0.00    +0.000 C 
ATOM     12  C   UNL     1      -1.239   2.622  -0.384  0.00  0.00    +0.000 C 
ATOM     13  C   UNL     1       0.282   3.076  -1.102  0.00  0.00    +0.000 C 
ATOM     14  C   UNL     1       1.252   1.940  -1.289  0.00  0.00    +0.000 C 
BRANCH  12  15
ATOM     15  N   UNL     1      -2.113   2.093   1.150  0.00  0.00    +0.000 N 
ATOM     16  C   UNL     1      -3.266   2.658   0.511  0.00  0.00    +0.000 C 
ATOM     17  O   UNL     1      -3.761   2.390  -0.638  0.00  0.00    +0.000 OA
ATOM     18  O   UNL     1      -3.714   3.776   1.027  0.00  0.00    +0.000 OA
ATOM     19  C   UNL     1      -4.629   3.192   1.864  0.00  0.00    +0.000 C 
ATOM     20  C   UNL     1      -3.708   3.320   2.997  0.00  0.00    +0.000 A 
ATOM     21  C   UNL     1      -4.229   4.136   4.089  0.00  0.00    +0.000 A 
ATOM     22  C   UNL     1      -3.963   3.914   5.408  0.00  0.00    +0.000 A 
ATOM     23  C   UNL     1      -3.500   2.636   5.571  0.00  0.00    +0.000 A 
ATOM     24  C   UNL     1      -2.859   1.862   4.324  0.00  0.00    +0.000 A 
ATOM     25  C   UNL     1      -2.602   2.457   2.896  0.00  0.00    +0.000 A 
ENDBRANCH  12  15
ENDBRANCH   6   7
BRANCH   1  27
ATOM     26  C   UNL     1       1.136  -0.364   0.544  0.00  0.00    +0.000 C 
ATOM     27  O   UNL     1       2.496  -0.051   0.388  0.00  0.00    +0.000 OA
ENDBRANCH   1  27
BRANCH   3  28
ATOM     28  O   UNL     1       6.105  -2.738  -0.722  0.00  0.00    +0.000 OA
BRANCH  28  29
ATOM     29  C   UNL     1       6.978  -3.476  -1.634  0.00  0.00    +0.000 C 
ATOM     30  C   UNL     1       7.533  -2.775  -2.896  0.00  0.00    +0.000 C 
ATOM     31  C   UNL     1       6.573  -2.714  -4.080  0.00  0.00    +0.000 C 
ATOM     32  N   UNL     1       5.891  -4.030  -4.320  0.00  0.00    +0.000 NA
ATOM     33  C   UNL     1       5.480  -4.829  -3.116  0.00  0.00    +0.000 C 
ATOM     34  C   UNL     1       6.452  -4.860  -1.969  0.00  0.00    +0.000 C 
BRANCH  32  35
ATOM     35  C   UNL     1       4.756  -3.849  -5.287  0.00  0.00    +0.000 C 
BRANCH  35  36
ATOM     36  C   UNL     1       4.027  -5.126  -5.659  0.00  0.00    +0.000 A 
ATOM     37  C   UNL     1       3.292  -5.817  -4.688  0.00  0.00    +0.000 A 
ATOM     38  C   UNL     1       2.920  -7.126  -4.915  0.00  0.00    +0.000 A 
ATOM     39  C   UNL     1       3.085  -7.633  -6.188  0.00  0.00    +0.000 A 
ATOM     40  C   UNL     1       3.665  -6.821  -7.153  0.00  0.00    +0.000 A 
ATOM     41  N   UNL     1       4.179  -5.599  -6.911  0.00  0.00    +0.000 NA
ENDBRANCH  35  36
ENDBRANCH  32  35
ENDBRANCH  28  29
ENDBRANCH   3  28
TORSDOF 7
