REMARK  Name = CHEMBL4215696
REMARK  4 active torsions:
REMARK  status: ('A' for Active; 'I' for Inactive)
REMARK    1  A    between atoms: C_1  and  C_2
REMARK    2  A    between atoms: N_5  and  C_6
REMARK    3  A    between atoms: C_9  and  C_10
REMARK    4  A    between atoms: C_16  and  O_17
REMARK                            x       y       z     vdW  Elec       q    Type
REMARK                         _______ _______ _______ _____ _____    ______ ____
ROOT
ATOM      1  C   UNL     1      10.215  -4.725  -1.152  0.00  0.00    +0.000 C 
ATOM      2  O   UNL     1      10.365  -4.571   0.162  0.00  0.00    +0.000 OA
ATOM      3  N   UNL     1      11.408  -5.946  -2.157  0.00  0.00    +0.000 N 
ATOM      4  C   UNL     1      10.554  -6.380  -1.127  0.00  0.00    +0.000 C 
ATOM      5  C   UNL     1       9.894  -7.042  -2.242  0.00  0.00    +0.000 C 
ATOM      6  C   UNL     1      10.929  -8.071  -2.048  0.00  0.00    +0.000 C 
ATOM      7  C   UNL     1      10.911  -8.649  -3.512  0.00  0.00    +0.000 C 
ATOM      8  C   UNL     1      12.230  -9.063  -3.255  0.00  0.00    +0.000 A 
ATOM      9  C   UNL     1      12.274 -10.852  -3.584  0.00  0.00    +0.000 A 
ATOM     10  C   UNL     1      13.313 -11.714  -3.357  0.00  0.00    +0.000 A 
ATOM     11  C   UNL     1      14.265 -10.770  -3.072  0.00  0.00    +0.000 A 
ATOM     12  C   UNL     1      13.918  -8.941  -2.771  0.00  0.00    +0.000 A 
ATOM     13  C   UNL     1      12.796  -7.444  -2.794  0.00  0.00    +0.000 A 
ENDROOT
BRANCH   1  17
ATOM     14  C   UNL     1       5.611  -1.571   0.079  0.00  0.00    +0.000 A 
ATOM     15  C   UNL     1       6.657  -1.600   0.974  0.00  0.00    +0.000 A 
ATOM     16  C   UNL     1       8.041  -2.540   0.627  0.00  0.00    +0.000 A 
ATOM     17  C   UNL     1       8.556  -3.623  -0.643  0.00  0.00    +0.000 A 
ATOM     18  C   UNL     1       7.217  -3.409  -1.226  0.00  0.00    +0.000 A 
ATOM     19  C   UNL     1       5.851  -2.476  -0.954  0.00  0.00    +0.000 A 
BRANCH  14  24
ATOM     20  C   UNL     1       0.959   0.035   0.033  0.00  0.00    +0.000 C 
ATOM     21  C   UNL     1       2.447   0.037   0.033  0.00  0.00    +0.000 A 
ATOM     22  C   UNL     1       3.254   1.185   0.044  0.00  0.00    +0.000 A 
ATOM     23  C   UNL     1       4.543   0.714   0.083  0.00  0.00    +0.000 A 
ATOM     24  N   UNL     1       4.485  -0.666   0.088  0.00  0.00    +0.000 N 
ATOM     25  N   UNL     1       3.185  -1.090  -0.003  0.00  0.00    +0.000 NA
ENDBRANCH  14  24
ENDBRANCH   1  17
BRANCH   7  26
ATOM     26  O   UNL     1      11.173  -7.972  -4.765  0.00  0.00    +0.000 OA
ATOM     27  H   UNL     1      12.070  -7.557  -4.809  0.00  0.00    +0.000 HD
ENDBRANCH   7  26
TORSDOF 3
