REMARK  Name = CHEMBL2113197
REMARK  12 active torsions:
REMARK  status: ('A' for Active; 'I' for Inactive)
REMARK    1  A    between atoms: C_1  and  C_2
REMARK    2  A    between atoms: C_2  and  O_3
REMARK    3  A    between atoms: O_3  and  C_4
REMARK    4  A    between atoms: C_7  and  S_8
REMARK    5  A    between atoms: S_8  and  N_11
REMARK    6  A    between atoms: N_11  and  C_12
REMARK    7  A    between atoms: N_11  and  C_19
REMARK    8  A    between atoms: C_15  and  C_16
REMARK    9  A    between atoms: C_19  and  C_20
REMARK   10  A    between atoms: C_19  and  C_22
REMARK   11  A    between atoms: C_20  and  O_21
REMARK   12  A    between atoms: N_24  and  N_25
REMARK                            x       y       z     vdW  Elec       q    Type
REMARK                         _______ _______ _______ _____ _____    ______ ____
ROOT
ATOM      1  N   UNL     1       9.705  -1.882  -0.063  0.00  0.00    +0.000 N 
ENDROOT
BRANCH   1   2
ATOM      2  C   UNL     1       8.983  -2.013   1.158  0.00  0.00    +0.000 A 
ATOM      3  C   UNL     1       9.251  -1.063   2.145  0.00  0.00    +0.000 A 
ATOM      4  C   UNL     1       8.597  -1.122   3.366  0.00  0.00    +0.000 A 
ATOM      5  C   UNL     1       7.490  -1.954   3.522  0.00  0.00    +0.000 A 
ATOM      6  C   UNL     1       6.643  -1.836   4.751  0.00  0.00    +0.000 C 
ATOM      7  C   UNL     1       7.159  -2.852   2.500  0.00  0.00    +0.000 A 
ATOM      8  C   UNL     1       7.977  -2.965   1.367  0.00  0.00    +0.000 A 
ENDBRANCH   1   2
BRANCH   1   9
ATOM      9  S   UNL     1       8.861  -1.844  -1.610  0.00  0.00    +0.000 S 
ATOM     10  O   UNL     1       9.053  -3.153  -2.208  0.00  0.00    +0.000 OA
ATOM     11  O   UNL     1       9.268  -0.657  -2.330  0.00  0.00    +0.000 OA
BRANCH   9  15
ATOM     12  C   UNL     1       4.289  -1.091  -1.223  0.00  0.00    +0.000 A 
ATOM     13  C   UNL     1       4.873  -1.250  -2.486  0.00  0.00    +0.000 A 
ATOM     14  C   UNL     1       6.248  -1.574  -2.618  0.00  0.00    +0.000 A 
ATOM     15  C   UNL     1       7.070  -1.584  -1.481  0.00  0.00    +0.000 A 
ATOM     16  C   UNL     1       6.473  -1.230  -0.288  0.00  0.00    +0.000 A 
ATOM     17  C   UNL     1       5.103  -1.157  -0.117  0.00  0.00    +0.000 A 
BRANCH  12  18
ATOM     18  O   UNL     1       2.944  -0.870  -1.133  0.00  0.00    +0.000 OA
BRANCH  18  20
ATOM     19  C   UNL     1       1.025  -0.056   0.037  0.00  0.00    +0.000 C 
ATOM     20  C   UNL     1       2.537  -0.064  -0.013  0.00  0.00    +0.000 C 
ENDBRANCH  18  20
ENDBRANCH  12  18
ENDBRANCH   9  15
ENDBRANCH   1   9
BRANCH   1  21
ATOM     21  C   UNL     1      11.259  -2.110  -0.001  0.00  0.00    +0.000 C 
BRANCH  21  22
ATOM     22  C   UNL     1      12.114  -2.154   1.401  0.00  0.00    +0.000 C 
ATOM     23  O   UNL     1      11.594  -2.355   2.528  0.00  0.00    +0.000 OA
ATOM     24  N   UNL     1      13.539  -2.119   1.229  0.00  0.00    +0.000 N 
ATOM     25  H   UNL     1      13.890  -2.660   0.441  0.00  0.00    +0.000 HD
BRANCH  24  26
ATOM     26  N   UNL     1      14.652  -1.362   1.887  0.00  0.00    +0.000 NA
ATOM     27  C   UNL     1      15.829  -1.986   1.782  0.00  0.00    +0.000 C 
ATOM     28  C   UNL     1      15.768  -3.438   2.023  0.00  0.00    +0.000 C 
ATOM     29  O   UNL     1      15.276  -4.042   1.076  0.00  0.00    +0.000 OA
ATOM     30  N   UNL     1      16.879  -3.735   2.777  0.00  0.00    +0.000 N 
ATOM     31  C   UNL     1      17.897  -3.159   2.005  0.00  0.00    +0.000 A 
ATOM     32  C   UNL     1      19.094  -3.889   1.914  0.00  0.00    +0.000 A 
ATOM     33  C   UNL     1      19.955  -3.623   0.882  0.00  0.00    +0.000 A 
ATOM     34  C   UNL     1      19.546  -2.639  -0.028  0.00  0.00    +0.000 A 
ATOM     35  C   UNL     1      18.288  -1.857   0.123  0.00  0.00    +0.000 A 
ATOM     36  C   UNL     1      17.401  -2.087   1.209  0.00  0.00    +0.000 A 
ATOM     37  H   UNL     1      16.886  -3.225   3.658  0.00  0.00    +0.000 HD
ENDBRANCH  24  26
ENDBRANCH  21  22
BRANCH  21  38
ATOM     38  C   UNL     1      11.939  -0.957  -0.773  0.00  0.00    +0.000 C 
BRANCH  38  39
ATOM     39  O   UNL     1      11.807  -0.952  -2.183  0.00  0.00    +0.000 OA
ATOM     40  H   UNL     1      11.645  -1.845  -2.525  0.00  0.00    +0.000 HD
ENDBRANCH  38  39
ENDBRANCH  21  38
ENDBRANCH   1  21
TORSDOF 10
