REMARK  Name = CHEMBL2369830
REMARK  21 active torsions:
REMARK  status: ('A' for Active; 'I' for Inactive)
REMARK    1  A    between atoms: C_1  and  C_2
REMARK    2  A    between atoms: C_2  and  C_3
REMARK    3  A    between atoms: C_3  and  C_4
REMARK    4  A    between atoms: C_4  and  C_5
REMARK    5  A    between atoms: C_9  and  C_10
REMARK    6  A    between atoms: C_10  and  C_11
REMARK    7  A    between atoms: C_20  and  C_21
REMARK    8  A    between atoms: C_21  and  C_22
REMARK    9  A    between atoms: C_25  and  O_26
REMARK   10  A    between atoms: C_37  and  C_38
REMARK   11  A    between atoms: C_44  and  C_45
REMARK   12  A    between atoms: N_47  and  C_48
REMARK   13  A    between atoms: C_48  and  C_49
REMARK   14  A    between atoms: C_48  and  C_56
REMARK   15  A    between atoms: C_49  and  C_50
REMARK   16  A    between atoms: C_50  and  C_51
REMARK   17  A    between atoms: C_51  and  N_52
REMARK   18  A    between atoms: N_58  and  C_59
REMARK   19  A    between atoms: C_59  and  C_60
REMARK   20  A    between atoms: C_66  and  C_67
REMARK   21  A    between atoms: C_67  and  C_68
REMARK                            x       y       z     vdW  Elec       q    Type
REMARK                         _______ _______ _______ _____ _____    ______ ____
ROOT
ATOM      1  C   UNL     1       5.190  -2.909   1.717  0.00  0.00    +0.000 C 
ATOM      2  N   UNL     1       5.974  -4.244   1.043  0.00  0.00    +0.000 N 
ATOM      3  C   UNL     1       6.181  -4.671  -0.321  0.00  0.00    +0.000 C 
ATOM      4  O   UNL     1       7.265  -5.092  -0.801  0.00  0.00    +0.000 OA
ATOM      5  C   UNL     1       4.839  -4.508  -1.149  0.00  0.00    +0.000 C 
ATOM      6  N   UNL     1       4.362  -3.315  -1.863  0.00  0.00    +0.000 N 
ATOM      7  C   UNL     1       4.821  -2.820  -3.075  0.00  0.00    +0.000 C 
ATOM      8  O   UNL     1       4.026  -1.987  -3.545  0.00  0.00    +0.000 OA
ATOM      9  C   UNL     1       6.443  -3.300  -3.738  0.00  0.00    +0.000 C 
ATOM     10  N   UNL     1       6.164  -3.549  -5.082  0.00  0.00    +0.000 N 
ATOM     11  C   UNL     1       6.029  -2.507  -5.952  0.00  0.00    +0.000 C 
ATOM     12  O   UNL     1       5.856  -2.823  -7.132  0.00  0.00    +0.000 OA
ATOM     13  C   UNL     1       6.059  -0.965  -5.580  0.00  0.00    +0.000 C 
ATOM     14  C   UNL     1       6.284  -0.341  -4.240  0.00  0.00    +0.000 C 
ATOM     15  S   UNL     1       6.066   1.428  -3.810  0.00  0.00    +0.000 S 
ATOM     16  S   UNL     1       7.260   1.622  -2.129  0.00  0.00    +0.000 S 
ATOM     17  C   UNL     1       6.562   2.708  -0.856  0.00  0.00    +0.000 C 
ATOM     18  C   UNL     1       6.905   2.800   0.653  0.00  0.00    +0.000 C 
ATOM     19  N   UNL     1       5.822   2.151   1.497  0.00  0.00    +0.000 N 
ATOM     20  C   UNL     1       5.391   0.873   1.500  0.00  0.00    +0.000 C 
ATOM     21  O   UNL     1       4.463   0.347   2.089  0.00  0.00    +0.000 OA
ATOM     22  C   UNL     1       6.310   0.022   0.863  0.00  0.00    +0.000 C 
ATOM     23  N   UNL     1       6.731  -1.033   2.252  0.00  0.00    +0.000 N 
ATOM     24  C   UNL     1       6.350  -2.351   2.532  0.00  0.00    +0.000 C 
ATOM     25  O   UNL     1       7.297  -3.109   2.851  0.00  0.00    +0.000 OA
ATOM     26  H   UNL     1       6.891  -4.441   1.490  0.00  0.00    +0.000 HD
ATOM     27  H   UNL     1       3.725  -2.665  -1.402  0.00  0.00    +0.000 HD
ATOM     28  H   UNL     1       6.250  -4.512  -5.387  0.00  0.00    +0.000 HD
ATOM     29  H   UNL     1       5.339   2.705   2.188  0.00  0.00    +0.000 HD
ATOM     30  H   UNL     1       7.684  -1.469   2.179  0.00  0.00    +0.000 HD
ENDROOT
BRANCH  18  31
ATOM     31  C   UNL     1       7.010   4.281   1.126  0.00  0.00    +0.000 C 
ATOM     32  O   UNL     1       6.327   4.617   2.099  0.00  0.00    +0.000 OA
ATOM     33  N   UNL     1       8.007   5.086   0.575  0.00  0.00    +0.000 N 
ATOM     34  C   UNL     1       8.318   5.312  -0.831  0.00  0.00    +0.000 C 
ATOM     35  C   UNL     1       9.779   5.651  -0.787  0.00  0.00    +0.000 C 
ATOM     36  C   UNL     1       9.832   6.613   0.380  0.00  0.00    +0.000 C 
ATOM     37  C   UNL     1       8.723   6.142   1.348  0.00  0.00    +0.000 C 
BRANCH  37  38
ATOM     38  C   UNL     1       7.866   7.387   1.590  0.00  0.00    +0.000 C 
ATOM     39  O   UNL     1       6.821   7.514   0.949  0.00  0.00    +0.000 OA
ATOM     40  N   UNL     1       8.348   8.374   2.448  0.00  0.00    +0.000 N 
ATOM     41  H   UNL     1       9.320   8.390   2.748  0.00  0.00    +0.000 HD
BRANCH  40  42
ATOM     42  C   UNL     1       7.523   9.533   2.886  0.00  0.00    +0.000 C 
BRANCH  42  43
ATOM     43  C   UNL     1       8.392  10.581   3.669  0.00  0.00    +0.000 C 
ATOM     44  O   UNL     1       9.593  10.396   3.868  0.00  0.00    +0.000 OA
ATOM     45  N   UNL     1       7.749  11.721   4.121  0.00  0.00    +0.000 N 
ATOM     46  H   UNL     1       6.771  11.845   3.933  0.00  0.00    +0.000 HD
BRANCH  45  47
ATOM     47  C   UNL     1       8.443  12.769   4.879  0.00  0.00    +0.000 C 
BRANCH  47  48
ATOM     48  C   UNL     1       7.572  13.966   5.310  0.00  0.00    +0.000 C 
ATOM     49  N   UNL     1       6.247  13.953   4.964  0.00  0.00    +0.000 N 
ATOM     50  O   UNL     1       8.024  14.915   5.947  0.00  0.00    +0.000 OA
ATOM     51  H   UNL     1       5.778  13.234   4.444  0.00  0.00    +0.000 HD
ATOM     52  H   UNL     1       5.673  14.740   5.243  0.00  0.00    +0.000 HD
ENDBRANCH  47  48
ENDBRANCH  45  47
ENDBRANCH  42  43
BRANCH  42  53
ATOM     53  C   UNL     1       6.370   9.060   3.792  0.00  0.00    +0.000 C 
BRANCH  53  54
ATOM     54  C   UNL     1       5.476   8.042   3.100  0.00  0.00    +0.000 C 
BRANCH  54  55
ATOM     55  C   UNL     1       4.348   7.519   3.929  0.00  0.00    +0.000 C 
BRANCH  55  56
ATOM     56  N   UNL     1       3.598   6.539   3.137  0.00  0.00    +0.000 NA
ATOM     57  C   UNL     1       2.608   5.970   3.724  0.00  0.00    +0.000 C 
ATOM     58  N   UNL     1       2.212   6.223   4.987  0.00  0.00    +0.000 N 
ATOM     59  N   UNL     1       1.866   5.055   3.072  0.00  0.00    +0.000 N 
ATOM     60  H   UNL     1       2.735   6.891   5.535  0.00  0.00    +0.000 HD
ATOM     61  H   UNL     1       1.431   5.785   5.438  0.00  0.00    +0.000 HD
ATOM     62  H   UNL     1       2.132   4.824   2.121  0.00  0.00    +0.000 HD
ATOM     63  H   UNL     1       1.070   4.575   3.456  0.00  0.00    +0.000 HD
ENDBRANCH  55  56
ENDBRANCH  54  55
ENDBRANCH  53  54
ENDBRANCH  42  53
ENDBRANCH  40  42
ENDBRANCH  37  38
ENDBRANCH  18  31
BRANCH   9  64
ATOM     64  C   UNL     1       7.920  -2.717  -3.834  0.00  0.00    +0.000 C 
BRANCH  64  65
ATOM     65  C   UNL     1       8.263  -2.315  -2.511  0.00  0.00    +0.000 A 
ATOM     66  C   UNL     1       7.213  -2.926  -1.176  0.00  0.00    +0.000 A 
ATOM     67  C   UNL     1       7.438  -2.155   0.404  0.00  0.00    +0.000 A 
ATOM     68  C   UNL     1       8.589  -0.734   0.651  0.00  0.00    +0.000 A 
ATOM     69  C   UNL     1       9.499  -0.167  -0.604  0.00  0.00    +0.000 A 
ATOM     70  C   UNL     1       9.354  -0.913  -2.196  0.00  0.00    +0.000 A 
BRANCH  68  71
ATOM     71  O   UNL     1       9.001  -0.336   1.914  0.00  0.00    +0.000 OA
ATOM     72  H   UNL     1       8.298  -0.268   2.604  0.00  0.00    +0.000 HD
ENDBRANCH  68  71
ENDBRANCH  64  65
ENDBRANCH   9  64
BRANCH   5  73
ATOM     73  C   UNL     1       4.799  -5.638  -2.112  0.00  0.00    +0.000 C 
BRANCH  73  74
ATOM     74  C   UNL     1       5.268  -6.906  -1.481  0.00  0.00    +0.000 A 
ATOM     75  C   UNL     1       5.732  -7.040  -0.151  0.00  0.00    +0.000 A 
ATOM     76  C   UNL     1       6.666  -7.964   0.219  0.00  0.00    +0.000 A 
ATOM     77  C   UNL     1       6.725  -9.065  -0.578  0.00  0.00    +0.000 A 
ATOM     78  C   UNL     1       6.110  -9.065  -1.836  0.00  0.00    +0.000 A 
ATOM     79  C   UNL     1       5.438  -7.961  -2.322  0.00  0.00    +0.000 A 
ENDBRANCH  73  74
ENDBRANCH   5  73
BRANCH   1  80
ATOM     80  C   UNL     1       3.867  -2.665   2.392  0.00  0.00    +0.000 C 
BRANCH  80  81
ATOM     81  C   UNL     1       3.488  -3.988   2.858  0.00  0.00    +0.000 C 
BRANCH  81  83
ATOM     82  C   UNL     1       1.925  -5.338   4.033  0.00  0.00    +0.000 C 
ATOM     83  C   UNL     1       2.184  -3.928   3.585  0.00  0.00    +0.000 C 
ENDBRANCH  81  83
ENDBRANCH  80  81
ENDBRANCH   1  80
BRANCH  22  84
ATOM     84  C   UNL     1       5.840  -0.460  -0.463  0.00  0.00    +0.000 C 
BRANCH  84  85
ATOM     85  C   UNL     1       7.377  -0.979  -1.220  0.00  0.00    +0.000 C 
ATOM     86  N   UNL     1       8.842  -2.098  -0.741  0.00  0.00    +0.000 N 
ATOM     87  O   UNL     1       6.502  -1.237  -2.185  0.00  0.00    +0.000 OA
ATOM     88  H   UNL     1       9.257  -2.348   0.205  0.00  0.00    +0.000 HD
ATOM     89  H   UNL     1       8.958  -3.135  -1.005  0.00  0.00    +0.000 HD
ENDBRANCH  84  85
ENDBRANCH  22  84
TORSDOF 20
