REMARK  Name = CHEMBL1779401
REMARK  13 active torsions:
REMARK  status: ('A' for Active; 'I' for Inactive)
REMARK    1  A    between atoms: C_1  and  O_2
REMARK    2  A    between atoms: O_2  and  C_3
REMARK    3  A    between atoms: C_6  and  S_7
REMARK    4  A    between atoms: S_7  and  N_10
REMARK    5  A    between atoms: C_13  and  C_14
REMARK    6  A    between atoms: C_13  and  N_22
REMARK    7  A    between atoms: C_19  and  O_20
REMARK    8  A    between atoms: O_20  and  C_21
REMARK    9  A    between atoms: C_26  and  C_27
REMARK   10  A    between atoms: N_29  and  C_30
REMARK   11  A    between atoms: N_29  and  C_31
REMARK   12  A    between atoms: C_39  and  O_40
REMARK   13  A    between atoms: O_40  and  C_41
REMARK                            x       y       z     vdW  Elec       q    Type
REMARK                         _______ _______ _______ _____ _____    ______ ____
ROOT
ATOM      1  N   UNL     1       6.824  -6.243   4.058  0.00  0.00    +0.000 N 
ATOM      2  C   UNL     1       6.402  -7.043   2.954  0.00  0.00    +0.000 C 
ATOM      3  O   UNL     1       7.251  -7.426   2.241  0.00  0.00    +0.000 OA
ATOM      4  C   UNL     1       4.930  -7.932   3.383  0.00  0.00    +0.000 C 
ATOM      5  C   UNL     1       5.717  -8.619   4.442  0.00  0.00    +0.000 A 
ATOM      6  C   UNL     1       5.585 -10.073   4.638  0.00  0.00    +0.000 A 
ATOM      7  C   UNL     1       6.338 -10.807   5.474  0.00  0.00    +0.000 A 
ATOM      8 CL   UNL     1       6.107 -12.515   5.529  0.00  0.00    +0.000 Cl
ATOM      9  C   UNL     1       7.240 -10.023   6.143  0.00  0.00    +0.000 A 
ATOM     10  C   UNL     1       7.341  -8.473   5.950  0.00  0.00    +0.000 A 
ATOM     11  C   UNL     1       6.506  -7.630   5.104  0.00  0.00    +0.000 A 
ENDROOT
BRANCH   4  12
ATOM     12  C   UNL     1       3.543  -7.751   4.359  0.00  0.00    +0.000 A 
ATOM     13  C   UNL     1       2.938  -8.909   4.943  0.00  0.00    +0.000 A 
ATOM     14  C   UNL     1       1.662  -8.946   5.517  0.00  0.00    +0.000 A 
ATOM     15  C   UNL     1       1.014  -7.771   5.707  0.00  0.00    +0.000 A 
ATOM     16  N   UNL     1       1.559  -6.633   5.331  0.00  0.00    +0.000 NA
ATOM     17  C   UNL     1       2.723  -6.651   4.639  0.00  0.00    +0.000 A 
BRANCH  17  18
ATOM     18  O   UNL     1       2.872  -5.393   4.253  0.00  0.00    +0.000 OA
ATOM     19  C   UNL     1       4.207  -5.208   4.147  0.00  0.00    +0.000 C 
ENDBRANCH  17  18
ENDBRANCH   4  12
BRANCH   4  20
ATOM     20  N   UNL     1       4.697  -8.538   2.065  0.00  0.00    +0.000 NA
ATOM     21  C   UNL     1       3.337  -8.453   1.599  0.00  0.00    +0.000 C 
ATOM     22  C   UNL     1       2.783  -9.809   1.950  0.00  0.00    +0.000 C 
ATOM     23  C   UNL     1       3.950 -10.752   1.721  0.00  0.00    +0.000 C 
ATOM     24  C   UNL     1       5.214  -9.884   1.795  0.00  0.00    +0.000 C 
BRANCH  24  25
ATOM     25  C   UNL     1       6.123 -10.052   0.589  0.00  0.00    +0.000 C 
ATOM     26  O   UNL     1       6.381  -9.130  -0.180  0.00  0.00    +0.000 OA
ATOM     27  N   UNL     1       6.700 -11.335   0.482  0.00  0.00    +0.000 N 
ATOM     28  C   UNL     1       6.510 -12.474   1.392  0.00  0.00    +0.000 C 
ATOM     29  C   UNL     1       7.570 -11.576  -0.646  0.00  0.00    +0.000 C 
ENDBRANCH  24  25
ENDBRANCH   4  20
BRANCH   1  30
ATOM     30  S   UNL     1       6.533  -4.256   3.321  0.00  0.00    +0.000 S 
ATOM     31  O   UNL     1       7.606  -4.112   2.348  0.00  0.00    +0.000 OA
ATOM     32  O   UNL     1       6.564  -3.439   4.529  0.00  0.00    +0.000 OA
BRANCH  30  36
ATOM     33  C   UNL     1       3.153  -1.001   0.944  0.00  0.00    +0.000 A 
ATOM     34  C   UNL     1       4.378  -0.678   1.516  0.00  0.00    +0.000 A 
ATOM     35  C   UNL     1       5.277  -1.686   2.119  0.00  0.00    +0.000 A 
ATOM     36  C   UNL     1       5.008  -3.115   2.211  0.00  0.00    +0.000 A 
ATOM     37  C   UNL     1       3.739  -3.421   1.600  0.00  0.00    +0.000 A 
ATOM     38  C   UNL     1       2.845  -2.354   1.003  0.00  0.00    +0.000 A 
BRANCH  33  40
ATOM     39  C   UNL     1       1.033  -0.041   0.145  0.00  0.00    +0.000 C 
ATOM     40  O   UNL     1       2.463  -0.005   0.287  0.00  0.00    +0.000 OA
ENDBRANCH  33  40
BRANCH  37  41
ATOM     41  O   UNL     1       3.319  -4.725   1.493  0.00  0.00    +0.000 OA
ATOM     42  C   UNL     1       2.041  -4.946   0.880  0.00  0.00    +0.000 C 
ENDBRANCH  37  41
ENDBRANCH  30  36
ENDBRANCH   1  30
TORSDOF 8
