REMARK  Name = CHEMBL572709
REMARK  13 active torsions:
REMARK  status: ('A' for Active; 'I' for Inactive)
REMARK    1  A    between atoms: C_1  and  O_2
REMARK    2  A    between atoms: O_2  and  C_3
REMARK    3  A    between atoms: C_6  and  S_7
REMARK    4  A    between atoms: S_7  and  N_10
REMARK    5  A    between atoms: C_19  and  C_20
REMARK    6  A    between atoms: C_20  and  C_21
REMARK    7  A    between atoms: C_21  and  S_22
REMARK    8  A    between atoms: S_22  and  N_25
REMARK    9  A    between atoms: C_28  and  N_29
REMARK   10  A    between atoms: N_29  and  C_30
REMARK   11  A    between atoms: C_30  and  C_31
REMARK   12  A    between atoms: C_39  and  O_40
REMARK   13  A    between atoms: O_40  and  C_41
REMARK                            x       y       z     vdW  Elec       q    Type
REMARK                         _______ _______ _______ _____ _____    ______ ____
ROOT
ATOM      1  N   UNL     1       4.677   4.334  -4.572  0.00  0.00    +0.000 N 
ATOM      2  C   UNL     1       5.007   5.109  -5.787  0.00  0.00    +0.000 A 
ATOM      3  C   UNL     1       5.085   6.505  -5.738  0.00  0.00    +0.000 A 
ATOM      4  C   UNL     1       5.318   7.248  -6.905  0.00  0.00    +0.000 A 
ATOM      5  C   UNL     1       5.539   6.581  -8.109  0.00  0.00    +0.000 A 
ATOM      6  C   UNL     1       5.293   5.208  -8.192  0.00  0.00    +0.000 A 
ATOM      7  C   UNL     1       4.900   4.500  -7.042  0.00  0.00    +0.000 A 
ATOM      8  C   UNL     1       4.383   3.088  -7.103  0.00  0.00    +0.000 C 
ATOM      9  C   UNL     1       3.461   2.703  -5.870  0.00  0.00    +0.000 C 
ATOM     10  C   UNL     1       3.162   3.816  -4.786  0.00  0.00    +0.000 C 
ENDROOT
BRANCH   1  11
ATOM     11  S   UNL     1       5.918   3.024  -4.092  0.00  0.00    +0.000 S 
ATOM     12  O   UNL     1       7.147   3.581  -3.681  0.00  0.00    +0.000 OA
ATOM     13  O   UNL     1       5.996   1.977  -5.165  0.00  0.00    +0.000 OA
BRANCH  11  17
ATOM     14  C   UNL     1       3.510   0.227  -0.991  0.00  0.00    +0.000 A 
ATOM     15  C   UNL     1       4.481  -0.279  -1.774  0.00  0.00    +0.000 A 
ATOM     16  C   UNL     1       5.226   0.661  -2.594  0.00  0.00    +0.000 A 
ATOM     17  C   UNL     1       5.126   2.190  -2.577  0.00  0.00    +0.000 A 
ATOM     18  C   UNL     1       4.212   2.838  -1.646  0.00  0.00    +0.000 A 
ATOM     19  C   UNL     1       3.488   1.656  -1.064  0.00  0.00    +0.000 A 
BRANCH  14  21
ATOM     20  C   UNL     1       1.253  -0.408   0.058  0.00  0.00    +0.000 C 
ATOM     21  O   UNL     1       2.689  -0.568  -0.181  0.00  0.00    +0.000 OA
ENDBRANCH  14  21
BRANCH  18  22
ATOM     22  O   UNL     1       3.675   4.478  -1.861  0.00  0.00    +0.000 OA
ATOM     23  C   UNL     1       2.149   5.474  -1.951  0.00  0.00    +0.000 C 
ENDBRANCH  18  22
ENDBRANCH  11  17
ENDBRANCH   1  11
BRANCH  10  24
ATOM     24  C   UNL     1       2.491   3.028  -3.543  0.00  0.00    +0.000 C 
BRANCH  24  25
ATOM     25  C   UNL     1       1.568   3.296  -2.150  0.00  0.00    +0.000 C 
BRANCH  25  26
ATOM     26  S   UNL     1       0.945   2.668  -0.632  0.00  0.00    +0.000 S 
ATOM     27  O   UNL     1       0.379   1.512  -1.254  0.00  0.00    +0.000 OA
ATOM     28  O   UNL     1       1.919   2.690   0.494  0.00  0.00    +0.000 OA
BRANCH  26  29
ATOM     29  N   UNL     1      -0.212   3.370   0.185  0.00  0.00    +0.000 NA
ATOM     30  C   UNL     1      -0.410   4.782   0.141  0.00  0.00    +0.000 C 
ATOM     31  C   UNL     1      -1.436   5.180   1.155  0.00  0.00    +0.000 C 
ATOM     32  C   UNL     1      -2.671   4.296   0.995  0.00  0.00    +0.000 C 
ATOM     33  C   UNL     1      -2.327   2.831   1.193  0.00  0.00    +0.000 C 
ATOM     34  C   UNL     1      -1.321   2.452   0.188  0.00  0.00    +0.000 C 
BRANCH  32  35
ATOM     35  N   UNL     1      -3.211   4.429  -0.362  0.00  0.00    +0.000 NA
ATOM     36  H   UNL     1      -3.992   3.783  -0.460  0.00  0.00    +0.000 HD
BRANCH  35  37
ATOM     37  C   UNL     1      -3.616   5.791  -0.643  0.00  0.00    +0.000 C 
BRANCH  37  38
ATOM     38  C   UNL     1      -4.241   5.919  -2.023  0.00  0.00    +0.000 C 
ATOM     39  C   UNL     1      -5.310   4.847  -2.243  0.00  0.00    +0.000 C 
ATOM     40  C   UNL     1      -6.041   5.043  -3.553  0.00  0.00    +0.000 C 
ATOM     41  C   UNL     1      -6.637   6.439  -3.642  0.00  0.00    +0.000 C 
ATOM     42  C   UNL     1      -5.562   7.506  -3.461  0.00  0.00    +0.000 C 
ATOM     43  C   UNL     1      -4.828   7.329  -2.143  0.00  0.00    +0.000 C 
ENDBRANCH  37  38
ENDBRANCH  35  37
ENDBRANCH  32  35
ENDBRANCH  26  29
ENDBRANCH  25  26
ENDBRANCH  24  25
ENDBRANCH  10  24
TORSDOF 11
