REMARK  Name = CHEMBL480546
REMARK  7 active torsions:
REMARK  status: ('A' for Active; 'I' for Inactive)
REMARK    1  A    between atoms: C_2  and  C_3
REMARK    2  A    between atoms: C_6  and  C_7
REMARK    3  A    between atoms: C_12  and  C_13
REMARK    4  A    between atoms: N_19  and  C_20
REMARK    5  A    between atoms: N_19  and  C_27
REMARK    6  A    between atoms: C_20  and  C_21
REMARK    7  A    between atoms: C_27  and  C_28
REMARK                            x       y       z     vdW  Elec       q    Type
REMARK                         _______ _______ _______ _____ _____    ______ ____
ROOT
ATOM      1  O   UNL     1       1.275  -0.275  -0.603  0.00  0.00    +0.000 OA
ATOM      2  C   UNL     1       2.445  -0.176  -0.215  0.00  0.00    +0.000 C 
ATOM      3  N   UNL     1       3.052  -0.890   0.821  0.00  0.00    +0.000 N 
ENDROOT
BRANCH   2   4
ATOM      4  C   UNL     1       3.156   0.851  -0.957  0.00  0.00    +0.000 A 
ATOM      5  C   UNL     1       2.621   2.139  -1.004  0.00  0.00    +0.000 A 
ATOM      6  C   UNL     1       3.096   3.016  -1.962  0.00  0.00    +0.000 A 
ATOM      7  C   UNL     1       4.151   2.601  -2.778  0.00  0.00    +0.000 A 
ATOM      8  N   UNL     1       4.675   1.353  -2.752  0.00  0.00    +0.000 NA
ATOM      9  C   UNL     1       4.129   0.492  -1.870  0.00  0.00    +0.000 A 
BRANCH   7  10
ATOM     10  C   UNL     1       4.885   3.569  -3.581  0.00  0.00    +0.000 A 
ATOM     11  C   UNL     1       4.920   3.446  -4.982  0.00  0.00    +0.000 A 
ATOM     12  C   UNL     1       5.624   4.364  -5.761  0.00  0.00    +0.000 A 
ATOM     13  C   UNL     1       6.246   5.451  -5.157  0.00  0.00    +0.000 A 
ATOM     14  C   UNL     1       6.226   5.582  -3.770  0.00  0.00    +0.000 A 
ATOM     15  C   UNL     1       5.571   4.637  -2.962  0.00  0.00    +0.000 A 
BRANCH  15  16
ATOM     16  C   UNL     1       5.612   4.856  -1.462  0.00  0.00    +0.000 C 
ATOM     17  F   UNL     1       6.882   5.009  -0.995  0.00  0.00    +0.000 F 
ATOM     18  F   UNL     1       4.947   5.998  -1.121  0.00  0.00    +0.000 F 
ATOM     19  F   UNL     1       5.078   3.889  -0.669  0.00  0.00    +0.000 F 
ENDBRANCH  15  16
ENDBRANCH   7  10
ENDBRANCH   2   4
BRANCH   3  20
ATOM     20  C   UNL     1       2.257  -1.803   1.665  0.00  0.00    +0.000 C 
BRANCH  20  21
ATOM     21  C   UNL     1       0.768  -1.659   1.706  0.00  0.00    +0.000 A 
ATOM     22  C   UNL     1       0.174  -0.400   1.826  0.00  0.00    +0.000 A 
ATOM     23  C   UNL     1      -1.197  -0.268   1.687  0.00  0.00    +0.000 A 
ATOM     24  C   UNL     1      -1.987  -1.402   1.514  0.00  0.00    +0.000 A 
ATOM     25  C   UNL     1      -1.412  -2.673   1.498  0.00  0.00    +0.000 A 
ATOM     26  C   UNL     1      -0.033  -2.804   1.582  0.00  0.00    +0.000 A 
ENDBRANCH  20  21
ENDBRANCH   3  20
BRANCH   3  27
ATOM     27  C   UNL     1       4.526  -1.014   0.916  0.00  0.00    +0.000 C 
BRANCH  27  28
ATOM     28  C   UNL     1       5.115  -2.063   1.891  0.00  0.00    +0.000 C 
ATOM     29  C   UNL     1       6.564  -2.415   1.586  0.00  0.00    +0.000 C 
ATOM     30  C   UNL     1       6.652  -3.870   1.993  0.00  0.00    +0.000 C 
ATOM     31  C   UNL     1       5.286  -4.405   1.657  0.00  0.00    +0.000 C 
ATOM     32  O   UNL     1       4.403  -3.308   1.807  0.00  0.00    +0.000 OA
ENDBRANCH  27  28
ENDBRANCH   3  27
TORSDOF 7
