REMARK  Name = CHEMBL589128
REMARK  9 active torsions:
REMARK  status: ('A' for Active; 'I' for Inactive)
REMARK    1  A    between atoms: C_1  and  O_2
REMARK    2  A    between atoms: O_2  and  C_3
REMARK    3  A    between atoms: C_3  and  C_4
REMARK    4  A    between atoms: C_10  and  O_11
REMARK    5  A    between atoms: O_11  and  C_12
REMARK    6  A    between atoms: C_18  and  C_19
REMARK    7  A    between atoms: N_21  and  C_22
REMARK    8  A    between atoms: C_25  and  O_26
REMARK    9  A    between atoms: O_26  and  C_27
REMARK                            x       y       z     vdW  Elec       q    Type
REMARK                         _______ _______ _______ _____ _____    ______ ____
ROOT
ATOM      1  C   UNL     1       4.628   0.624   1.093  0.00  0.00    +0.000 A 
ATOM      2  N   UNL     1       5.505   1.612   1.190  0.00  0.00    +0.000 NA
ATOM      3  N   UNL     1       6.774   1.070   1.371  0.00  0.00    +0.000 NA
ATOM      4  C   UNL     1       6.680  -0.251   1.347  0.00  0.00    +0.000 A 
ATOM      5  N   UNL     1       7.614  -1.229   1.422  0.00  0.00    +0.000 N 
ATOM      6  C   UNL     1       8.796  -1.484   2.171  0.00  0.00    +0.000 C 
ATOM      7  C   UNL     1       9.386  -2.208   0.910  0.00  0.00    +0.000 C 
ATOM      8  C   UNL     1       7.881  -2.296   0.514  0.00  0.00    +0.000 C 
ATOM      9  N   UNL     1       5.333  -0.561   1.171  0.00  0.00    +0.000 N 
ENDROOT
BRANCH   9  10
ATOM     10  C   UNL     1       4.797  -1.852   1.205  0.00  0.00    +0.000 A 
ATOM     11  C   UNL     1       4.025  -2.303   0.150  0.00  0.00    +0.000 A 
ATOM     12  C   UNL     1       3.579  -3.610   0.180  0.00  0.00    +0.000 A 
ATOM     13  C   UNL     1       3.953  -4.426   1.242  0.00  0.00    +0.000 A 
ATOM     14  N   UNL     1       4.721  -3.995   2.268  0.00  0.00    +0.000 NA
ATOM     15  C   UNL     1       5.128  -2.712   2.237  0.00  0.00    +0.000 A 
BRANCH  13  16
ATOM     16  O   UNL     1       3.607  -5.742   1.355  0.00  0.00    +0.000 OA
ATOM     17  C   UNL     1       2.813  -6.258   0.297  0.00  0.00    +0.000 C 
ENDBRANCH  13  16
ENDBRANCH   9  10
BRANCH   1  18
ATOM     18  C   UNL     1       3.121   0.739   1.166  0.00  0.00    +0.000 C 
BRANCH  18  20
ATOM     19  C   UNL     1       1.113   0.011   0.097  0.00  0.00    +0.000 C 
ATOM     20  O   UNL     1       2.534   0.100   0.028  0.00  0.00    +0.000 OA
ENDBRANCH  18  20
ENDBRANCH   1  18
BRANCH   7  21
ATOM     21  O   UNL     1      10.330  -1.415   0.127  0.00  0.00    +0.000 OA
BRANCH  21  22
ATOM     22  C   UNL     1      11.013  -1.985  -0.934  0.00  0.00    +0.000 A 
ATOM     23  C   UNL     1      12.416  -1.897  -0.922  0.00  0.00    +0.000 A 
ATOM     24  C   UNL     1      13.164  -2.248  -2.060  0.00  0.00    +0.000 A 
ATOM     25  C   UNL     1      12.510  -2.647  -3.216  0.00  0.00    +0.000 A 
ATOM     26  F   UNL     1      13.202  -2.930  -4.327  0.00  0.00    +0.000 F 
ATOM     27  C   UNL     1      11.135  -2.754  -3.239  0.00  0.00    +0.000 A 
ATOM     28  C   UNL     1      10.380  -2.445  -2.100  0.00  0.00    +0.000 A 
ATOM     29  C   UNL     1       8.913  -2.622  -2.231  0.00  0.00    +0.000 C 
ENDBRANCH  21  22
ENDBRANCH   7  21
TORSDOF 6
