REMARK  Name = CHEMBL1254297
REMARK  8 active torsions:
REMARK  status: ('A' for Active; 'I' for Inactive)
REMARK    1  A    between atoms: C_1  and  O_2
REMARK    2  A    between atoms: O_2  and  C_3
REMARK    3  A    between atoms: C_6  and  N_7
REMARK    4  A    between atoms: C_8  and  C_9
REMARK    5  A    between atoms: C_12  and  C_13
REMARK    6  A    between atoms: C_16  and  C_17
REMARK    7  A    between atoms: C_22  and  O_23
REMARK    8  A    between atoms: O_23  and  C_24
REMARK                            x       y       z     vdW  Elec       q    Type
REMARK                         _______ _______ _______ _____ _____    ______ ____
ROOT
ATOM      1  N   UNL     1       5.137   3.230   3.632  0.00  0.00    +0.000 N 
ATOM      2  C   UNL     1       5.402   4.593   3.616  0.00  0.00    +0.000 A 
ATOM      3  C   UNL     1       4.939   5.607   2.639  0.00  0.00    +0.000 C 
ATOM      4  N   UNL     1       6.051   4.916   4.722  0.00  0.00    +0.000 NA
ATOM      5  N   UNL     1       6.214   3.795   5.477  0.00  0.00    +0.000 NA
ATOM      6  C   UNL     1       5.688   2.770   4.825  0.00  0.00    +0.000 A 
ENDROOT
BRANCH   1  10
ATOM      7  C   UNL     1       3.038   0.838   0.918  0.00  0.00    +0.000 A 
ATOM      8  C   UNL     1       2.598   0.904   2.230  0.00  0.00    +0.000 A 
ATOM      9  C   UNL     1       3.293   1.707   3.141  0.00  0.00    +0.000 A 
ATOM     10  C   UNL     1       4.393   2.449   2.708  0.00  0.00    +0.000 A 
ATOM     11  C   UNL     1       4.799   2.291   1.393  0.00  0.00    +0.000 A 
ATOM     12  N   UNL     1       4.146   1.495   0.499  0.00  0.00    +0.000 NA
BRANCH   7  14
ATOM     13  C   UNL     1       1.029  -0.007  -0.016  0.00  0.00    +0.000 C 
ATOM     14  O   UNL     1       2.455   0.034  -0.030  0.00  0.00    +0.000 OA
ENDBRANCH   7  14
ENDBRANCH   1  10
BRANCH   6  15
ATOM     15  C   UNL     1       5.789   1.380   5.251  0.00  0.00    +0.000 A 
ATOM     16  C   UNL     1       5.426   0.992   6.544  0.00  0.00    +0.000 A 
ATOM     17  C   UNL     1       5.668  -0.315   6.980  0.00  0.00    +0.000 A 
ATOM     18  C   UNL     1       6.165  -1.291   6.098  0.00  0.00    +0.000 A 
ATOM     19  C   UNL     1       6.364  -0.926   4.762  0.00  0.00    +0.000 A 
ATOM     20  C   UNL     1       6.302   0.413   4.379  0.00  0.00    +0.000 A 
BRANCH  18  21
ATOM     21  C   UNL     1       6.540  -2.625   6.598  0.00  0.00    +0.000 A 
ATOM     22  C   UNL     1       5.486  -3.434   7.087  0.00  0.00    +0.000 A 
ATOM     23  C   UNL     1       5.719  -4.666   7.700  0.00  0.00    +0.000 A 
ATOM     24  C   UNL     1       7.013  -5.157   7.778  0.00  0.00    +0.000 A 
ATOM     25  C   UNL     1       8.068  -4.398   7.275  0.00  0.00    +0.000 A 
ATOM     26  C   UNL     1       7.860  -3.127   6.701  0.00  0.00    +0.000 A 
BRANCH  26  27
ATOM     27  O   UNL     1       9.061  -2.550   6.363  0.00  0.00    +0.000 OA
ATOM     28  C   UNL     1       9.096  -1.290   5.720  0.00  0.00    +0.000 C 
ENDBRANCH  26  27
ENDBRANCH  18  21
ENDBRANCH   6  15
TORSDOF 5
