REMARK  Name = CHEMBL514123
REMARK  11 active torsions:
REMARK  status: ('A' for Active; 'I' for Inactive)
REMARK    1  A    between atoms: C_1  and  O_2
REMARK    2  A    between atoms: O_2  and  C_3
REMARK    3  A    between atoms: C_6  and  N_7
REMARK    4  A    between atoms: N_7  and  C_8
REMARK    5  A    between atoms: N_7  and  S_22
REMARK    6  A    between atoms: C_8  and  C_9
REMARK    7  A    between atoms: C_12  and  C_13
REMARK    8  A    between atoms: C_18  and  C_19
REMARK    9  A    between atoms: S_22  and  C_25
REMARK   10  A    between atoms: C_27  and  C_28
REMARK   11  A    between atoms: C_30  and  C_31
REMARK                            x       y       z     vdW  Elec       q    Type
REMARK                         _______ _______ _______ _____ _____    ______ ____
ROOT
ATOM      1  N   UNL     1       5.131   1.297   4.639  0.00  0.00    +0.000 N 
ENDROOT
BRANCH   1   5
ATOM      2  C   UNL     1       2.883   0.230   1.152  0.00  0.00    +0.000 A 
ATOM      3  C   UNL     1       2.534  -0.347   2.364  0.00  0.00    +0.000 A 
ATOM      4  C   UNL     1       3.267  -0.036   3.531  0.00  0.00    +0.000 A 
ATOM      5  C   UNL     1       4.320   0.869   3.486  0.00  0.00    +0.000 A 
ATOM      6  C   UNL     1       4.405   1.483   2.246  0.00  0.00    +0.000 A 
ATOM      7  N   UNL     1       3.818   1.158   1.072  0.00  0.00    +0.000 NA
BRANCH   2   9
ATOM      8  C   UNL     1       0.906   0.049  -0.018  0.00  0.00    +0.000 C 
ATOM      9  O   UNL     1       2.318  -0.061  -0.048  0.00  0.00    +0.000 OA
ENDBRANCH   2   9
ENDBRANCH   1   5
BRANCH   1  10
ATOM     10  S   UNL     1       4.788   0.572   6.161  0.00  0.00    +0.000 S 
ATOM     11  O   UNL     1       3.466   1.054   6.547  0.00  0.00    +0.000 OA
ATOM     12  O   UNL     1       5.053  -0.842   6.099  0.00  0.00    +0.000 OA
BRANCH  10  13
ATOM     13  C   UNL     1       5.833   1.241   7.434  0.00  0.00    +0.000 A 
ATOM     14  S   UNL     1       6.795   0.192   8.397  0.00  0.00    +0.000 S 
ATOM     15  C   UNL     1       7.358   1.544   9.304  0.00  0.00    +0.000 A 
ATOM     16  C   UNL     1       8.303   1.401  10.452  0.00  0.00    +0.000 C 
ATOM     17  N   UNL     1       6.886   2.708   8.914  0.00  0.00    +0.000 NA
ATOM     18  C   UNL     1       5.982   2.539   7.882  0.00  0.00    +0.000 A 
ATOM     19  C   UNL     1       5.252   3.728   7.376  0.00  0.00    +0.000 C 
ENDBRANCH  10  13
ENDBRANCH   1  10
BRANCH   1  20
ATOM     20  C   UNL     1       6.485   1.978   4.508  0.00  0.00    +0.000 C 
BRANCH  20  21
ATOM     21  C   UNL     1       6.926   2.552   3.165  0.00  0.00    +0.000 A 
ATOM     22  C   UNL     1       6.671   3.902   2.870  0.00  0.00    +0.000 A 
ATOM     23  C   UNL     1       6.616   4.295   1.531  0.00  0.00    +0.000 A 
ATOM     24  C   UNL     1       6.817   3.355   0.510  0.00  0.00    +0.000 A 
ATOM     25  C   UNL     1       7.127   2.055   0.905  0.00  0.00    +0.000 A 
ATOM     26  N   UNL     1       7.240   1.649   2.200  0.00  0.00    +0.000 NA
BRANCH  24  27
ATOM     27  C   UNL     1       6.788   3.731  -0.907  0.00  0.00    +0.000 A 
ATOM     28  C   UNL     1       5.837   3.192  -1.795  0.00  0.00    +0.000 A 
ATOM     29  C   UNL     1       5.886   3.492  -3.159  0.00  0.00    +0.000 A 
ATOM     30  C   UNL     1       6.876   4.340  -3.650  0.00  0.00    +0.000 A 
ATOM     31  C   UNL     1       7.815   4.893  -2.781  0.00  0.00    +0.000 A 
ATOM     32  C   UNL     1       7.782   4.597  -1.413  0.00  0.00    +0.000 A 
ATOM     33  C   UNL     1       8.839   5.171  -0.505  0.00  0.00    +0.000 C 
ENDBRANCH  24  27
ENDBRANCH  20  21
ENDBRANCH   1  20
TORSDOF 7
