REMARK  Name = CHEMBL1092098
REMARK  6 active torsions:
REMARK  status: ('A' for Active; 'I' for Inactive)
REMARK    1  A    between atoms: C_1  and  O_2
REMARK    2  A    between atoms: O_2  and  C_3
REMARK    3  A    between atoms: C_6  and  N_7
REMARK    4  A    between atoms: N_7  and  C_8
REMARK    5  A    between atoms: C_9  and  C_11
REMARK    6  A    between atoms: C_14  and  C_15
REMARK                            x       y       z     vdW  Elec       q    Type
REMARK                         _______ _______ _______ _____ _____    ______ ____
ROOT
ATOM      1  N   UNL     1       5.293   1.690   4.440  0.00  0.00    +0.000 N 
ATOM      2  C   UNL     1       6.519   2.454   4.170  0.00  0.00    +0.000 C 
ATOM      3  C   UNL     1       4.939   1.352   5.774  0.00  0.00    +0.000 C 
ATOM      4  O   UNL     1       3.996   0.625   6.118  0.00  0.00    +0.000 OA
ENDROOT
BRANCH   1   8
ATOM      5  C   UNL     1       3.040   0.371   1.073  0.00  0.00    +0.000 A 
ATOM      6  C   UNL     1       2.623   0.014   2.338  0.00  0.00    +0.000 A 
ATOM      7  C   UNL     1       3.353   0.456   3.444  0.00  0.00    +0.000 A 
ATOM      8  C   UNL     1       4.506   1.233   3.303  0.00  0.00    +0.000 A 
ATOM      9  C   UNL     1       4.829   1.518   1.971  0.00  0.00    +0.000 A 
ATOM     10  N   UNL     1       4.139   1.112   0.869  0.00  0.00    +0.000 NA
BRANCH   5  12
ATOM     11  C   UNL     1       1.014  -0.069  -0.020  0.00  0.00    +0.000 C 
ATOM     12  O   UNL     1       2.435  -0.065  -0.072  0.00  0.00    +0.000 OA
ENDBRANCH   5  12
ENDBRANCH   1   8
BRANCH   3  13
ATOM     13  C   UNL     1       5.698   1.882   6.934  0.00  0.00    +0.000 A 
ATOM     14  C   UNL     1       5.906   1.054   8.046  0.00  0.00    +0.000 A 
ATOM     15  C   UNL     1       6.455   1.586   9.212  0.00  0.00    +0.000 A 
ATOM     16  C   UNL     1       6.901   2.918   9.256  0.00  0.00    +0.000 A 
ATOM     17  C   UNL     1       6.675   3.736   8.148  0.00  0.00    +0.000 A 
ATOM     18  C   UNL     1       6.028   3.234   7.025  0.00  0.00    +0.000 A 
BRANCH  16  19
ATOM     19  C   UNL     1       7.540   3.443  10.460  0.00  0.00    +0.000 A 
ATOM     20  C   UNL     1       8.640   2.781  11.025  0.00  0.00    +0.000 A 
ATOM     21  C   UNL     1       9.146   3.175  12.260  0.00  0.00    +0.000 A 
ATOM     22  C   UNL     1       8.615   4.291  12.903  0.00  0.00    +0.000 A 
ATOM     23  C   UNL     1       7.568   5.002  12.320  0.00  0.00    +0.000 A 
ATOM     24  C   UNL     1       7.031   4.579  11.106  0.00  0.00    +0.000 A 
ENDBRANCH  16  19
ENDBRANCH   3  13
TORSDOF 4
