REMARK  Name = CHEMBL24786
REMARK  12 active torsions:
REMARK  status: ('A' for Active; 'I' for Inactive)
REMARK    1  A    between atoms: C_1  and  C_2
REMARK    2  A    between atoms: C_2  and  C_4
REMARK    3  A    between atoms: C_4  and  C_5
REMARK    4  A    between atoms: C_5  and  C_6
REMARK    5  A    between atoms: C_6  and  C_7
REMARK    6  A    between atoms: N_9  and  C_10
REMARK    7  A    between atoms: C_12  and  C_13
REMARK    8  A    between atoms: N_25  and  C_26
REMARK    9  A    between atoms: C_26  and  C_27
REMARK   10  A    between atoms: N_29  and  C_30
REMARK   11  A    between atoms: C_30  and  C_31
REMARK   12  A    between atoms: C_31  and  C_32
REMARK                            x       y       z     vdW  Elec       q    Type
REMARK                         _______ _______ _______ _____ _____    ______ ____
ROOT
ATOM      1  C   UNL     1       9.399   1.223  -2.547  0.00  0.00    +0.000 C 
ATOM      2  N   UNL     1       9.712   0.001  -1.821  0.00  0.00    +0.000 NA
ATOM      3  C   UNL     1      10.905  -0.339  -1.507  0.00  0.00    +0.000 C 
ATOM      4  C   UNL     1      12.111   0.390  -1.949  0.00  0.00    +0.000 A 
ATOM      5  C   UNL     1      13.217  -0.384  -2.326  0.00  0.00    +0.000 A 
ATOM      6  C   UNL     1      14.403   0.211  -2.741  0.00  0.00    +0.000 A 
ATOM      7  C   UNL     1      14.478   1.582  -2.850  0.00  0.00    +0.000 A 
ATOM      8  C   UNL     1      13.346   2.343  -2.594  0.00  0.00    +0.000 A 
ATOM      9  C   UNL     1      12.187   1.781  -2.038  0.00  0.00    +0.000 A 
ATOM     10  N   UNL     1      11.213   2.664  -1.501  0.00  0.00    +0.000 N 
ATOM     11  C   UNL     1       9.847   2.492  -1.746  0.00  0.00    +0.000 C 
ATOM     12  O   UNL     1       9.046   3.384  -1.436  0.00  0.00    +0.000 OA
ENDROOT
BRANCH   3  13
ATOM     13  C   UNL     1      11.077  -1.562  -0.669  0.00  0.00    +0.000 A 
ATOM     14  C   UNL     1      10.574  -2.807  -1.058  0.00  0.00    +0.000 A 
ATOM     15  C   UNL     1      10.603  -3.877  -0.161  0.00  0.00    +0.000 A 
ATOM     16  C   UNL     1      11.314  -3.763   1.025  0.00  0.00    +0.000 A 
ATOM     17  C   UNL     1      12.001  -2.586   1.302  0.00  0.00    +0.000 A 
ATOM     18  C   UNL     1      11.788  -1.452   0.522  0.00  0.00    +0.000 A 
ENDBRANCH   3  13
BRANCH   1  21
ATOM     19  C   UNL     1       7.070   0.899  -1.780  0.00  0.00    +0.000 C 
ATOM     20  O   UNL     1       7.434   0.460  -0.690  0.00  0.00    +0.000 OA
ATOM     21  N   UNL     1       7.951   1.257  -2.788  0.00  0.00    +0.000 N 
ATOM     22  H   UNL     1       7.630   1.757  -3.605  0.00  0.00    +0.000 HD
BRANCH  19  23
ATOM     23  C   UNL     1       5.579   1.031  -2.071  0.00  0.00    +0.000 C 
BRANCH  23  24
ATOM     24  C   UNL     1       4.776   0.486  -0.880  0.00  0.00    +0.000 C 
BRANCH  24  25
ATOM     25  C   UNL     1       3.271   0.583  -1.093  0.00  0.00    +0.000 C 
BRANCH  25  27
ATOM     26  C   UNL     1       1.022   0.046   0.079  0.00  0.00    +0.000 C 
ATOM     27  C   UNL     1       2.528   0.030   0.115  0.00  0.00    +0.000 C 
ATOM     28  O   UNL     1       3.115  -0.421   1.099  0.00  0.00    +0.000 OA
ENDBRANCH  25  27
ENDBRANCH  24  25
ENDBRANCH  23  24
ENDBRANCH  19  23
ENDBRANCH   1  21
BRANCH  10  29
ATOM     29  C   UNL     1      11.656   3.855  -0.688  0.00  0.00    +0.000 C 
BRANCH  29  30
ATOM     30  C   UNL     1      13.210   3.954  -0.236  0.00  0.00    +0.000 C 
ATOM     31  O   UNL     1      13.969   2.989  -0.356  0.00  0.00    +0.000 OA
ATOM     32  N   UNL     1      13.819   5.085   0.338  0.00  0.00    +0.000 N 
ATOM     33  H   UNL     1      13.160   5.762   0.712  0.00  0.00    +0.000 HD
BRANCH  32  34
ATOM     34  C   UNL     1      15.470   5.051   0.584  0.00  0.00    +0.000 C 
BRANCH  34  35
ATOM     35  C   UNL     1      16.552   6.361   1.445  0.00  0.00    +0.000 C 
BRANCH  35  36
ATOM     36  C   UNL     1      18.491   6.820   1.753  0.00  0.00    +0.000 A 
ATOM     37  C   UNL     1      17.579   7.483   2.366  0.00  0.00    +0.000 A 
ATOM     38  C   UNL     1      18.624   7.087   2.895  0.00  0.00    +0.000 A 
ATOM     39  C   UNL     1      19.242   8.345   3.399  0.00  0.00    +0.000 A 
ATOM     40  C   UNL     1      20.504   8.336   3.310  0.00  0.00    +0.000 A 
ATOM     41  C   UNL     1      21.447   9.411   4.140  0.00  0.00    +0.000 A 
ATOM     42  C   UNL     1      22.813   9.579   4.134  0.00  0.00    +0.000 A 
ATOM     43  C   UNL     1      23.302   8.491   3.507  0.00  0.00    +0.000 A 
ATOM     44  C   UNL     1      22.207   7.416   2.779  0.00  0.00    +0.000 A 
ATOM     45  C   UNL     1      20.443   7.345   2.386  0.00  0.00    +0.000 A 
ENDBRANCH  35  36
ENDBRANCH  34  35
ENDBRANCH  32  34
ENDBRANCH  29  30
ENDBRANCH  10  29
TORSDOF 11
