REMARK  Name = CHEMBL257916
REMARK  12 active torsions:
REMARK  status: ('A' for Active; 'I' for Inactive)
REMARK    1  A    between atoms: CD1_1  and  CG_2
REMARK    2  A    between atoms: CG_2  and  CD2_3
REMARK    3  A    between atoms: CG_2  and  CB_4
REMARK    4  A    between atoms: CB_4  and  CA_5
REMARK    5  A    between atoms: C_9  and  C_10
REMARK    6  A    between atoms: N_21  and  C_22
REMARK    7  A    between atoms: C_22  and  C_23
REMARK    8  A    between atoms: C_22  and  C_29
REMARK    9  A    between atoms: N_25  and  C_26
REMARK   10  A    between atoms: C_26  and  C_27
REMARK   11  A    between atoms: C_26  and  C_28
REMARK   12  A    between atoms: C_32  and  C_33
REMARK                            x       y       z     vdW  Elec       q    Type
REMARK                         _______ _______ _______ _____ _____    ______ ____
ROOT
ATOM      1  CA  LEU A   2       4.602   0.589   1.217  0.00  0.00    +0.000 C 
ATOM      2  C   LEU A   2       5.014  -0.711   1.894  0.00  0.00    +0.000 C 
ATOM      3  O   LEU A   2       4.357  -1.756   1.944  0.00  0.00    +0.000 OA
ATOM      4  N   UNK A   1       6.272  -0.673   2.369  0.00  0.00    +0.000 N 
ATOM      5  C   UNK A   1       7.145   0.472   2.164  0.00  0.00    +0.000 C 
ATOM      6  C   UNK A   1       6.374   1.778   2.436  0.00  0.00    +0.000 C 
ATOM      7  O   UNK A   1       6.991   2.733   2.897  0.00  0.00    +0.000 OA
ATOM      8  N   LEU A   2       5.018   1.752   2.082  0.00  0.00    +0.000 N 
ATOM      9  H   UNK A   1       6.596  -1.554   2.748  0.00  0.00    +0.000 HD
ENDROOT
BRANCH   5  10
ATOM     10  C   UNK A   1       8.350   0.457   3.130  0.00  0.00    +0.000 C 
ATOM     11  C   UNK A   1       9.225  -0.786   2.915  0.00  0.00    +0.000 C 
ATOM     12  C   UNK A   1       8.592  -1.752   3.870  0.00  0.00    +0.000 A 
ATOM     13  C   UNK A   1       8.601  -3.132   3.800  0.00  0.00    +0.000 A 
ATOM     14  C   UNK A   1       7.818  -3.842   4.712  0.00  0.00    +0.000 A 
ATOM     15  C   UNK A   1       7.035  -3.172   5.667  0.00  0.00    +0.000 A 
ATOM     16  C   UNK A   1       7.019  -1.778   5.724  0.00  0.00    +0.000 A 
ATOM     17  C   UNK A   1       7.810  -1.082   4.826  0.00  0.00    +0.000 A 
ATOM     18  C   UNK A   1       7.870   0.399   4.610  0.00  0.00    +0.000 C 
ENDBRANCH   5  10
BRANCH   1  19
ATOM     19  CB  LEU A   2       3.129   0.497   0.960  0.00  0.00    +0.000 C 
BRANCH  19  21
ATOM     20  CD1 LEU A   2       1.021   0.008  -0.222  0.00  0.00    +0.000 C 
ATOM     21  CG  LEU A   2       2.554  -0.018  -0.329  0.00  0.00    +0.000 C 
ATOM     22  CD2 LEU A   2       2.993   0.950  -1.411  0.00  0.00    +0.000 C 
ENDBRANCH  19  21
ENDBRANCH   1  19
BRANCH   8  23
ATOM     23  C   UNK A   0       4.052   2.869   2.470  0.00  0.00    +0.000 C 
BRANCH  23  24
ATOM     24  C   UNK A   0       4.746   4.101   3.048  0.00  0.00    +0.000 A 
ATOM     25  C   UNK A   0       4.642   4.678   4.297  0.00  0.00    +0.000 A 
ATOM     26  O   UNK A   0       5.611   5.614   4.440  0.00  0.00    +0.000 OA
ATOM     27  C   UNK A   0       6.254   5.617   3.228  0.00  0.00    +0.000 A 
ATOM     28  N   UNK A   0       5.678   4.833   2.321  0.00  0.00    +0.000 NA
BRANCH  27  29
ATOM     29  C   UNK A   0       7.439   6.518   3.127  0.00  0.00    +0.000 C 
ATOM     30  F   UNK A   0       7.067   7.828   3.162  0.00  0.00    +0.000 F 
ATOM     31  F   UNK A   0       8.337   6.353   4.140  0.00  0.00    +0.000 F 
ATOM     32  F   UNK A   0       8.134   6.348   1.969  0.00  0.00    +0.000 F 
ENDBRANCH  27  29
ENDBRANCH  23  24
BRANCH  23  33
ATOM     33  C   UNK A   0       2.900   2.373   3.481  0.00  0.00    +0.000 C 
ATOM     34  O   UNK A   0       2.844   2.708   4.664  0.00  0.00    +0.000 OA
ATOM     35  N   UNK A   0       1.913   1.527   3.014  0.00  0.00    +0.000 N 
ATOM     36  H   UNK A   0       1.590   1.631   2.071  0.00  0.00    +0.000 HD
BRANCH  35  37
ATOM     37  C   UNK A   0       0.866   0.938   3.824  0.00  0.00    +0.000 C 
ATOM     38  C   UNK A   0      -0.116   2.059   4.092  0.00  0.00    +0.000 C 
ATOM     39  C   UNK A   0       0.154  -0.179   3.052  0.00  0.00    +0.000 C 
ENDBRANCH  35  37
ENDBRANCH  23  33
ENDBRANCH   8  23
TORSDOF 8
