REMARK  Name = CHEMBL565189
REMARK  7 active torsions:
REMARK  status: ('A' for Active; 'I' for Inactive)
REMARK    1  A    between atoms: C_1  and  O_2
REMARK    2  A    between atoms: O_2  and  C_3
REMARK    3  A    between atoms: C_6  and  N_7
REMARK    4  A    between atoms: C_8  and  C_9
REMARK    5  A    between atoms: C_12  and  C_13
REMARK    6  A    between atoms: C_16  and  O_17
REMARK    7  A    between atoms: O_17  and  C_18
REMARK                            x       y       z     vdW  Elec       q    Type
REMARK                         _______ _______ _______ _____ _____    ______ ____
ROOT
ATOM      1  C   UNL     1       5.958  -3.350   4.143  0.00  0.00    +0.000 A 
ATOM      2  C   UNL     1       6.512  -3.238   2.869  0.00  0.00    +0.000 A 
ATOM      3  N   UNL     1       6.607  -4.279   2.005  0.00  0.00    +0.000 NA
ATOM      4  C   UNL     1       6.186  -5.468   2.488  0.00  0.00    +0.000 A 
ATOM      5  C   UNL     1       5.648  -5.593   3.764  0.00  0.00    +0.000 A 
ATOM      6  N   UNL     1       5.508  -4.540   4.612  0.00  0.00    +0.000 NA
ENDROOT
BRANCH   1  12
ATOM      7  N   UNL     1       5.223  -0.996   4.781  0.00  0.00    +0.000 N 
ATOM      8  C   UNL     1       5.539  -0.183   5.869  0.00  0.00    +0.000 A 
ATOM      9  C   UNL     1       5.059   1.189   6.182  0.00  0.00    +0.000 C 
ATOM     10  N   UNL     1       6.277  -0.872   6.717  0.00  0.00    +0.000 NA
ATOM     11  N   UNL     1       6.462  -2.126   6.219  0.00  0.00    +0.000 NA
ATOM     12  C   UNL     1       5.854  -2.212   5.051  0.00  0.00    +0.000 A 
BRANCH   7  16
ATOM     13  C   UNL     1       3.053  -0.209   1.292  0.00  0.00    +0.000 A 
ATOM     14  C   UNL     1       2.679  -1.290   2.077  0.00  0.00    +0.000 A 
ATOM     15  C   UNL     1       3.390  -1.550   3.255  0.00  0.00    +0.000 A 
ATOM     16  C   UNL     1       4.440  -0.709   3.632  0.00  0.00    +0.000 A 
ATOM     17  C   UNL     1       4.775   0.323   2.769  0.00  0.00    +0.000 A 
ATOM     18  N   UNL     1       4.109   0.576   1.609  0.00  0.00    +0.000 NA
BRANCH  13  20
ATOM     19  C   UNL     1       1.037   0.066   0.088  0.00  0.00    +0.000 C 
ATOM     20  O   UNL     1       2.464   0.081   0.088  0.00  0.00    +0.000 OA
ENDBRANCH  13  20
ENDBRANCH   7  16
ENDBRANCH   1  12
BRANCH   4  21
ATOM     21  O   UNL     1       6.226  -6.608   1.702  0.00  0.00    +0.000 OA
BRANCH  21  22
ATOM     22  C   UNL     1       6.792  -6.517   0.451  0.00  0.00    +0.000 A 
ATOM     23  C   UNL     1       8.126  -6.150   0.258  0.00  0.00    +0.000 A 
ATOM     24  F   UNL     1       8.889  -5.767   1.296  0.00  0.00    +0.000 F 
ATOM     25  C   UNL     1       8.721  -6.216  -0.999  0.00  0.00    +0.000 A 
ATOM     26  C   UNL     1       8.013  -6.776  -2.063  0.00  0.00    +0.000 A 
ATOM     27  C   UNL     1       6.671  -7.097  -1.891  0.00  0.00    +0.000 A 
ATOM     28  F   UNL     1       5.987  -7.554  -2.954  0.00  0.00    +0.000 F 
ATOM     29  C   UNL     1       6.043  -6.944  -0.654  0.00  0.00    +0.000 A 
ATOM     30 CL   UNL     1       4.352  -7.266  -0.512  0.00  0.00    +0.000 Cl
ENDBRANCH  21  22
ENDBRANCH   4  21
TORSDOF 5
