REMARK  Name = CHEMBL2035016
REMARK  14 active torsions:
REMARK  status: ('A' for Active; 'I' for Inactive)
REMARK    1  A    between atoms: C_1  and  O_2
REMARK    2  A    between atoms: O_2  and  C_3
REMARK    3  A    between atoms: C_3  and  C_5
REMARK    4  A    between atoms: C_10  and  C_11
REMARK    5  A    between atoms: C_11  and  C_12
REMARK    6  A    between atoms: C_11  and  N_18
REMARK    7  A    between atoms: N_14  and  C_15
REMARK    8  A    between atoms: C_15  and  C_16
REMARK    9  A    between atoms: C_15  and  C_17
REMARK   10  A    between atoms: C_21  and  C_22
REMARK   11  A    between atoms: CA_34  and  CB_35
REMARK   12  A    between atoms: CB_35  and  CG_36
REMARK   13  A    between atoms: CG_36  and  CD1_37
REMARK   14  A    between atoms: CG_36  and  CD2_38
REMARK                            x       y       z     vdW  Elec       q    Type
REMARK                         _______ _______ _______ _____ _____    ______ ____
ROOT
ATOM      1  N   LEU A   1       3.102  -1.358  -1.353  0.00  0.00    +0.000 N 
ATOM      2  C   UNK A   2       2.510  -0.408  -2.236  0.00  0.00    +0.000 C 
ATOM      3  O   UNK A   2       3.194   0.313  -2.961  0.00  0.00    +0.000 OA
ATOM      4  C   UNK A   2       0.999  -0.142  -2.014  0.00  0.00    +0.000 C 
ATOM      5  N   UNK A   2       0.334  -1.396  -1.767  0.00  0.00    +0.000 N 
ATOM      6  C   LEU A   1       0.825  -2.352  -0.916  0.00  0.00    +0.000 C 
ATOM      7  O   LEU A   1       0.072  -3.250  -0.563  0.00  0.00    +0.000 OA
ATOM      8  CA  LEU A   1       2.208  -2.114  -0.339  0.00  0.00    +0.000 C 
ATOM      9  H   UNK A   2      -0.654  -1.517  -1.938  0.00  0.00    +0.000 HD
ENDROOT
BRANCH   4  10
ATOM     10  C   UNK A   2       0.319   0.845  -2.943  0.00  0.00    +0.000 C 
ATOM     11  C   UNK A   2       0.908   2.235  -2.591  0.00  0.00    +0.000 C 
ATOM     12  C   UNK A   2       0.104   3.122  -3.435  0.00  0.00    +0.000 A 
ATOM     13  C   UNK A   2       0.489   4.413  -3.725  0.00  0.00    +0.000 A 
ATOM     14  C   UNK A   2      -0.238   5.082  -4.669  0.00  0.00    +0.000 A 
ATOM     15  C   UNK A   2      -1.162   4.343  -5.418  0.00  0.00    +0.000 A 
ATOM     16  C   UNK A   2      -1.565   3.019  -5.041  0.00  0.00    +0.000 A 
ATOM     17  C   UNK A   2      -1.036   2.462  -3.889  0.00  0.00    +0.000 A 
ATOM     18  C   UNK A   2      -1.182   1.229  -2.965  0.00  0.00    +0.000 C 
ENDBRANCH   4  10
BRANCH   1  19
ATOM     19  C   UNK A   0       4.626  -1.322  -1.333  0.00  0.00    +0.000 C 
BRANCH  19  25
ATOM     20  C   UNK A   0       4.534   1.079  -0.192  0.00  0.00    +0.000 A 
ATOM     21  C   UNK A   0       5.324   2.216   0.101  0.00  0.00    +0.000 A 
ATOM     22  C   UNK A   0       6.707   2.289  -0.146  0.00  0.00    +0.000 A 
ATOM     23  C   UNK A   0       7.373   1.215  -0.685  0.00  0.00    +0.000 A 
ATOM     24  C   UNK A   0       6.614   0.139  -1.095  0.00  0.00    +0.000 A 
ATOM     25  C   UNK A   0       5.206   0.009  -0.836  0.00  0.00    +0.000 A 
BRANCH  20  26
ATOM     26  C   UNK A   0       3.032   1.331   0.039  0.00  0.00    +0.000 C 
ATOM     27  O   UNK A   0       2.557   2.386  -0.357  0.00  0.00    +0.000 OA
BRANCH  26  29
ATOM     28  C   UNK A   0       0.801   0.287   0.967  0.00  0.00    +0.000 C 
ATOM     29  O   UNK A   0       2.299   0.394   0.707  0.00  0.00    +0.000 OA
ENDBRANCH  26  29
ENDBRANCH  20  26
ENDBRANCH  19  25
BRANCH  19  30
ATOM     30  C   UNK A   0       5.482  -2.447  -0.656  0.00  0.00    +0.000 C 
ATOM     31  O   UNK A   0       4.991  -3.198   0.200  0.00  0.00    +0.000 OA
ATOM     32  N   UNK A   0       6.782  -2.790  -0.719  0.00  0.00    +0.000 N 
ATOM     33  H   UNK A   0       7.403  -2.463  -1.435  0.00  0.00    +0.000 HD
BRANCH  32  34
ATOM     34  C   UNK A   0       7.178  -3.955   0.121  0.00  0.00    +0.000 C 
ATOM     35  C   UNK A   0       6.491  -5.265  -0.323  0.00  0.00    +0.000 C 
ATOM     36  C   UNK A   0       8.647  -4.170   0.010  0.00  0.00    +0.000 C 
ENDBRANCH  32  34
ENDBRANCH  19  30
ENDBRANCH   1  19
BRANCH   8  37
ATOM     37  CB  LEU A   1       2.835  -3.330   0.257  0.00  0.00    +0.000 C 
BRANCH  37  38
ATOM     38  CG  LEU A   1       2.613  -4.465   1.246  0.00  0.00    +0.000 C 
ATOM     39  CD1 LEU A   1       1.682  -5.461   0.628  0.00  0.00    +0.000 C 
ATOM     40  CD2 LEU A   1       3.924  -5.263   1.485  0.00  0.00    +0.000 C 
ENDBRANCH  37  38
ENDBRANCH   8  37
TORSDOF 9
