REMARK  Name = CHEMBL25120
REMARK  6 active torsions:
REMARK  status: ('A' for Active; 'I' for Inactive)
REMARK    1  A    between atoms: C_2  and  C_3
REMARK    2  A    between atoms: C_3  and  C_4
REMARK    3  A    between atoms: C_9  and  O_10
REMARK    4  A    between atoms: O_10  and  C_11
REMARK    5  A    between atoms: C_11  and  C_12
REMARK    6  A    between atoms: C_19  and  N_20
REMARK                            x       y       z     vdW  Elec       q    Type
REMARK                         _______ _______ _______ _____ _____    ______ ____
ROOT
ATOM      1  O   UNL     1       1.025   0.543   0.026  0.00  0.00    +0.000 OA
ATOM      2  C   UNL     1       2.236   0.351   0.027  0.00  0.00    +0.000 C 
ATOM      3  N   UNL     1       3.159   1.311  -0.449  0.00  0.00    +0.000 N 
ATOM      4  C   UNL     1       4.145   0.990  -1.483  0.00  0.00    +0.000 C 
ATOM      5  C   UNL     1       5.441   1.722  -1.219  0.00  0.00    +0.000 C 
ATOM      6  C   UNL     1       5.210   3.395  -1.613  0.00  0.00    +0.000 C 
ATOM      7  C   UNL     1       4.116   3.570  -0.297  0.00  0.00    +0.000 C 
ATOM      8  C   UNL     1       2.830   2.736  -0.393  0.00  0.00    +0.000 C 
ENDROOT
BRANCH   6   9
ATOM      9  N   UNL     1       5.498   3.723  -3.388  0.00  0.00    +0.000 N 
ATOM     10  C   UNL     1       6.886   3.530  -3.051  0.00  0.00    +0.000 C 
ATOM     11  O   UNL     1       7.449   2.533  -2.493  0.00  0.00    +0.000 OA
ATOM     12  O   UNL     1       7.634   4.607  -3.072  0.00  0.00    +0.000 OA
ATOM     13  C   UNL     1       8.033   4.469  -4.374  0.00  0.00    +0.000 C 
ATOM     14  C   UNL     1       7.040   5.456  -4.810  0.00  0.00    +0.000 A 
ATOM     15  C   UNL     1       7.652   6.603  -5.470  0.00  0.00    +0.000 A 
ATOM     16  C   UNL     1       7.105   7.263  -6.527  0.00  0.00    +0.000 A 
ATOM     17  C   UNL     1       6.113   6.492  -7.077  0.00  0.00    +0.000 A 
ATOM     18  C   UNL     1       5.433   5.311  -6.222  0.00  0.00    +0.000 A 
ATOM     19  C   UNL     1       5.725   4.965  -4.730  0.00  0.00    +0.000 A 
ENDBRANCH   6   9
BRANCH   2  20
ATOM     20  C   UNL     1       2.896  -0.896   0.604  0.00  0.00    +0.000 C 
BRANCH  20  21
ATOM     21  C   UNL     1       2.084  -2.139   0.929  0.00  0.00    +0.000 A 
ATOM     22  C   UNL     1       0.906  -1.935   1.677  0.00  0.00    +0.000 A 
ATOM     23  C   UNL     1       0.162  -2.991   2.199  0.00  0.00    +0.000 A 
ATOM     24  C   UNL     1       0.541  -4.296   1.932  0.00  0.00    +0.000 A 
ATOM     25  C   UNL     1       1.699  -4.537   1.191  0.00  0.00    +0.000 A 
ATOM     26  C   UNL     1       2.488  -3.479   0.690  0.00  0.00    +0.000 A 
BRANCH  26  27
ATOM     27  O   UNL     1       3.596  -3.955   0.016  0.00  0.00    +0.000 OA
BRANCH  27  28
ATOM     28  C   UNL     1       4.431  -2.999  -0.619  0.00  0.00    +0.000 C 
BRANCH  28  29
ATOM     29  C   UNL     1       5.599  -3.521  -1.404  0.00  0.00    +0.000 C 
ATOM     30  F   UNL     1       6.433  -4.247  -0.639  0.00  0.00    +0.000 F 
ATOM     31  F   UNL     1       5.201  -4.250  -2.462  0.00  0.00    +0.000 F 
ATOM     32  F   UNL     1       6.302  -2.459  -1.883  0.00  0.00    +0.000 F 
ENDBRANCH  28  29
ENDBRANCH  27  28
ENDBRANCH  26  27
ENDBRANCH  20  21
ENDBRANCH   2  20
TORSDOF 6
