REMARK  Name = CHEMBL1643588
REMARK  13 active torsions:
REMARK  status: ('A' for Active; 'I' for Inactive)
REMARK    1  A    between atoms: C_1  and  C_2
REMARK    2  A    between atoms: C_2  and  C_3
REMARK    3  A    between atoms: C_3  and  N_4
REMARK    4  A    between atoms: N_4  and  C_5
REMARK    5  A    between atoms: C_5  and  C_6
REMARK    6  A    between atoms: C_9  and  C_10
REMARK    7  A    between atoms: C_12  and  C_13
REMARK    8  A    between atoms: C_13  and  N_14
REMARK    9  A    between atoms: N_14  and  C_15
REMARK   10  A    between atoms: N_14  and  S_20
REMARK   11  A    between atoms: S_20  and  C_23
REMARK   12  A    between atoms: C_26  and  O_27
REMARK   13  A    between atoms: O_27  and  C_28
REMARK                            x       y       z     vdW  Elec       q    Type
REMARK                         _______ _______ _______ _____ _____    ______ ____
ROOT
ATOM      1  C   UNL     1      13.921   0.559   3.988  0.00  0.00    +0.000 C 
ENDROOT
BRANCH   1   4
ATOM      2  C   UNL     1      10.806   1.641   2.402  0.00  0.00    +0.000 A 
ATOM      3  N   UNL     1      11.525   1.250   3.439  0.00  0.00    +0.000 NA
ATOM      4  C   UNL     1      12.892   1.290   3.136  0.00  0.00    +0.000 A 
ATOM      5  C   UNL     1      13.172   1.908   1.928  0.00  0.00    +0.000 A 
ATOM      6  S   UNL     1      11.724   2.311   1.106  0.00  0.00    +0.000 S 
BRANCH   2  10
ATOM      7  C   UNL     1       6.521   1.704   2.149  0.00  0.00    +0.000 A 
ATOM      8  C   UNL     1       7.286   1.196   1.089  0.00  0.00    +0.000 A 
ATOM      9  C   UNL     1       8.673   1.082   1.194  0.00  0.00    +0.000 A 
ATOM     10  C   UNL     1       9.342   1.591   2.315  0.00  0.00    +0.000 A 
ATOM     11  C   UNL     1       8.582   2.099   3.373  0.00  0.00    +0.000 A 
ATOM     12  C   UNL     1       7.189   2.168   3.289  0.00  0.00    +0.000 A 
BRANCH   7  13
ATOM     13  C   UNL     1       5.008   1.728   2.125  0.00  0.00    +0.000 C 
BRANCH  13  14
ATOM     14  N   UNL     1       4.462   0.909   1.045  0.00  0.00    +0.000 NA
ATOM     15  H   UNL     1       4.769   1.296   0.156  0.00  0.00    +0.000 HD
BRANCH  14  16
ATOM     16  C   UNL     1       3.010   0.899   1.069  0.00  0.00    +0.000 C 
BRANCH  16  18
ATOM     17  C   UNL     1       0.997   0.023  -0.105  0.00  0.00    +0.000 C 
ATOM     18  C   UNL     1       2.513   0.037  -0.087  0.00  0.00    +0.000 C 
ENDBRANCH  16  18
ENDBRANCH  14  16
ENDBRANCH  13  14
ENDBRANCH   7  13
ENDBRANCH   2  10
ENDBRANCH   1   4
BRANCH   1  19
ATOM     19  N   UNL     1      13.335  -0.431   4.961  0.00  0.00    +0.000 NA
BRANCH  19  20
ATOM     20  C   UNL     1      12.408  -1.456   4.327  0.00  0.00    +0.000 C 
ATOM     21  C   UNL     1      12.360  -1.495   2.793  0.00  0.00    +0.000 C 
ATOM     22  C   UNL     1      11.801  -2.842   2.408  0.00  0.00    +0.000 C 
ATOM     23  C   UNL     1      12.225  -3.776   3.507  0.00  0.00    +0.000 C 
ATOM     24  C   UNL     1      12.801  -2.896   4.588  0.00  0.00    +0.000 C 
ENDBRANCH  19  20
BRANCH  19  25
ATOM     25  S   UNL     1      14.543  -0.930   6.095  0.00  0.00    +0.000 S 
ATOM     26  O   UNL     1      15.463  -1.799   5.399  0.00  0.00    +0.000 OA
ATOM     27  O   UNL     1      15.076   0.265   6.736  0.00  0.00    +0.000 OA
BRANCH  25  28
ATOM     28  C   UNL     1      13.739  -1.886   7.387  0.00  0.00    +0.000 A 
ATOM     29  C   UNL     1      13.112  -1.257   8.462  0.00  0.00    +0.000 A 
ATOM     30  C   UNL     1      12.728  -2.022   9.579  0.00  0.00    +0.000 A 
ATOM     31  C   UNL     1      12.854  -3.420   9.585  0.00  0.00    +0.000 A 
ATOM     32  C   UNL     1      13.436  -4.044   8.488  0.00  0.00    +0.000 A 
ATOM     33  C   UNL     1      13.921  -3.279   7.425  0.00  0.00    +0.000 A 
BRANCH  31  34
ATOM     34  O   UNL     1      12.389  -4.071  10.697  0.00  0.00    +0.000 OA
ATOM     35  C   UNL     1      12.409  -5.498  10.651  0.00  0.00    +0.000 C 
ENDBRANCH  31  34
ENDBRANCH  25  28
ENDBRANCH  19  25
ENDBRANCH   1  19
TORSDOF 11
