REMARK  Name = CHEMBL1093367
REMARK  8 active torsions:
REMARK  status: ('A' for Active; 'I' for Inactive)
REMARK    1  A    between atoms: C_1  and  O_2
REMARK    2  A    between atoms: O_2  and  C_3
REMARK    3  A    between atoms: C_6  and  N_7
REMARK    4  A    between atoms: N_7  and  C_8
REMARK    5  A    between atoms: C_9  and  C_11
REMARK    6  A    between atoms: C_14  and  C_15
REMARK    7  A    between atoms: C_18  and  C_19
REMARK    8  A    between atoms: C_22  and  C_23
REMARK                            x       y       z     vdW  Elec       q    Type
REMARK                         _______ _______ _______ _____ _____    ______ ____
ROOT
ATOM      1  C   UNL     1       5.580   4.430   5.789  0.00  0.00    +0.000 A 
ATOM      2  C   UNL     1       5.974   5.724   5.487  0.00  0.00    +0.000 A 
ATOM      3  N   UNL     1       6.752   6.475   6.312  0.00  0.00    +0.000 NA
ATOM      4  C   UNL     1       7.070   5.908   7.504  0.00  0.00    +0.000 A 
ATOM      5  C   UNL     1       6.593   4.641   7.832  0.00  0.00    +0.000 A 
ATOM      6  N   UNL     1       5.868   3.871   6.991  0.00  0.00    +0.000 NA
ENDROOT
BRANCH   4   7
ATOM      7  C   UNL     1       7.919   6.688   8.418  0.00  0.00    +0.000 A 
ATOM      8  C   UNL     1       7.519   7.984   8.792  0.00  0.00    +0.000 A 
ATOM      9  C   UNL     1       8.343   8.806   9.566  0.00  0.00    +0.000 A 
ATOM     10  C   UNL     1       9.530   8.304  10.097  0.00  0.00    +0.000 A 
ATOM     11  C   UNL     1       9.877   6.971   9.855  0.00  0.00    +0.000 A 
ATOM     12  C   UNL     1       9.129   6.185   8.954  0.00  0.00    +0.000 A 
ATOM     13  C   UNL     1       9.685   4.851   8.523  0.00  0.00    +0.000 C 
BRANCH  10  14
ATOM     14  C   UNL     1      10.401   9.164  10.841  0.00  0.00    +0.000 C 
ATOM     15  N   UNL     1      11.117   9.882  11.417  0.00  0.00    +0.000 NA
ENDBRANCH  10  14
ENDBRANCH   4   7
BRANCH   1  18
ATOM     16  N   UNL     1       5.169   3.404   3.513  0.00  0.00    +0.000 N 
ATOM     17  C   UNL     1       6.416   4.007   3.030  0.00  0.00    +0.000 C 
ATOM     18  C   UNL     1       4.758   3.600   4.867  0.00  0.00    +0.000 C 
ATOM     19  O   UNL     1       3.755   3.121   5.396  0.00  0.00    +0.000 OA
BRANCH  16  23
ATOM     20  C   UNL     1       2.990   0.922   0.818  0.00  0.00    +0.000 A 
ATOM     21  C   UNL     1       2.542   1.069   2.112  0.00  0.00    +0.000 A 
ATOM     22  C   UNL     1       3.253   1.884   2.992  0.00  0.00    +0.000 A 
ATOM     23  C   UNL     1       4.417   2.550   2.606  0.00  0.00    +0.000 A 
ATOM     24  C   UNL     1       4.785   2.306   1.276  0.00  0.00    +0.000 A 
ATOM     25  N   UNL     1       4.113   1.521   0.385  0.00  0.00    +0.000 NA
BRANCH  20  27
ATOM     26  C   UNL     1       0.967   0.084  -0.033  0.00  0.00    +0.000 C 
ATOM     27  O   UNL     1       2.390   0.094  -0.091  0.00  0.00    +0.000 OA
ENDBRANCH  20  27
ENDBRANCH  16  23
ENDBRANCH   1  18
TORSDOF 5
