REMARK  Name = CHEMBL1790718
REMARK  25 active torsions:
REMARK  status: ('A' for Active; 'I' for Inactive)
REMARK    1  A    between atoms: C_1  and  C_2
REMARK    2  A    between atoms: C_2  and  C_3
REMARK    3  A    between atoms: C_3  and  C_4
REMARK    4  A    between atoms: C_3  and  C_5
REMARK    5  A    between atoms: C_9  and  C_10
REMARK    6  A    between atoms: C_13  and  O_14
REMARK    7  A    between atoms: C_25  and  C_26
REMARK    8  A    between atoms: C_32  and  C_33
REMARK    9  A    between atoms: N_35  and  C_36
REMARK   10  A    between atoms: C_36  and  C_37
REMARK   11  A    between atoms: C_36  and  C_69
REMARK   12  A    between atoms: C_37  and  C_38
REMARK   13  A    between atoms: C_38  and  C_39
REMARK   14  A    between atoms: C_39  and  C_40
REMARK   15  A    between atoms: C_40  and  N_41
REMARK   16  A    between atoms: C_42  and  C_44
REMARK   17  A    between atoms: C_57  and  O_58
REMARK   18  A    between atoms: C_64  and  O_65
REMARK   19  A    between atoms: N_71  and  C_72
REMARK   20  A    between atoms: C_72  and  N_73
REMARK   21  A    between atoms: C_77  and  C_78
REMARK   22  A    between atoms: C_78  and  C_79
REMARK   23  A    between atoms: C_85  and  C_86
REMARK   24  A    between atoms: C_86  and  C_87
REMARK   25  A    between atoms: C_87  and  C_88
REMARK                            x       y       z     vdW  Elec       q    Type
REMARK                         _______ _______ _______ _____ _____    ______ ____
ROOT
ATOM      1  C   UNL     1       4.627   2.515  -1.100  0.00  0.00    +0.000 C 
ATOM      2  N   UNL     1       4.504   4.180  -2.221  0.00  0.00    +0.000 N 
ATOM      3  C   UNL     1       4.242   5.792  -2.593  0.00  0.00    +0.000 C 
ATOM      4  O   UNL     1       3.948   6.092  -3.801  0.00  0.00    +0.000 OA
ATOM      5  C   UNL     1       4.670   7.153  -1.623  0.00  0.00    +0.000 C 
ATOM      6  N   UNL     1       5.338   8.428  -2.261  0.00  0.00    +0.000 N 
ATOM      7  C   UNL     1       4.825   9.583  -2.874  0.00  0.00    +0.000 C 
ATOM      8  O   UNL     1       5.547  10.569  -3.076  0.00  0.00    +0.000 OA
ATOM      9  C   UNL     1       3.374   9.732  -3.272  0.00  0.00    +0.000 C 
ATOM     10  C   UNL     1       2.540   8.619  -2.877  0.00  0.00    +0.000 C 
ATOM     11  S   UNL     1       1.023   8.701  -3.614  0.00  0.00    +0.000 S 
ATOM     12  S   UNL     1       0.799   6.403  -3.336  0.00  0.00    +0.000 S 
ATOM     13  C   UNL     1      -1.677   5.873  -3.143  0.00  0.00    +0.000 C 
ATOM     14  C   UNL     1      -2.466   4.904  -2.373  0.00  0.00    +0.000 C 
ATOM     15  N   UNL     1      -1.819   3.760  -2.732  0.00  0.00    +0.000 N 
ATOM     16  C   UNL     1      -0.637   3.486  -2.123  0.00  0.00    +0.000 C 
ATOM     17  O   UNL     1      -0.325   2.284  -2.129  0.00  0.00    +0.000 OA
ATOM     18  C   UNL     1       0.438   4.639  -1.712  0.00  0.00    +0.000 C 
ATOM     19  N   UNL     1       1.273   3.989  -0.803  0.00  0.00    +0.000 N 
ATOM     20  C   UNL     1       2.101   2.968  -1.140  0.00  0.00    +0.000 C 
ATOM     21  O   UNL     1       2.442   2.391  -0.096  0.00  0.00    +0.000 OA
ATOM     22  C   UNL     1       2.609   2.470  -2.794  0.00  0.00    +0.000 C 
ATOM     23  N   UNL     1       4.070   2.182  -3.271  0.00  0.00    +0.000 N 
ATOM     24  C   UNL     1       5.149   2.092  -2.385  0.00  0.00    +0.000 C 
ATOM     25  O   UNL     1       6.354   2.114  -2.584  0.00  0.00    +0.000 OA
ATOM     26  H   UNL     1       4.655   4.294  -3.300  0.00  0.00    +0.000 HD
ATOM     27  H   UNL     1       6.290   8.590  -1.936  0.00  0.00    +0.000 HD
ATOM     28  H   UNL     1      -2.100   3.334  -3.620  0.00  0.00    +0.000 HD
ATOM     29  H   UNL     1       1.075   4.142   0.166  0.00  0.00    +0.000 HD
ATOM     30  H   UNL     1       4.333   3.032  -3.688  0.00  0.00    +0.000 HD
ENDROOT
BRANCH  14  31
ATOM     31  C   UNL     1      -2.593   4.970  -0.842  0.00  0.00    +0.000 C 
ATOM     32  O   UNL     1      -2.380   5.980  -0.155  0.00  0.00    +0.000 OA
ATOM     33  N   UNL     1      -2.774   3.751  -0.242  0.00  0.00    +0.000 N 
ATOM     34  C   UNL     1      -2.522   2.372  -0.688  0.00  0.00    +0.000 C 
ATOM     35  C   UNL     1      -3.794   1.712  -0.370  0.00  0.00    +0.000 C 
ATOM     36  C   UNL     1      -4.066   2.313   0.987  0.00  0.00    +0.000 C 
ATOM     37  C   UNL     1      -3.500   3.749   0.984  0.00  0.00    +0.000 C 
BRANCH  37  38
ATOM     38  C   UNL     1      -4.613   4.797   1.053  0.00  0.00    +0.000 C 
ATOM     39  O   UNL     1      -4.563   5.918   0.560  0.00  0.00    +0.000 OA
ATOM     40  N   UNL     1      -5.698   4.346   1.748  0.00  0.00    +0.000 N 
ATOM     41  H   UNL     1      -5.581   3.527   2.329  0.00  0.00    +0.000 HD
BRANCH  40  42
ATOM     42  C   UNL     1      -7.040   4.899   1.674  0.00  0.00    +0.000 C 
BRANCH  42  43
ATOM     43  C   UNL     1      -7.969   4.053   2.609  0.00  0.00    +0.000 C 
ATOM     44  O   UNL     1      -7.523   3.062   3.197  0.00  0.00    +0.000 OA
ATOM     45  N   UNL     1      -9.291   4.457   2.746  0.00  0.00    +0.000 N 
ATOM     46  H   UNL     1      -9.656   5.249   2.236  0.00  0.00    +0.000 HD
BRANCH  45  47
ATOM     47  C   UNL     1     -10.201   3.720   3.582  0.00  0.00    +0.000 C 
BRANCH  47  48
ATOM     48  N   UNL     1     -11.506   4.343   3.516  0.00  0.00    +0.000 NA
ATOM     49  H   UNL     1     -11.478   5.275   3.924  0.00  0.00    +0.000 HD
ATOM     50  H   UNL     1     -12.138   3.820   4.134  0.00  0.00    +0.000 HD
ENDBRANCH  47  48
ENDBRANCH  45  47
ENDBRANCH  42  43
BRANCH  42  51
ATOM     51  C   UNL     1      -7.573   4.859   0.236  0.00  0.00    +0.000 C 
BRANCH  51  52
ATOM     52  C   UNL     1      -6.709   5.645  -0.741  0.00  0.00    +0.000 C 
BRANCH  52  53
ATOM     53  C   UNL     1      -7.202   5.660  -2.162  0.00  0.00    +0.000 C 
BRANCH  53  54
ATOM     54  C   UNL     1      -6.254   6.447  -3.099  0.00  0.00    +0.000 C 
BRANCH  54  55
ATOM     55  N   UNL     1      -6.767   6.462  -4.566  0.00  0.00    +0.000 N 
ATOM     56  C   UNL     1      -6.110   7.159  -5.672  0.00  0.00    +0.000 C 
ATOM     57  O   UNL     1      -5.023   7.645  -5.281  0.00  0.00    +0.000 OA
ATOM     58  H   UNL     1      -7.625   5.956  -4.664  0.00  0.00    +0.000 HD
BRANCH  56  59
ATOM     59  C   UNL     1      -6.569   7.615  -7.395  0.00  0.00    +0.000 A 
ATOM     60  C   UNL     1      -5.475   7.714  -8.105  0.00  0.00    +0.000 A 
ATOM     61  C   UNL     1      -5.503   7.429  -9.572  0.00  0.00    +0.000 A 
ATOM     62  C   UNL     1      -5.512   8.638 -10.079  0.00  0.00    +0.000 A 
ATOM     63  C   UNL     1      -6.709   8.688 -10.561  0.00  0.00    +0.000 A 
ATOM     64  C   UNL     1      -7.352   7.961  -8.761  0.00  0.00    +0.000 A 
ATOM     65  C   UNL     1      -5.579   9.176 -12.084  0.00  0.00    +0.000 C 
ATOM     66  O   UNL     1      -4.209   8.746 -11.735  0.00  0.00    +0.000 OA
ATOM     67  C   UNL     1      -4.225   9.110 -10.441  0.00  0.00    +0.000 C 
ATOM     68  O   UNL     1      -3.449   9.295  -9.519  0.00  0.00    +0.000 OA
ATOM     69  C   UNL     1      -6.315   8.942 -13.698  0.00  0.00    +0.000 A 
ATOM     70  C   UNL     1      -6.485   7.721 -14.365  0.00  0.00    +0.000 A 
ATOM     71  C   UNL     1      -7.231   7.608 -15.602  0.00  0.00    +0.000 A 
ATOM     72  C   UNL     1      -7.725   8.729 -16.274  0.00  0.00    +0.000 A 
ATOM     73  C   UNL     1      -7.410   9.978 -15.780  0.00  0.00    +0.000 A 
ATOM     74  C   UNL     1      -6.722  10.077 -14.528  0.00  0.00    +0.000 A 
ATOM     75  O   UNL     1      -6.494  11.389 -14.152  0.00  0.00    +0.000 OA
ATOM     76  C   UNL     1      -5.276  11.601 -13.572  0.00  0.00    +0.000 A 
ATOM     77  C   UNL     1      -4.810  12.997 -13.550  0.00  0.00    +0.000 A 
ATOM     78  C   UNL     1      -3.493  13.451 -13.451  0.00  0.00    +0.000 A 
ATOM     79  C   UNL     1      -2.566  12.507 -13.778  0.00  0.00    +0.000 A 
ATOM     80  C   UNL     1      -3.035  11.040 -13.709  0.00  0.00    +0.000 A 
ATOM     81  C   UNL     1      -4.514  10.577 -13.084  0.00  0.00    +0.000 A 
BRANCH  72  82
ATOM     82  O   UNL     1      -8.523   8.679 -17.384  0.00  0.00    +0.000 OA
ATOM     83  H   UNL     1      -8.734   7.768 -17.644  0.00  0.00    +0.000 HD
ENDBRANCH  72  82
BRANCH  78  84
ATOM     84  O   UNL     1      -3.136  14.699 -13.018  0.00  0.00    +0.000 OA
ATOM     85  H   UNL     1      -3.894  15.206 -12.667  0.00  0.00    +0.000 HD
ENDBRANCH  78  84
ENDBRANCH  56  59
ENDBRANCH  54  55
ENDBRANCH  53  54
ENDBRANCH  52  53
ENDBRANCH  51  52
ENDBRANCH  42  51
ENDBRANCH  40  42
ENDBRANCH  37  38
ENDBRANCH  14  31
BRANCH   5  86
ATOM     86  C   UNL     1       3.657   7.663  -0.569  0.00  0.00    +0.000 A 
ATOM     87  C   UNL     1       2.665   6.798  -0.162  0.00  0.00    +0.000 A 
ATOM     88  C   UNL     1       1.599   7.246   0.641  0.00  0.00    +0.000 A 
ATOM     89  C   UNL     1       1.388   8.592   0.887  0.00  0.00    +0.000 A 
ATOM     90  C   UNL     1       2.303   9.507   0.431  0.00  0.00    +0.000 A 
ATOM     91  C   UNL     1       3.465   9.049  -0.213  0.00  0.00    +0.000 A 
BRANCH  89  92
ATOM     92  O   UNL     1       0.344   9.063   1.617  0.00  0.00    +0.000 OA
ATOM     93  H   UNL     1      -0.241   8.343   1.904  0.00  0.00    +0.000 HD
ENDBRANCH  89  92
ENDBRANCH   5  86
BRANCH   1  94
ATOM     94  C   UNL     1       5.050   0.674  -0.414  0.00  0.00    +0.000 C 
ATOM     95  C   UNL     1       6.536   0.295  -0.338  0.00  0.00    +0.000 C 
BRANCH  94  97
ATOM     96  C   UNL     1       4.915   1.477   1.934  0.00  0.00    +0.000 C 
ATOM     97  C   UNL     1       4.560   0.250   1.185  0.00  0.00    +0.000 C 
ENDBRANCH  94  97
ENDBRANCH   1  94
BRANCH  18  98
ATOM     98  C   UNL     1      -0.277   6.015  -1.345  0.00  0.00    +0.000 C 
BRANCH  98  99
ATOM     99  C   UNL     1      -0.924   7.536  -2.474  0.00  0.00    +0.000 C 
ATOM    100  N   UNL     1      -0.862   7.149  -4.279  0.00  0.00    +0.000 N 
ATOM    101  O   UNL     1      -1.577   8.483  -2.073  0.00  0.00    +0.000 OA
ATOM    102  H   UNL     1      -0.221   6.185  -4.364  0.00  0.00    +0.000 HD
ATOM    103  H   UNL     1      -1.086   7.271  -5.243  0.00  0.00    +0.000 HD
ENDBRANCH  98  99
ENDBRANCH  18  98
BRANCH  22 104
ATOM    104  C   UNL     1       2.098   3.342  -3.974  0.00  0.00    +0.000 C 
BRANCH 104 105
ATOM    105  C   UNL     1       0.667   3.088  -4.273  0.00  0.00    +0.000 C 
BRANCH 105 106
ATOM    106  C   UNL     1      -0.241   4.001  -5.033  0.00  0.00    +0.000 C 
ATOM    107  N   UNL     1       0.426   4.948  -5.698  0.00  0.00    +0.000 N 
ATOM    108  O   UNL     1      -1.466   4.015  -5.044  0.00  0.00    +0.000 OA
ATOM    109  H   UNL     1       1.378   5.165  -5.421  0.00  0.00    +0.000 HD
ATOM    110  H   UNL     1      -0.153   5.680  -6.076  0.00  0.00    +0.000 HD
ENDBRANCH 105 106
ENDBRANCH 104 105
ENDBRANCH  22 104
TORSDOF 23
