REMARK  Name = CHEMBL284120
REMARK  13 active torsions:
REMARK  status: ('A' for Active; 'I' for Inactive)
REMARK    1  A    between atoms: C_1  and  C_2
REMARK    2  A    between atoms: C_2  and  C_4
REMARK    3  A    between atoms: C_4  and  C_5
REMARK    4  A    between atoms: C_5  and  C_6
REMARK    5  A    between atoms: C_6  and  C_7
REMARK    6  A    between atoms: N_9  and  C_10
REMARK    7  A    between atoms: C_12  and  C_13
REMARK    8  A    between atoms: N_25  and  C_26
REMARK    9  A    between atoms: C_26  and  C_27
REMARK   10  A    between atoms: N_29  and  C_30
REMARK   11  A    between atoms: C_30  and  C_31
REMARK   12  A    between atoms: C_30  and  C_40
REMARK   13  A    between atoms: C_31  and  C_32
REMARK                            x       y       z     vdW  Elec       q    Type
REMARK                         _______ _______ _______ _____ _____    ______ ____
ROOT
ATOM      1  C   UNL     1       9.263  -1.577   2.635  0.00  0.00    +0.000 C 
ATOM      2  N   UNL     1       9.849  -2.759   3.312  0.00  0.00    +0.000 NA
ATOM      3  C   UNL     1      11.128  -2.911   3.186  0.00  0.00    +0.000 C 
ATOM      4  C   UNL     1      11.940  -2.010   2.393  0.00  0.00    +0.000 A 
ATOM      5  C   UNL     1      12.860  -2.640   1.576  0.00  0.00    +0.000 A 
ATOM      6  C   UNL     1      13.548  -1.835   0.755  0.00  0.00    +0.000 A 
ATOM      7  C   UNL     1      13.182  -0.495   0.668  0.00  0.00    +0.000 A 
ATOM      8  C   UNL     1      12.309   0.159   1.473  0.00  0.00    +0.000 A 
ATOM      9  C   UNL     1      11.752  -0.607   2.432  0.00  0.00    +0.000 A 
ATOM     10  N   UNL     1      10.995   0.062   3.401  0.00  0.00    +0.000 N 
ATOM     11  C   UNL     1       9.652  -0.273   3.449  0.00  0.00    +0.000 C 
ATOM     12  O   UNL     1       8.844   0.432   4.061  0.00  0.00    +0.000 OA
ENDROOT
BRANCH   3  13
ATOM     13  C   UNL     1      11.858  -4.064   3.776  0.00  0.00    +0.000 A 
ATOM     14  C   UNL     1      11.513  -5.362   3.406  0.00  0.00    +0.000 A 
ATOM     15  C   UNL     1      12.122  -6.431   4.057  0.00  0.00    +0.000 A 
ATOM     16  C   UNL     1      13.170  -6.203   4.953  0.00  0.00    +0.000 A 
ATOM     17  C   UNL     1      13.657  -4.911   5.149  0.00  0.00    +0.000 A 
ATOM     18  C   UNL     1      12.981  -3.833   4.586  0.00  0.00    +0.000 A 
ENDBRANCH   3  13
BRANCH   1  21
ATOM     19  C   UNL     1       7.053  -1.065   1.799  0.00  0.00    +0.000 C 
ATOM     20  O   UNL     1       7.507  -0.400   0.872  0.00  0.00    +0.000 OA
ATOM     21  N   UNL     1       7.849  -1.758   2.675  0.00  0.00    +0.000 N 
ATOM     22  H   UNL     1       7.507  -2.105   3.554  0.00  0.00    +0.000 HD
BRANCH  19  23
ATOM     23  C   UNL     1       5.568  -1.211   2.072  0.00  0.00    +0.000 C 
BRANCH  23  24
ATOM     24  C   UNL     1       4.759  -0.512   0.981  0.00  0.00    +0.000 C 
BRANCH  24  25
ATOM     25  C   UNL     1       3.250  -0.632   1.171  0.00  0.00    +0.000 C 
BRANCH  25  27
ATOM     26  C   UNL     1       1.001   0.047   0.097  0.00  0.00    +0.000 C 
ATOM     27  C   UNL     1       2.505   0.078   0.049  0.00  0.00    +0.000 C 
ATOM     28  O   UNL     1       3.083   0.661  -0.869  0.00  0.00    +0.000 OA
ENDBRANCH  25  27
ENDBRANCH  24  25
ENDBRANCH  23  24
ENDBRANCH  19  23
ENDBRANCH   1  21
BRANCH  10  29
ATOM     29  C   UNL     1      11.490   1.338   3.989  0.00  0.00    +0.000 C 
BRANCH  29  30
ATOM     30  C   UNL     1      13.024   1.555   4.007  0.00  0.00    +0.000 C 
ATOM     31  O   UNL     1      13.816   0.588   3.916  0.00  0.00    +0.000 OA
ATOM     32  N   UNL     1      13.510   2.829   4.175  0.00  0.00    +0.000 N 
ATOM     33  H   UNL     1      12.956   3.426   4.771  0.00  0.00    +0.000 HD
BRANCH  32  34
ATOM     34  C   UNL     1      14.958   3.132   4.018  0.00  0.00    +0.000 C 
BRANCH  34  35
ATOM     35  C   UNL     1      15.458   4.376   4.796  0.00  0.00    +0.000 C 
ATOM     36  N   UNL     1      14.572   5.043   5.589  0.00  0.00    +0.000 N 
ATOM     37  O   UNL     1      16.624   4.771   4.748  0.00  0.00    +0.000 OA
ATOM     38  H   UNL     1      13.608   4.805   5.732  0.00  0.00    +0.000 HD
ATOM     39  H   UNL     1      14.924   5.850   6.089  0.00  0.00    +0.000 HD
ENDBRANCH  34  35
BRANCH  34  40
ATOM     40  C   UNL     1      15.348   3.338   2.522  0.00  0.00    +0.000 C 
BRANCH  40  41
ATOM     41  C   UNL     1      15.408   2.152   1.582  0.00  0.00    +0.000 A 
ATOM     42  C   UNL     1      15.866   0.913   2.034  0.00  0.00    +0.000 A 
ATOM     43  C   UNL     1      16.036  -0.159   1.151  0.00  0.00    +0.000 A 
ATOM     44  C   UNL     1      15.909   0.028  -0.251  0.00  0.00    +0.000 A 
ATOM     45 CL   UNL     1      15.929  -1.344  -1.344  0.00  0.00    +0.000 Cl
ATOM     46  C   UNL     1      15.391   1.262  -0.712  0.00  0.00    +0.000 A 
ATOM     47 CL   UNL     1      14.664   1.409  -2.294  0.00  0.00    +0.000 Cl
ATOM     48  C   UNL     1      15.095   2.288   0.214  0.00  0.00    +0.000 A 
ENDBRANCH  40  41
ENDBRANCH  34  40
ENDBRANCH  32  34
ENDBRANCH  29  30
ENDBRANCH  10  29
TORSDOF 12
