REMARK  Name = CHEMBL383149
REMARK  11 active torsions:
REMARK  status: ('A' for Active; 'I' for Inactive)
REMARK    1  A    between atoms: C_1  and  C_2
REMARK    2  A    between atoms: C_2  and  O_3
REMARK    3  A    between atoms: O_3  and  C_4
REMARK    4  A    between atoms: C_7  and  S_8
REMARK    5  A    between atoms: S_8  and  N_11
REMARK    6  A    between atoms: N_11  and  C_12
REMARK    7  A    between atoms: N_11  and  C_27
REMARK    8  A    between atoms: C_12  and  C_13
REMARK    9  A    between atoms: C_23  and  C_24
REMARK   10  A    between atoms: C_30  and  O_31
REMARK   11  A    between atoms: O_31  and  C_32
REMARK                            x       y       z     vdW  Elec       q    Type
REMARK                         _______ _______ _______ _____ _____    ______ ____
ROOT
ATOM      1  N   UNL     1       9.474  -2.075  -0.508  0.00  0.00    +0.000 N 
ENDROOT
BRANCH   1   2
ATOM      2  C   UNL     1      10.980  -2.204  -0.450  0.00  0.00    +0.000 A 
ATOM      3  C   UNL     1      11.585  -3.022   0.545  0.00  0.00    +0.000 A 
ATOM      4  C   UNL     1      12.976  -3.004   0.817  0.00  0.00    +0.000 A 
ATOM      5  C   UNL     1      13.824  -2.198   0.066  0.00  0.00    +0.000 A 
ATOM      6  C   UNL     1      13.245  -1.337  -0.867  0.00  0.00    +0.000 A 
ATOM      7  C   UNL     1      11.845  -1.324  -1.104  0.00  0.00    +0.000 A 
BRANCH   5   8
ATOM      8  O   UNL     1      15.165  -2.322   0.321  0.00  0.00    +0.000 OA
ATOM      9  C   UNL     1      16.038  -1.672  -0.604  0.00  0.00    +0.000 C 
ENDBRANCH   5   8
ENDBRANCH   1   2
BRANCH   1  10
ATOM     10  S   UNL     1       8.666  -1.909  -2.035  0.00  0.00    +0.000 S 
ATOM     11  O   UNL     1       8.983  -3.123  -2.766  0.00  0.00    +0.000 OA
ATOM     12  O   UNL     1       9.075  -0.625  -2.577  0.00  0.00    +0.000 OA
BRANCH  10  16
ATOM     13  C   UNL     1       4.044  -0.957  -1.809  0.00  0.00    +0.000 A 
ATOM     14  C   UNL     1       4.718  -0.891  -3.017  0.00  0.00    +0.000 A 
ATOM     15  C   UNL     1       6.098  -1.307  -3.122  0.00  0.00    +0.000 A 
ATOM     16  C   UNL     1       6.811  -1.851  -2.029  0.00  0.00    +0.000 A 
ATOM     17  C   UNL     1       6.011  -2.247  -0.985  0.00  0.00    +0.000 A 
ATOM     18  C   UNL     1       4.665  -1.761  -0.890  0.00  0.00    +0.000 A 
BRANCH  13  19
ATOM     19  O   UNL     1       2.775  -0.468  -1.597  0.00  0.00    +0.000 OA
BRANCH  19  21
ATOM     20  C   UNL     1       0.918   0.012  -0.042  0.00  0.00    +0.000 C 
ATOM     21  C   UNL     1       2.431   0.040  -0.269  0.00  0.00    +0.000 C 
ENDBRANCH  19  21
ENDBRANCH  13  19
ENDBRANCH  10  16
ENDBRANCH   1  10
BRANCH   1  22
ATOM     22  C   UNL     1       8.951  -1.636   0.804  0.00  0.00    +0.000 C 
BRANCH  22  23
ATOM     23  C   UNL     1       7.621  -0.997   1.152  0.00  0.00    +0.000 C 
ATOM     24  O   UNL     1       7.260  -0.090   0.365  0.00  0.00    +0.000 OA
ATOM     25  N   UNL     1       6.715  -1.521   2.118  0.00  0.00    +0.000 N 
ATOM     26  C   UNL     1       5.375  -1.204   1.775  0.00  0.00    +0.000 C 
ATOM     27  C   UNL     1       4.567  -1.183   2.994  0.00  0.00    +0.000 A 
ATOM     28  C   UNL     1       3.803  -0.092   3.392  0.00  0.00    +0.000 A 
ATOM     29  C   UNL     1       3.222  -0.122   4.636  0.00  0.00    +0.000 A 
ATOM     30  C   UNL     1       3.241  -1.335   5.308  0.00  0.00    +0.000 A 
ATOM     31  C   UNL     1       4.161  -2.355   4.926  0.00  0.00    +0.000 A 
ATOM     32  C   UNL     1       5.055  -2.155   3.872  0.00  0.00    +0.000 A 
ATOM     33  C   UNL     1       6.619  -1.702   3.678  0.00  0.00    +0.000 C 
BRANCH  33  34
ATOM     34  C   UNL     1       7.882  -2.239   4.331  0.00  0.00    +0.000 C 
ATOM     35  N   UNL     1       8.791  -2.614   3.396  0.00  0.00    +0.000 N 
ATOM     36  O   UNL     1       8.189  -2.172   5.513  0.00  0.00    +0.000 OA
ATOM     37  H   UNL     1       8.351  -3.057   2.610  0.00  0.00    +0.000 HD
ATOM     38  H   UNL     1       9.794  -2.484   3.469  0.00  0.00    +0.000 HD
ENDBRANCH  33  34
ENDBRANCH  22  23
ENDBRANCH   1  22
TORSDOF 9
