REMARK  Name = CHEMBL271039
REMARK  9 active torsions:
REMARK  status: ('A' for Active; 'I' for Inactive)
REMARK    1  A    between atoms: C_1  and  C_2
REMARK    2  A    between atoms: C_4  and  C_5
REMARK    3  A    between atoms: C_5  and  C_6
REMARK    4  A    between atoms: C_5  and  N_14
REMARK    5  A    between atoms: C_17  and  C_18
REMARK    6  A    between atoms: CA_30  and  CB_31
REMARK    7  A    between atoms: CB_31  and  CG_32
REMARK    8  A    between atoms: CG_32  and  CD1_33
REMARK    9  A    between atoms: CG_32  and  CD2_34
REMARK                            x       y       z     vdW  Elec       q    Type
REMARK                         _______ _______ _______ _____ _____    ______ ____
ROOT
ATOM      1  N   LEU A   1      -2.397   2.992   0.199  0.00  0.00    +0.000 N 
ATOM      2  C   UNK A   2      -2.145   3.736  -0.952  0.00  0.00    +0.000 C 
ATOM      3  O   UNK A   2      -2.334   3.265  -2.072  0.00  0.00    +0.000 OA
ATOM      4  C   UNK A   2      -1.399   5.089  -0.688  0.00  0.00    +0.000 C 
ATOM      5  N   UNK A   2      -2.320   5.853   0.082  0.00  0.00    +0.000 N 
ATOM      6  C   LEU A   1      -2.709   5.350   1.269  0.00  0.00    +0.000 C 
ATOM      7  O   LEU A   1      -3.202   6.142   2.088  0.00  0.00    +0.000 OA
ATOM      8  CA  LEU A   1      -2.521   3.803   1.463  0.00  0.00    +0.000 C 
ATOM      9  H   UNK A   2      -2.574   6.813  -0.121  0.00  0.00    +0.000 HD
ENDROOT
BRANCH   4  10
ATOM     10  C   UNK A   2      -0.951   5.874  -1.898  0.00  0.00    +0.000 C 
ATOM     11  C   UNK A   2       0.296   5.275  -2.561  0.00  0.00    +0.000 C 
ATOM     12  C   UNK A   2       0.097   5.677  -3.975  0.00  0.00    +0.000 A 
ATOM     13  C   UNK A   2       1.018   5.611  -5.000  0.00  0.00    +0.000 A 
ATOM     14  C   UNK A   2       0.614   6.047  -6.258  0.00  0.00    +0.000 A 
ATOM     15  C   UNK A   2      -0.703   6.485  -6.479  0.00  0.00    +0.000 A 
ATOM     16  C   UNK A   2      -1.640   6.485  -5.449  0.00  0.00    +0.000 A 
ATOM     17  C   UNK A   2      -1.218   6.095  -4.199  0.00  0.00    +0.000 A 
ATOM     18  C   UNK A   2      -2.049   5.999  -2.969  0.00  0.00    +0.000 C 
ENDBRANCH   4  10
BRANCH   1  19
ATOM     19  C   UNK A   0      -2.615   1.441   0.070  0.00  0.00    +0.000 C 
BRANCH  19  20
ATOM     20  C   UNK A   0      -1.200   0.700  -0.016  0.00  0.00    +0.000 C 
ATOM     21  O   UNK A   0      -0.837  -0.090   0.865  0.00  0.00    +0.000 OA
ATOM     22  N   UNK A   0      -0.372   0.797  -1.116  0.00  0.00    +0.000 N 
ATOM     23  C   UNK A   0       0.044   1.968  -1.846  0.00  0.00    +0.000 C 
ATOM     24  C   UNK A   0      -0.196   1.761  -3.343  0.00  0.00    +0.000 C 
ATOM     25  O   UNK A   0       0.667   0.678  -3.753  0.00  0.00    +0.000 OA
ATOM     26  C   UNK A   0       0.376  -0.513  -2.990  0.00  0.00    +0.000 C 
ATOM     27  C   UNK A   0       0.500  -0.301  -1.471  0.00  0.00    +0.000 C 
ENDBRANCH  19  20
BRANCH  19  31
ATOM     28  C   UNK A   0      -6.310   0.730   3.620  0.00  0.00    +0.000 C 
ATOM     29  C   UNK A   0      -5.162   0.502   2.664  0.00  0.00    +0.000 A 
ATOM     30  N   UNK A   0      -4.938   0.834   1.388  0.00  0.00    +0.000 NA
ATOM     31  C   UNK A   0      -3.520   0.686   1.201  0.00  0.00    +0.000 A 
ATOM     32  C   UNK A   0      -3.090  -0.022   2.307  0.00  0.00    +0.000 A 
ATOM     33  O   UNK A   0      -4.065  -0.052   3.254  0.00  0.00    +0.000 OA
ENDBRANCH  19  31
ENDBRANCH   1  19
BRANCH   8  34
ATOM     34  CB  LEU A   1      -3.786   3.360   2.150  0.00  0.00    +0.000 C 
BRANCH  34  35
ATOM     35  CG  LEU A   1      -5.073   4.169   2.039  0.00  0.00    +0.000 C 
ATOM     36  CD1 LEU A   1      -5.464   4.372   0.562  0.00  0.00    +0.000 C 
ATOM     37  CD2 LEU A   1      -6.247   3.464   2.647  0.00  0.00    +0.000 C 
ENDBRANCH  34  35
ENDBRANCH   8  34
TORSDOF 6
