REMARK  Name = CHEMBL2113194
REMARK  11 active torsions:
REMARK  status: ('A' for Active; 'I' for Inactive)
REMARK    1  A    between atoms: C_1  and  C_2
REMARK    2  A    between atoms: C_2  and  O_3
REMARK    3  A    between atoms: O_3  and  C_4
REMARK    4  A    between atoms: C_7  and  S_8
REMARK    5  A    between atoms: S_8  and  N_11
REMARK    6  A    between atoms: N_11  and  C_12
REMARK    7  A    between atoms: N_11  and  C_19
REMARK    8  A    between atoms: C_15  and  C_16
REMARK    9  A    between atoms: C_19  and  C_20
REMARK   10  A    between atoms: C_19  and  C_21
REMARK   11  A    between atoms: N_23  and  N_24
REMARK                            x       y       z     vdW  Elec       q    Type
REMARK                         _______ _______ _______ _____ _____    ______ ____
ROOT
ATOM      1  N   UNL     1       9.715   1.228   1.505  0.00  0.00    +0.000 N 
ENDROOT
BRANCH   1   2
ATOM      2  C   UNL     1       8.994   2.079   0.625  0.00  0.00    +0.000 A 
ATOM      3  C   UNL     1       9.277   1.975  -0.738  0.00  0.00    +0.000 A 
ATOM      4  C   UNL     1       8.624   2.794  -1.646  0.00  0.00    +0.000 A 
ATOM      5  C   UNL     1       7.501   3.519  -1.249  0.00  0.00    +0.000 A 
ATOM      6  C   UNL     1       6.649   4.179  -2.288  0.00  0.00    +0.000 C 
ATOM      7  C   UNL     1       7.159   3.563   0.108  0.00  0.00    +0.000 A 
ATOM      8  C   UNL     1       7.973   2.934   1.062  0.00  0.00    +0.000 A 
ENDBRANCH   1   2
BRANCH   1   9
ATOM      9  S   UNL     1       8.892   0.081   2.556  0.00  0.00    +0.000 S 
ATOM     10  O   UNL     1       9.052   0.550   3.896  0.00  0.00    +0.000 OA
ATOM     11  O   UNL     1       9.379  -1.268   2.198  0.00  0.00    +0.000 OA
BRANCH   9  15
ATOM     12  C   UNL     1       4.310  -0.223   1.712  0.00  0.00    +0.000 A 
ATOM     13  C   UNL     1       4.897  -1.005   2.716  0.00  0.00    +0.000 A 
ATOM     14  C   UNL     1       6.274  -0.872   3.048  0.00  0.00    +0.000 A 
ATOM     15  C   UNL     1       7.101  -0.065   2.255  0.00  0.00    +0.000 A 
ATOM     16  C   UNL     1       6.495   0.532   1.168  0.00  0.00    +0.000 A 
ATOM     17  C   UNL     1       5.125   0.608   0.985  0.00  0.00    +0.000 A 
BRANCH  12  18
ATOM     18  O   UNL     1       2.965  -0.311   1.487  0.00  0.00    +0.000 OA
BRANCH  18  20
ATOM     19  C   UNL     1       1.044  -0.066   0.084  0.00  0.00    +0.000 C 
ATOM     20  C   UNL     1       2.558  -0.095   0.124  0.00  0.00    +0.000 C 
ENDBRANCH  18  20
ENDBRANCH  12  18
ENDBRANCH   9  15
ENDBRANCH   1   9
BRANCH   1  21
ATOM     21  C   UNL     1      11.258   1.404   1.555  0.00  0.00    +0.000 C 
ATOM     22  C   UNL     1      11.888   0.034   1.294  0.00  0.00    +0.000 C 
BRANCH  21  23
ATOM     23  C   UNL     1      12.080   2.422   0.567  0.00  0.00    +0.000 C 
ATOM     24  O   UNL     1      11.545   3.318  -0.102  0.00  0.00    +0.000 OA
ATOM     25  N   UNL     1      13.509   2.271   0.663  0.00  0.00    +0.000 N 
ATOM     26  H   UNL     1      13.857   2.085   1.598  0.00  0.00    +0.000 HD
BRANCH  25  27
ATOM     27  N   UNL     1      14.606   2.197  -0.336  0.00  0.00    +0.000 NA
ATOM     28  C   UNL     1      15.807   2.543   0.142  0.00  0.00    +0.000 C 
ATOM     29  C   UNL     1      15.763   3.746   1.003  0.00  0.00    +0.000 C 
ATOM     30  O   UNL     1      15.267   3.517   2.092  0.00  0.00    +0.000 OA
ATOM     31  N   UNL     1      16.909   4.457   0.697  0.00  0.00    +0.000 N 
ATOM     32  C   UNL     1      17.884   3.475   0.924  0.00  0.00    +0.000 A 
ATOM     33  C   UNL     1      19.043   3.881   1.612  0.00  0.00    +0.000 A 
ATOM     34  C   UNL     1      19.816   2.925   2.222  0.00  0.00    +0.000 A 
ATOM     35  C   UNL     1      19.367   1.600   2.123  0.00  0.00    +0.000 A 
ATOM     36  C   UNL     1      18.151   1.205   1.371  0.00  0.00    +0.000 A 
ATOM     37  C   UNL     1      17.343   2.166   0.716  0.00  0.00    +0.000 A 
ATOM     38  H   UNL     1      16.958   4.673  -0.297  0.00  0.00    +0.000 HD
ENDBRANCH  25  27
ENDBRANCH  21  23
ENDBRANCH   1  21
TORSDOF 8
