REMARK  Name = CHEMBL213112
REMARK  14 active torsions:
REMARK  status: ('A' for Active; 'I' for Inactive)
REMARK    1  A    between atoms: CD1_1  and  CG_2
REMARK    2  A    between atoms: CG_2  and  CD2_3
REMARK    3  A    between atoms: CG_2  and  CB_4
REMARK    4  A    between atoms: CB_4  and  CA_5
REMARK    5  A    between atoms: C_9  and  C_10
REMARK    6  A    between atoms: N_21  and  C_22
REMARK    7  A    between atoms: C_22  and  C_23
REMARK    8  A    between atoms: C_22  and  C_30
REMARK    9  A    between atoms: N_25  and  C_26
REMARK   10  A    between atoms: C_26  and  C_27
REMARK   11  A    between atoms: C_26  and  C_28
REMARK   12  A    between atoms: C_26  and  C_29
REMARK   13  A    between atoms: C_33  and  N_34
REMARK   14  A    between atoms: C_37  and  O_38
REMARK                            x       y       z     vdW  Elec       q    Type
REMARK                         _______ _______ _______ _____ _____    ______ ____
ROOT
ATOM      1  C   UNK A   0       4.125  -2.679   1.444  0.00  0.00    +0.000 C 
ENDROOT
BRANCH   1   9
ATOM      2  CA  LEU A   2       4.641  -1.152  -0.757  0.00  0.00    +0.000 C 
ATOM      3  C   LEU A   2       5.056  -1.845  -2.097  0.00  0.00    +0.000 C 
ATOM      4  O   LEU A   2       4.422  -1.831  -3.140  0.00  0.00    +0.000 OA
ATOM      5  N   UNK A   1       6.282  -2.440  -2.048  0.00  0.00    +0.000 N 
ATOM      6  C   UNK A   1       7.148  -2.204  -0.920  0.00  0.00    +0.000 C 
ATOM      7  C   UNK A   1       6.395  -2.534   0.358  0.00  0.00    +0.000 C 
ATOM      8  O   UNK A   1       7.005  -3.051   1.256  0.00  0.00    +0.000 OA
ATOM      9  N   LEU A   2       5.051  -2.107   0.373  0.00  0.00    +0.000 N 
ATOM     10  H   UNK A   1       6.616  -2.819  -2.927  0.00  0.00    +0.000 HD
BRANCH   6  11
ATOM     11  C   UNK A   1       8.453  -3.014  -0.917  0.00  0.00    +0.000 C 
ATOM     12  C   UNK A   1       9.205  -2.716  -2.213  0.00  0.00    +0.000 C 
ATOM     13  C   UNK A   1       8.870  -3.922  -3.034  0.00  0.00    +0.000 A 
ATOM     14  C   UNK A   1       8.966  -4.054  -4.404  0.00  0.00    +0.000 A 
ATOM     15  C   UNK A   1       8.623  -5.280  -4.976  0.00  0.00    +0.000 A 
ATOM     16  C   UNK A   1       8.202  -6.354  -4.176  0.00  0.00    +0.000 A 
ATOM     17  C   UNK A   1       8.086  -6.206  -2.794  0.00  0.00    +0.000 A 
ATOM     18  C   UNK A   1       8.398  -4.974  -2.243  0.00  0.00    +0.000 A 
ATOM     19  C   UNK A   1       8.332  -4.563  -0.810  0.00  0.00    +0.000 C 
ENDBRANCH   6  11
BRANCH   2  20
ATOM     20  CB  LEU A   2       3.163  -0.875  -0.922  0.00  0.00    +0.000 C 
BRANCH  20  22
ATOM     21  CD1 LEU A   2       0.935   0.125  -0.006  0.00  0.00    +0.000 C 
ATOM     22  CG  LEU A   2       2.475   0.149   0.017  0.00  0.00    +0.000 C 
ATOM     23  CD2 LEU A   2       2.870   0.144   1.484  0.00  0.00    +0.000 C 
ENDBRANCH  20  22
ENDBRANCH   2  20
ENDBRANCH   1   9
BRANCH   1  24
ATOM     24  C   UNK A   0       4.806  -3.290   2.697  0.00  0.00    +0.000 A 
ATOM     25  C   UNK A   0       4.454  -4.548   3.184  0.00  0.00    +0.000 A 
ATOM     26  C   UNK A   0       4.983  -5.081   4.335  0.00  0.00    +0.000 A 
ATOM     27  C   UNK A   0       6.042  -4.461   4.957  0.00  0.00    +0.000 A 
ATOM     28  C   UNK A   0       6.433  -3.200   4.504  0.00  0.00    +0.000 A 
ATOM     29  C   UNK A   0       5.776  -2.584   3.435  0.00  0.00    +0.000 A 
BRANCH  27  30
ATOM     30  N   UNK A   0       6.696  -5.094   5.979  0.00  0.00    +0.000 N 
ATOM     31  C   UNK A   0       6.740  -4.465   7.276  0.00  0.00    +0.000 C 
ATOM     32  C   UNK A   0       6.031  -5.370   8.277  0.00  0.00    +0.000 C 
ATOM     33  C   UNK A   0       6.581  -6.797   8.229  0.00  0.00    +0.000 C 
ATOM     34  C   UNK A   0       6.572  -7.383   6.815  0.00  0.00    +0.000 C 
ATOM     35  C   UNK A   0       7.225  -6.439   5.813  0.00  0.00    +0.000 C 
BRANCH  33  36
ATOM     36  O   UNK A   0       7.903  -6.831   8.771  0.00  0.00    +0.000 OA
ATOM     37  H   UNK A   0       8.483  -6.298   8.201  0.00  0.00    +0.000 HD
ENDBRANCH  33  36
ENDBRANCH  27  30
ENDBRANCH   1  24
BRANCH   1  38
ATOM     38  C   UNK A   0       2.837  -3.541   0.973  0.00  0.00    +0.000 C 
ATOM     39  O   UNK A   0       2.655  -4.717   1.267  0.00  0.00    +0.000 OA
ATOM     40  N   UNK A   0       1.833  -2.994   0.221  0.00  0.00    +0.000 N 
ATOM     41  H   UNK A   0       1.654  -2.019   0.264  0.00  0.00    +0.000 HD
BRANCH  40  42
ATOM     42  C   UNK A   0       0.808  -3.754  -0.486  0.00  0.00    +0.000 C 
ATOM     43  C   UNK A   0       1.449  -4.938  -1.230  0.00  0.00    +0.000 C 
ATOM     44  C   UNK A   0      -0.206  -4.122   0.587  0.00  0.00    +0.000 C 
ATOM     45  C   UNK A   0       0.124  -2.888  -1.574  0.00  0.00    +0.000 C 
ENDBRANCH  40  42
ENDBRANCH   1  38
TORSDOF 9
