REMARK  Name = CHEMBL511265
REMARK  9 active torsions:
REMARK  status: ('A' for Active; 'I' for Inactive)
REMARK    1  A    between atoms: C_1  and  O_2
REMARK    2  A    between atoms: O_2  and  C_3
REMARK    3  A    between atoms: C_3  and  C_4
REMARK    4  A    between atoms: C_7  and  C_8
REMARK    5  A    between atoms: C_11  and  C_12
REMARK    6  A    between atoms: C_17  and  C_18
REMARK    7  A    between atoms: N_22  and  C_23
REMARK    8  A    between atoms: C_26  and  O_27
REMARK    9  A    between atoms: O_27  and  C_28
REMARK                            x       y       z     vdW  Elec       q    Type
REMARK                         _______ _______ _______ _____ _____    ______ ____
ROOT
ATOM      1  C   UNL     1       4.463  -0.838  -0.923  0.00  0.00    +0.000 A 
ATOM      2  N   UNL     1       5.325   0.163  -0.962  0.00  0.00    +0.000 NA
ATOM      3  N   UNL     1       6.609  -0.360  -0.926  0.00  0.00    +0.000 NA
ATOM      4  C   UNL     1       6.528  -1.680  -0.889  0.00  0.00    +0.000 A 
ATOM      5  N   UNL     1       5.184  -2.014  -0.863  0.00  0.00    +0.000 N 
ENDROOT
BRANCH   4   6
ATOM      6  C   UNL     1       7.609  -2.670  -1.000  0.00  0.00    +0.000 A 
ATOM      7  C   UNL     1       7.671  -3.583  -2.055  0.00  0.00    +0.000 A 
ATOM      8  N   UNL     1       8.563  -4.611  -2.120  0.00  0.00    +0.000 NA
ATOM      9  C   UNL     1       9.414  -4.724  -1.071  0.00  0.00    +0.000 A 
ATOM     10  C   UNL     1       9.350  -3.809  -0.017  0.00  0.00    +0.000 A 
ATOM     11  N   UNL     1       8.456  -2.777   0.049  0.00  0.00    +0.000 NA
BRANCH   9  12
ATOM     12  C   UNL     1      10.387  -5.830  -1.114  0.00  0.00    +0.000 A 
ATOM     13  C   UNL     1      10.447  -6.793  -0.090  0.00  0.00    +0.000 A 
ATOM     14  C   UNL     1      11.381  -7.834  -0.133  0.00  0.00    +0.000 A 
ATOM     15  C   UNL     1      12.273  -7.920  -1.195  0.00  0.00    +0.000 A 
ATOM     16  F   UNL     1      13.162  -8.924  -1.211  0.00  0.00    +0.000 F 
ATOM     17  C   UNL     1      12.253  -6.985  -2.228  0.00  0.00    +0.000 A 
ATOM     18  C   UNL     1      13.234  -7.070  -3.359  0.00  0.00    +0.000 C 
ATOM     19  C   UNL     1      11.300  -5.949  -2.183  0.00  0.00    +0.000 A 
ENDBRANCH   9  12
ENDBRANCH   4   6
BRANCH   5  20
ATOM     20  C   UNL     1       4.675  -3.318  -0.877  0.00  0.00    +0.000 A 
ATOM     21  C   UNL     1       3.882  -3.750  -1.932  0.00  0.00    +0.000 A 
ATOM     22  C   UNL     1       3.472  -5.076  -1.937  0.00  0.00    +0.000 A 
ATOM     23  C   UNL     1       3.863  -5.911  -0.894  0.00  0.00    +0.000 A 
ATOM     24  N   UNL     1       4.638  -5.487   0.129  0.00  0.00    +0.000 NA
ATOM     25  C   UNL     1       5.042  -4.203   0.122  0.00  0.00    +0.000 A 
BRANCH  23  26
ATOM     26  O   UNL     1       3.522  -7.229  -0.786  0.00  0.00    +0.000 OA
ATOM     27  C   UNL     1       2.722  -7.757  -1.832  0.00  0.00    +0.000 C 
ENDBRANCH  23  26
ENDBRANCH   5  20
BRANCH   1  28
ATOM     28  C   UNL     1       2.963  -0.792  -0.961  0.00  0.00    +0.000 C 
BRANCH  28  30
ATOM     29  C   UNL     1       1.027   0.070   0.056  0.00  0.00    +0.000 C 
ATOM     30  O   UNL     1       2.456   0.085   0.046  0.00  0.00    +0.000 OA
ENDBRANCH  28  30
ENDBRANCH   1  28
TORSDOF 6
