REMARK  Name = CHEMBL3416757
REMARK  6 active torsions:
REMARK  status: ('A' for Active; 'I' for Inactive)
REMARK    1  A    between atoms: C_1  and  C_2
REMARK    2  A    between atoms: N_5  and  C_6
REMARK    3  A    between atoms: C_6  and  C_7
REMARK    4  A    between atoms: C_10  and  C_11
REMARK    5  A    between atoms: N_18  and  C_19
REMARK    6  A    between atoms: C_29  and  C_30
REMARK                            x       y       z     vdW  Elec       q    Type
REMARK                         _______ _______ _______ _____ _____    ______ ____
ROOT
ATOM      1  C   UNL     1       5.515  -4.917  -4.625  0.00  0.00    +0.000 C 
ATOM      2  O   UNL     1       6.210  -5.936  -4.763  0.00  0.00    +0.000 OA
ATOM      3  N   UNL     1       4.770  -4.332  -5.684  0.00  0.00    +0.000 N 
ATOM      4  C   UNL     1       4.549  -5.283  -6.832  0.00  0.00    +0.000 C 
ATOM      5  C   UNL     1       3.435  -4.901  -7.736  0.00  0.00    +0.000 A 
ATOM      6  C   UNL     1       2.475  -5.709  -8.390  0.00  0.00    +0.000 A 
ATOM      7  N   UNL     1       1.610  -4.992  -9.116  0.00  0.00    +0.000 NA
ATOM      8  N   UNL     1       2.047  -3.724  -8.962  0.00  0.00    +0.000 N 
ATOM      9  C   UNL     1       1.324  -2.626  -9.553  0.00  0.00    +0.000 C 
ATOM     10  C   UNL     1       3.220  -3.646  -8.258  0.00  0.00    +0.000 A 
ATOM     11  N   UNL     1       3.990  -2.522  -8.151  0.00  0.00    +0.000 N 
ATOM     12  C   UNL     1       5.156  -2.602  -7.339  0.00  0.00    +0.000 A 
ATOM     13  C   UNL     1       6.359  -3.149  -7.802  0.00  0.00    +0.000 A 
ATOM     14  C   UNL     1       7.398  -3.450  -6.881  0.00  0.00    +0.000 A 
ATOM     15  C   UNL     1       7.358  -2.870  -5.625  0.00  0.00    +0.000 A 
ATOM     16  C   UNL     1       6.165  -2.262  -5.318  0.00  0.00    +0.000 A 
ATOM     17  C   UNL     1       5.063  -2.815  -5.989  0.00  0.00    +0.000 A 
ATOM     18  H   UNL     1       3.456  -1.682  -7.920  0.00  0.00    +0.000 HD
ENDROOT
BRANCH   1  22
ATOM     19  C   UNL     1       5.634  -2.370  -1.170  0.00  0.00    +0.000 A 
ATOM     20  C   UNL     1       6.646  -3.350  -1.373  0.00  0.00    +0.000 A 
ATOM     21  C   UNL     1       6.605  -4.239  -2.460  0.00  0.00    +0.000 A 
ATOM     22  C   UNL     1       5.516  -4.201  -3.326  0.00  0.00    +0.000 A 
ATOM     23  C   UNL     1       4.503  -3.278  -3.110  0.00  0.00    +0.000 A 
ATOM     24  C   UNL     1       4.610  -2.300  -2.130  0.00  0.00    +0.000 A 
ATOM     25  C   UNL     1       3.540  -1.268  -2.225  0.00  0.00    +0.000 C 
BRANCH  19  26
ATOM     26  C   UNL     1       5.715  -1.507   0.093  0.00  0.00    +0.000 C 
BRANCH  26  31
ATOM     27  C   UNL     1       1.144   0.065   0.128  0.00  0.00    +0.000 C 
ATOM     28  C   UNL     1       2.620   0.161   0.332  0.00  0.00    +0.000 A 
ATOM     29  C   UNL     1       3.434   1.298   0.128  0.00  0.00    +0.000 A 
ATOM     30  C   UNL     1       4.728   0.830   0.167  0.00  0.00    +0.000 A 
ATOM     31  N   UNL     1       4.637  -0.530   0.327  0.00  0.00    +0.000 N 
ATOM     32  N   UNL     1       3.368  -0.918   0.633  0.00  0.00    +0.000 NA
ENDBRANCH  26  31
ENDBRANCH  19  26
ENDBRANCH   1  22
TORSDOF 3
