REMARK  Name = CHEMBL1790713
REMARK  27 active torsions:
REMARK  status: ('A' for Active; 'I' for Inactive)
REMARK    1  A    between atoms: C_1  and  C_2
REMARK    2  A    between atoms: C_2  and  C_3
REMARK    3  A    between atoms: C_3  and  C_4
REMARK    4  A    between atoms: C_3  and  C_5
REMARK    5  A    between atoms: C_9  and  C_10
REMARK    6  A    between atoms: C_9  and  C_11
REMARK    7  A    between atoms: C_14  and  O_15
REMARK    8  A    between atoms: C_31  and  C_32
REMARK    9  A    between atoms: C_38  and  C_39
REMARK   10  A    between atoms: N_41  and  C_42
REMARK   11  A    between atoms: C_42  and  C_43
REMARK   12  A    between atoms: C_42  and  C_74
REMARK   13  A    between atoms: C_43  and  C_44
REMARK   14  A    between atoms: C_44  and  C_45
REMARK   15  A    between atoms: C_45  and  N_46
REMARK   16  A    between atoms: C_47  and  C_49
REMARK   17  A    between atoms: C_62  and  O_63
REMARK   18  A    between atoms: C_69  and  O_70
REMARK   19  A    between atoms: N_76  and  C_77
REMARK   20  A    between atoms: C_77  and  C_78
REMARK   21  A    between atoms: C_77  and  C_81
REMARK   22  A    between atoms: C_84  and  O_85
REMARK   23  A    between atoms: C_91  and  C_92
REMARK   24  A    between atoms: C_92  and  C_93
REMARK   25  A    between atoms: C_99  and  C_100
REMARK   26  A    between atoms: C_100  and  C_101
REMARK   27  A    between atoms: C_100  and  O_102
REMARK                            x       y       z     vdW  Elec       q    Type
REMARK                         _______ _______ _______ _____ _____    ______ ____
ROOT
ATOM      1  C   UNL     1      -6.216 -10.561  -3.545  0.00  0.00    +0.000 C 
ATOM      2  O   UNL     1      -7.331 -11.101  -3.741  0.00  0.00    +0.000 OA
ATOM      3  N   UNL     1      -5.589  -9.980  -4.614  0.00  0.00    +0.000 N 
ATOM      4  C   UNL     1      -4.185  -9.848  -4.984  0.00  0.00    +0.000 C 
ATOM      5  C   UNL     1      -4.110  -8.397  -5.333  0.00  0.00    +0.000 C 
ATOM      6  C   UNL     1      -5.412  -8.191  -6.093  0.00  0.00    +0.000 C 
ATOM      7  C   UNL     1      -6.421  -9.168  -5.460  0.00  0.00    +0.000 C 
ENDROOT
BRANCH   1  27
ATOM      8  C   UNL     1      -3.742 -16.581  -5.038  0.00  0.00    +0.000 C 
ATOM      9  N   UNL     1      -4.998 -16.607  -3.101  0.00  0.00    +0.000 N 
ATOM     10  C   UNL     1      -7.048 -17.534  -2.662  0.00  0.00    +0.000 C 
ATOM     11  O   UNL     1      -8.230 -18.219  -2.202  0.00  0.00    +0.000 OA
ATOM     12  C   UNL     1      -7.481 -18.649  -3.470  0.00  0.00    +0.000 C 
ATOM     13  C   UNL     1      -8.588 -19.336  -4.104  0.00  0.00    +0.000 C 
ATOM     14  N   UNL     1      -6.445 -19.410  -2.538  0.00  0.00    +0.000 N 
ATOM     15  C   UNL     1      -5.420 -18.960  -1.614  0.00  0.00    +0.000 C 
ATOM     16  O   UNL     1      -4.485 -19.695  -1.342  0.00  0.00    +0.000 OA
ATOM     17  C   UNL     1      -5.262 -17.662  -0.840  0.00  0.00    +0.000 C 
ATOM     18  C   UNL     1      -6.144 -16.870  -1.517  0.00  0.00    +0.000 C 
ATOM     19  C   UNL     1      -7.795 -17.263  -0.718  0.00  0.00    +0.000 C 
ATOM     20  C   UNL     1      -9.380 -16.636  -1.585  0.00  0.00    +0.000 C 
ATOM     21  C   UNL     1      -9.441 -16.508  -3.064  0.00  0.00    +0.000 C 
ATOM     22  C   UNL     1      -8.065 -15.974  -3.316  0.00  0.00    +0.000 C 
ATOM     23  C   UNL     1      -6.173 -17.199  -3.841  0.00  0.00    +0.000 C 
ATOM     24  S   UNL     1      -7.056 -15.393  -0.502  0.00  0.00    +0.000 S 
ATOM     25  S   UNL     1      -5.692 -14.277  -1.045  0.00  0.00    +0.000 S 
ATOM     26  C   UNL     1      -5.873 -11.540  -1.018  0.00  0.00    +0.000 C 
ATOM     27  C   UNL     1      -5.259 -10.796  -2.238  0.00  0.00    +0.000 C 
ATOM     28  N   UNL     1      -3.887 -11.209  -2.513  0.00  0.00    +0.000 N 
ATOM     29  C   UNL     1      -3.527 -12.152  -3.490  0.00  0.00    +0.000 C 
ATOM     30  O   UNL     1      -2.316 -12.344  -3.824  0.00  0.00    +0.000 OA
ATOM     31  C   UNL     1      -4.571 -13.248  -3.519  0.00  0.00    +0.000 C 
ATOM     32  N   UNL     1      -4.298 -13.453  -4.926  0.00  0.00    +0.000 N 
ATOM     33  C   UNL     1      -3.286 -14.105  -5.443  0.00  0.00    +0.000 C 
ATOM     34  O   UNL     1      -3.423 -14.270  -6.667  0.00  0.00    +0.000 OA
ATOM     35  C   UNL     1      -2.160 -14.761  -4.375  0.00  0.00    +0.000 C 
ATOM     36  N   UNL     1      -1.662 -16.208  -4.378  0.00  0.00    +0.000 N 
ATOM     37  C   UNL     1      -2.163 -17.132  -5.213  0.00  0.00    +0.000 C 
ATOM     38  O   UNL     1      -1.516 -18.067  -5.669  0.00  0.00    +0.000 OA
ATOM     39  H   UNL     1      -6.330 -16.051  -2.642  0.00  0.00    +0.000 HD
ATOM     40  H   UNL     1      -6.346 -20.261  -3.023  0.00  0.00    +0.000 HD
ATOM     41  H   UNL     1      -3.190 -10.668  -2.042  0.00  0.00    +0.000 HD
ATOM     42  H   UNL     1      -5.078 -13.500  -5.543  0.00  0.00    +0.000 HD
ATOM     43  H   UNL     1      -2.012 -16.789  -3.618  0.00  0.00    +0.000 HD
BRANCH  12  44
ATOM     44  C   UNL     1      -7.644 -17.167  -4.578  0.00  0.00    +0.000 A 
ATOM     45  C   UNL     1      -6.598 -15.555  -4.167  0.00  0.00    +0.000 A 
ATOM     46  C   UNL     1      -6.130 -14.844  -4.954  0.00  0.00    +0.000 A 
ATOM     47  C   UNL     1      -6.880 -14.977  -5.922  0.00  0.00    +0.000 A 
ATOM     48  C   UNL     1      -7.586 -16.140  -6.226  0.00  0.00    +0.000 A 
ATOM     49  C   UNL     1      -7.804 -17.356  -5.740  0.00  0.00    +0.000 A 
BRANCH  47  50
ATOM     50  O   UNL     1      -6.935 -13.885  -6.629  0.00  0.00    +0.000 OA
ATOM     51  H   UNL     1      -6.346 -13.185  -6.325  0.00  0.00    +0.000 HD
ENDBRANCH  47  50
ENDBRANCH  12  44
BRANCH  35  52
ATOM     52  C   UNL     1      -2.490 -14.601  -2.873  0.00  0.00    +0.000 C 
ATOM     53  C   UNL     1      -1.359 -14.871  -2.023  0.00  0.00    +0.000 C 
BRANCH  52  54
ATOM     54  O   UNL     1      -2.799 -13.453  -2.075  0.00  0.00    +0.000 OA
ATOM     55  H   UNL     1      -2.231 -12.685  -2.416  0.00  0.00    +0.000 HD
ENDBRANCH  52  54
ENDBRANCH  35  52
BRANCH   8  56
ATOM     56  C   UNL     1      -2.206 -16.497  -6.822  0.00  0.00    +0.000 C 
ATOM     57  C   UNL     1      -0.277 -17.087  -7.479  0.00  0.00    +0.000 C 
BRANCH  56  59
ATOM     58  C   UNL     1      -2.316 -18.063  -8.957  0.00  0.00    +0.000 C 
ATOM     59  C   UNL     1      -1.979 -16.650  -8.853  0.00  0.00    +0.000 C 
ENDBRANCH  56  59
ENDBRANCH   8  56
BRANCH  31  60
ATOM     60  C   UNL     1      -6.077 -12.914  -3.144  0.00  0.00    +0.000 C 
BRANCH  60  61
ATOM     61  C   UNL     1      -6.656 -12.796  -1.688  0.00  0.00    +0.000 C 
ATOM     62  N   UNL     1      -4.875 -12.728  -0.621  0.00  0.00    +0.000 N 
ATOM     63  O   UNL     1      -7.791 -12.670  -1.149  0.00  0.00    +0.000 OA
ATOM     64  H   UNL     1      -4.222 -13.421  -1.040  0.00  0.00    +0.000 HD
ATOM     65  H   UNL     1      -5.120 -13.033   0.373  0.00  0.00    +0.000 HD
ENDBRANCH  60  61
ENDBRANCH  31  60
ENDBRANCH   1  27
BRANCH   7  66
ATOM     66  C   UNL     1      -7.518  -8.420  -4.732  0.00  0.00    +0.000 C 
ATOM     67  O   UNL     1      -8.017  -8.789  -3.671  0.00  0.00    +0.000 OA
ATOM     68  N   UNL     1      -7.878  -7.285  -5.436  0.00  0.00    +0.000 N 
ATOM     69  H   UNL     1      -7.506  -7.095  -6.353  0.00  0.00    +0.000 HD
BRANCH  68  70
ATOM     70  C   UNL     1      -8.572  -6.215  -4.823  0.00  0.00    +0.000 C 
BRANCH  70  71
ATOM     71  C   UNL     1      -8.732  -4.963  -5.785  0.00  0.00    +0.000 C 
ATOM     72  O   UNL     1      -8.237  -5.027  -6.914  0.00  0.00    +0.000 OA
ATOM     73  N   UNL     1      -9.366  -3.801  -5.341  0.00  0.00    +0.000 N 
ATOM     74  H   UNL     1      -9.538  -3.055  -6.016  0.00  0.00    +0.000 HD
BRANCH  73  75
ATOM     75  C   UNL     1     -10.063  -3.624  -4.052  0.00  0.00    +0.000 C 
BRANCH  75  76
ATOM     76  C   UNL     1     -11.424  -4.249  -4.035  0.00  0.00    +0.000 A 
ATOM     77  C   UNL     1     -12.415  -3.752  -3.193  0.00  0.00    +0.000 A 
ATOM     78  C   UNL     1     -13.685  -4.325  -3.171  0.00  0.00    +0.000 A 
ATOM     79  C   UNL     1     -13.956  -5.408  -3.989  0.00  0.00    +0.000 A 
ATOM     80  C   UNL     1     -12.966  -5.937  -4.790  0.00  0.00    +0.000 A 
ATOM     81  C   UNL     1     -11.719  -5.359  -4.812  0.00  0.00    +0.000 A 
BRANCH  79  82
ATOM     82  O   UNL     1     -15.166  -6.022  -4.073  0.00  0.00    +0.000 OA
ATOM     83  H   UNL     1     -15.838  -5.621  -3.502  0.00  0.00    +0.000 HD
ENDBRANCH  79  82
ENDBRANCH  75  76
BRANCH  75  84
ATOM     84  C   UNL     1      -9.206  -4.005  -2.868  0.00  0.00    +0.000 C 
ATOM     85  N   UNL     1      -7.685  -3.751  -3.195  0.00  0.00    +0.000 N 
ATOM     86  O   UNL     1      -9.623  -4.701  -1.926  0.00  0.00    +0.000 OA
ATOM     87  H   UNL     1      -7.055  -4.424  -2.665  0.00  0.00    +0.000 HD
ATOM     88  H   UNL     1      -7.419  -3.879  -4.213  0.00  0.00    +0.000 HD
ENDBRANCH  75  84
ENDBRANCH  73  75
ENDBRANCH  70  71
BRANCH  70  89
ATOM     89  C   UNL     1      -7.690  -6.007  -3.668  0.00  0.00    +0.000 C 
BRANCH  89  90
ATOM     90  C   UNL     1      -7.582  -6.837  -2.460  0.00  0.00    +0.000 C 
BRANCH  90  91
ATOM     91  C   UNL     1      -6.874  -6.298  -1.250  0.00  0.00    +0.000 C 
BRANCH  91  92
ATOM     92  N   UNL     1      -6.674  -7.411  -0.271  0.00  0.00    +0.000 N 
ATOM     93  C   UNL     1      -6.010  -7.238   0.972  0.00  0.00    +0.000 C 
ATOM     94  O   UNL     1      -5.591  -6.077   1.173  0.00  0.00    +0.000 OA
ATOM     95  H   UNL     1      -7.097  -8.279  -0.549  0.00  0.00    +0.000 HD
BRANCH  93  96
ATOM     96  C   UNL     1      -5.863  -8.373   2.316  0.00  0.00    +0.000 A 
ATOM     97  C   UNL     1      -5.067  -7.977   3.231  0.00  0.00    +0.000 A 
ATOM     98  C   UNL     1      -4.473  -9.043   4.269  0.00  0.00    +0.000 A 
ATOM     99  C   UNL     1      -4.159  -8.757   5.391  0.00  0.00    +0.000 A 
ATOM    100  C   UNL     1      -5.077  -9.656   5.295  0.00  0.00    +0.000 A 
ATOM    101  C   UNL     1      -5.951  -9.491   3.382  0.00  0.00    +0.000 A 
ATOM    102  C   UNL     1      -4.010  -9.520   7.172  0.00  0.00    +0.000 C 
ATOM    103  O   UNL     1      -4.205  -8.112   7.333  0.00  0.00    +0.000 OA
ATOM    104  C   UNL     1      -3.912  -7.640   6.125  0.00  0.00    +0.000 C 
ATOM    105  O   UNL     1      -3.891  -6.656   5.414  0.00  0.00    +0.000 OA
ATOM    106  C   UNL     1      -3.536 -10.997   8.190  0.00  0.00    +0.000 A 
ATOM    107  C   UNL     1      -4.465 -12.010   8.146  0.00  0.00    +0.000 A 
ATOM    108  C   UNL     1      -4.413 -13.196   8.914  0.00  0.00    +0.000 A 
ATOM    109  C   UNL     1      -3.396 -13.409   9.832  0.00  0.00    +0.000 A 
ATOM    110  C   UNL     1      -2.436 -12.427  10.018  0.00  0.00    +0.000 A 
ATOM    111  C   UNL     1      -2.480 -11.247   9.218  0.00  0.00    +0.000 A 
ATOM    112  O   UNL     1      -1.450 -10.383   9.482  0.00  0.00    +0.000 OA
ATOM    113  C   UNL     1      -1.934  -9.098   9.547  0.00  0.00    +0.000 A 
ATOM    114  C   UNL     1      -0.827  -8.153  10.117  0.00  0.00    +0.000 A 
ATOM    115  C   UNL     1      -1.042  -6.843  10.517  0.00  0.00    +0.000 A 
ATOM    116  C   UNL     1      -2.373  -6.548  10.700  0.00  0.00    +0.000 A 
ATOM    117  C   UNL     1      -3.497  -7.523  10.105  0.00  0.00    +0.000 A 
ATOM    118  C   UNL     1      -3.351  -8.794   8.998  0.00  0.00    +0.000 A 
BRANCH 115 119
ATOM    119  O   UNL     1      -0.062  -5.907  10.711  0.00  0.00    +0.000 OA
ATOM    120  H   UNL     1       0.848  -6.212  10.523  0.00  0.00    +0.000 HD
ENDBRANCH 115 119
BRANCH 109 121
ATOM    121  O   UNL     1      -3.274 -14.548  10.574  0.00  0.00    +0.000 OA
ATOM    122  H   UNL     1      -3.961 -15.210  10.394  0.00  0.00    +0.000 HD
ENDBRANCH 109 121
ENDBRANCH  93  96
ENDBRANCH  91  92
ENDBRANCH  90  91
ENDBRANCH  89  90
ENDBRANCH  70  89
ENDBRANCH  68  70
ENDBRANCH   7  66
TORSDOF 23
