REMARK  Name = CHEMBL2113213
REMARK  10 active torsions:
REMARK  status: ('A' for Active; 'I' for Inactive)
REMARK    1  A    between atoms: C_1  and  C_2
REMARK    2  A    between atoms: C_2  and  C_3
REMARK    3  A    between atoms: C_2  and  C_4
REMARK    4  A    between atoms: C_2  and  C_5
REMARK    5  A    between atoms: C_8  and  S_9
REMARK    6  A    between atoms: S_9  and  N_12
REMARK    7  A    between atoms: N_12  and  C_13
REMARK    8  A    between atoms: N_12  and  C_28
REMARK    9  A    between atoms: C_13  and  C_14
REMARK   10  A    between atoms: N_16  and  N_17
REMARK                            x       y       z     vdW  Elec       q    Type
REMARK                         _______ _______ _______ _____ _____    ______ ____
ROOT
ATOM      1  N   UNL     1       3.745   4.426  -4.741  0.00  0.00    +0.000 N 
ENDROOT
BRANCH   1   2
ATOM      2  C   UNL     1       3.868   5.237  -6.049  0.00  0.00    +0.000 A 
ATOM      3  C   UNL     1       4.268   6.586  -6.021  0.00  0.00    +0.000 A 
ATOM      4  C   UNL     1       4.345   7.393  -7.192  0.00  0.00    +0.000 A 
ATOM      5  C   UNL     1       4.094   6.849  -8.447  0.00  0.00    +0.000 A 
ATOM      6 CL   UNL     1       4.314   7.798  -9.871  0.00  0.00    +0.000 Cl
ATOM      7  C   UNL     1       3.695   5.523  -8.531  0.00  0.00    +0.000 A 
ATOM      8  C   UNL     1       3.570   4.736  -7.347  0.00  0.00    +0.000 A 
ENDBRANCH   1   2
BRANCH   1   9
ATOM      9  S   UNL     1       4.391   2.784  -4.876  0.00  0.00    +0.000 S 
ATOM     10  O   UNL     1       5.814   2.937  -5.123  0.00  0.00    +0.000 OA
ATOM     11  O   UNL     1       3.579   2.091  -5.863  0.00  0.00    +0.000 OA
BRANCH   9  15
ATOM     12  C   UNL     1       3.218   0.121  -1.437  0.00  0.00    +0.000 A 
ATOM     13  C   UNL     1       3.953  -0.461  -2.441  0.00  0.00    +0.000 A 
ATOM     14  C   UNL     1       4.417   0.352  -3.499  0.00  0.00    +0.000 A 
ATOM     15  C   UNL     1       4.314   1.752  -3.425  0.00  0.00    +0.000 A 
ATOM     16  C   UNL     1       3.967   2.254  -2.224  0.00  0.00    +0.000 A 
ATOM     17  C   UNL     1       3.075   1.469  -1.533  0.00  0.00    +0.000 A 
BRANCH  12  19
ATOM     18  C   UNL     1       1.112  -0.483  -0.292  0.00  0.00    +0.000 C 
ATOM     19  C   UNL     1       2.661  -0.465  -0.163  0.00  0.00    +0.000 C 
ATOM     20  C   UNL     1       3.366   0.296   1.019  0.00  0.00    +0.000 C 
ATOM     21  C   UNL     1       3.110  -1.886   0.062  0.00  0.00    +0.000 C 
ENDBRANCH  12  19
ENDBRANCH   9  15
ENDBRANCH   1   9
BRANCH   1  22
ATOM     22  C   UNL     1       2.840   5.027  -3.544  0.00  0.00    +0.000 C 
BRANCH  22  23
ATOM     23  C   UNL     1       2.068   4.057  -2.377  0.00  0.00    +0.000 C 
ATOM     24  O   UNL     1       1.462   3.106  -2.898  0.00  0.00    +0.000 OA
ATOM     25  N   UNL     1       2.154   4.302  -0.755  0.00  0.00    +0.000 N 
ATOM     26  H   UNL     1       1.741   5.189  -0.484  0.00  0.00    +0.000 HD
BRANCH  25  27
ATOM     27  N   UNL     1       2.111   3.092   0.494  0.00  0.00    +0.000 NA
ATOM     28  C   UNL     1       1.854   2.902   1.877  0.00  0.00    +0.000 C 
ATOM     29  C   UNL     1       0.464   2.216   1.739  0.00  0.00    +0.000 C 
ATOM     30  O   UNL     1       0.371   1.081   1.402  0.00  0.00    +0.000 OA
ATOM     31  N   UNL     1      -0.217   2.721   2.820  0.00  0.00    +0.000 N 
ATOM     32  C   UNL     1       0.407   1.954   3.776  0.00  0.00    +0.000 A 
ATOM     33  C   UNL     1      -0.551   1.369   4.685  0.00  0.00    +0.000 A 
ATOM     34  C   UNL     1      -0.273   0.407   5.601  0.00  0.00    +0.000 A 
ATOM     35  C   UNL     1       1.041   0.023   5.486  0.00  0.00    +0.000 A 
ATOM     36  C   UNL     1       2.057   0.683   4.424  0.00  0.00    +0.000 A 
ATOM     37  C   UNL     1       1.750   1.739   3.409  0.00  0.00    +0.000 A 
ATOM     38  H   UNL     1       0.026   3.674   3.028  0.00  0.00    +0.000 HD
ENDBRANCH  25  27
ENDBRANCH  22  23
ENDBRANCH   1  22
TORSDOF 7
