REMARK  Name = CHEMBL285312
REMARK  12 active torsions:
REMARK  status: ('A' for Active; 'I' for Inactive)
REMARK    1  A    between atoms: C_1  and  C_2
REMARK    2  A    between atoms: C_2  and  C_4
REMARK    3  A    between atoms: C_4  and  C_5
REMARK    4  A    between atoms: C_5  and  C_6
REMARK    5  A    between atoms: C_6  and  C_7
REMARK    6  A    between atoms: N_9  and  C_10
REMARK    7  A    between atoms: C_12  and  C_13
REMARK    8  A    between atoms: N_25  and  C_26
REMARK    9  A    between atoms: C_26  and  C_27
REMARK   10  A    between atoms: N_29  and  C_30
REMARK   11  A    between atoms: C_30  and  C_31
REMARK   12  A    between atoms: C_31  and  C_32
REMARK                            x       y       z     vdW  Elec       q    Type
REMARK                         _______ _______ _______ _____ _____    ______ ____
ROOT
ATOM      1  C   UNL     1       9.365   2.625   1.285  0.00  0.00    +0.000 C 
ATOM      2  N   UNL     1       9.731   1.490   2.128  0.00  0.00    +0.000 NA
ATOM      3  C   UNL     1      10.924   1.004   2.043  0.00  0.00    +0.000 C 
ATOM      4  C   UNL     1      12.020   1.559   1.188  0.00  0.00    +0.000 A 
ATOM      5  C   UNL     1      12.949   0.657   0.635  0.00  0.00    +0.000 A 
ATOM      6  C   UNL     1      14.055   1.115  -0.081  0.00  0.00    +0.000 A 
ATOM      7  C   UNL     1      14.204   2.472  -0.322  0.00  0.00    +0.000 A 
ATOM      8  C   UNL     1      13.248   3.367   0.154  0.00  0.00    +0.000 A 
ATOM      9  C   UNL     1      12.204   2.941   0.996  0.00  0.00    +0.000 A 
ATOM     10  N   UNL     1      11.474   3.933   1.724  0.00  0.00    +0.000 N 
ATOM     11  C   UNL     1      10.083   3.888   1.848  0.00  0.00    +0.000 C 
ATOM     12  O   UNL     1       9.446   4.830   2.341  0.00  0.00    +0.000 OA
ENDROOT
BRANCH   3  13
ATOM     13  C   UNL     1      11.234  -0.190   2.887  0.00  0.00    +0.000 A 
ATOM     14  C   UNL     1      10.505  -1.377   2.745  0.00  0.00    +0.000 A 
ATOM     15  C   UNL     1      10.749  -2.444   3.617  0.00  0.00    +0.000 A 
ATOM     16  C   UNL     1      11.774  -2.356   4.562  0.00  0.00    +0.000 A 
ATOM     17  C   UNL     1      12.563  -1.208   4.631  0.00  0.00    +0.000 A 
ATOM     18  C   UNL     1      12.263  -0.106   3.829  0.00  0.00    +0.000 A 
ENDBRANCH   3  13
BRANCH   1  21
ATOM     19  C   UNL     1       7.066   1.849   0.872  0.00  0.00    +0.000 C 
ATOM     20  O   UNL     1       7.469   0.811   0.322  0.00  0.00    +0.000 OA
ATOM     21  N   UNL     1       7.922   2.799   1.357  0.00  0.00    +0.000 N 
ATOM     22  H   UNL     1       7.587   3.673   1.747  0.00  0.00    +0.000 HD
BRANCH  19  23
ATOM     23  C   UNL     1       5.580   2.151   1.024  0.00  0.00    +0.000 C 
BRANCH  23  24
ATOM     24  C   UNL     1       4.750   0.966   0.517  0.00  0.00    +0.000 C 
BRANCH  24  25
ATOM     25  C   UNL     1       3.240   1.170   0.605  0.00  0.00    +0.000 C 
BRANCH  25  27
ATOM     26  C   UNL     1       0.990   0.002   0.103  0.00  0.00    +0.000 C 
ATOM     27  C   UNL     1       2.493  -0.051   0.080  0.00  0.00    +0.000 C 
ATOM     28  O   UNL     1       3.071  -1.050  -0.352  0.00  0.00    +0.000 OA
ENDBRANCH  25  27
ENDBRANCH  24  25
ENDBRANCH  23  24
ENDBRANCH  19  23
ENDBRANCH   1  21
BRANCH  10  29
ATOM     29  C   UNL     1      12.196   5.068   2.362  0.00  0.00    +0.000 C 
BRANCH  29  30
ATOM     30  C   UNL     1      13.725   4.978   2.526  0.00  0.00    +0.000 C 
ATOM     31  O   UNL     1      14.346   3.881   2.507  0.00  0.00    +0.000 OA
ATOM     32  N   UNL     1      14.449   6.126   2.715  0.00  0.00    +0.000 N 
ATOM     33  H   UNL     1      14.014   6.924   3.175  0.00  0.00    +0.000 HD
BRANCH  32  34
ATOM     34  C   UNL     1      15.899   5.989   2.656  0.00  0.00    +0.000 C 
BRANCH  34  35
ATOM     35  C   UNL     1      16.684   7.111   3.286  0.00  0.00    +0.000 C 
BRANCH  35  36
ATOM     36  C   UNL     1      18.195   7.000   3.110  0.00  0.00    +0.000 A 
ATOM     37  C   UNL     1      18.850   8.228   3.036  0.00  0.00    +0.000 A 
ATOM     38  C   UNL     1      20.229   8.278   3.060  0.00  0.00    +0.000 A 
ATOM     39  C   UNL     1      20.990   7.128   3.069  0.00  0.00    +0.000 A 
ATOM     40  C   UNL     1      22.381   7.151   3.207  0.00  0.00    +0.000 A 
ATOM     41  C   UNL     1      22.899   7.463   2.009  0.00  0.00    +0.000 A 
ATOM     42  C   UNL     1      22.638   6.340   1.240  0.00  0.00    +0.000 A 
ATOM     43  C   UNL     1      21.499   5.462   1.657  0.00  0.00    +0.000 A 
ATOM     44  C   UNL     1      20.429   6.011   2.519  0.00  0.00    +0.000 A 
ATOM     45  C   UNL     1      19.003   5.837   2.935  0.00  0.00    +0.000 A 
ENDBRANCH  35  36
ENDBRANCH  34  35
ENDBRANCH  32  34
ENDBRANCH  29  30
ENDBRANCH  10  29
TORSDOF 11
