REMARK  Name = CHEMBL69201
REMARK  7 active torsions:
REMARK  status: ('A' for Active; 'I' for Inactive)
REMARK    1  A    between atoms: C_1  and  O_2
REMARK    2  A    between atoms: O_2  and  C_3
REMARK    3  A    between atoms: C_5  and  O_6
REMARK    4  A    between atoms: O_6  and  C_7
REMARK    5  A    between atoms: N_10  and  C_11
REMARK    6  A    between atoms: C_26  and  C_27
REMARK    7  A    between atoms: C_32  and  N_33
REMARK                            x       y       z     vdW  Elec       q    Type
REMARK                         _______ _______ _______ _____ _____    ______ ____
ROOT
ATOM      1  C   UNL     1       3.078  -0.066   0.750  0.00  0.00    +0.000 A 
ATOM      2  C   UNL     1       4.348   0.655   1.113  0.00  0.00    +0.000 A 
ATOM      3  C   UNL     1       5.242   0.203   2.007  0.00  0.00    +0.000 A 
ATOM      4  C   UNL     1       4.607  -0.770   2.570  0.00  0.00    +0.000 A 
ATOM      5  C   UNL     1       3.489  -1.493   2.251  0.00  0.00    +0.000 A 
ATOM      6  C   UNL     1       2.584  -1.238   1.318  0.00  0.00    +0.000 A 
ENDROOT
BRANCH   6   7
ATOM      7  C   UNL     1       1.280  -2.130   1.196  0.00  0.00    +0.000 C 
ATOM      8  O   UNL     1       0.947  -2.984   2.024  0.00  0.00    +0.000 OA
ATOM      9  N   UNL     1       0.356  -1.866   0.163  0.00  0.00    +0.000 N 
ATOM     10  C   UNL     1      -0.932  -1.204   0.586  0.00  0.00    +0.000 C 
ATOM     11  C   UNL     1      -2.051  -1.480  -0.372  0.00  0.00    +0.000 C 
ATOM     12  C   UNL     1      -1.781  -0.561  -1.849  0.00  0.00    +0.000 C 
ATOM     13  C   UNL     1      -0.332  -1.664  -2.196  0.00  0.00    +0.000 C 
ATOM     14  C   UNL     1       0.825  -1.626  -1.219  0.00  0.00    +0.000 C 
BRANCH  12  15
ATOM     15  N   UNL     1      -2.562   1.208  -1.813  0.00  0.00    +0.000 N 
ATOM     16  C   UNL     1      -3.718   0.367  -2.102  0.00  0.00    +0.000 C 
ATOM     17  O   UNL     1      -4.211  -0.434  -1.421  0.00  0.00    +0.000 OA
ATOM     18  O   UNL     1      -4.149   0.536  -3.390  0.00  0.00    +0.000 OA
ATOM     19  C   UNL     1      -4.893   1.656  -3.149  0.00  0.00    +0.000 C 
ATOM     20  C   UNL     1      -3.941   2.714  -3.557  0.00  0.00    +0.000 A 
ATOM     21  C   UNL     1      -2.957   3.473  -4.237  0.00  0.00    +0.000 A 
ATOM     22  C   UNL     1      -2.995   4.931  -4.213  0.00  0.00    +0.000 A 
ATOM     23  C   UNL     1      -3.958   5.370  -3.406  0.00  0.00    +0.000 A 
ATOM     24  C   UNL     1      -4.083   4.311  -2.289  0.00  0.00    +0.000 A 
ATOM     25  C   UNL     1      -3.364   2.767  -2.381  0.00  0.00    +0.000 A 
ENDBRANCH  12  15
ENDBRANCH   6   7
BRANCH   1  27
ATOM     26  C   UNL     1       1.195   0.926   0.011  0.00  0.00    +0.000 C 
ATOM     27  O   UNL     1       2.518   0.603  -0.288  0.00  0.00    +0.000 OA
ENDBRANCH   1  27
BRANCH   3  28
ATOM     28  O   UNL     1       6.484   0.476   2.461  0.00  0.00    +0.000 OA
BRANCH  28  29
ATOM     29  C   UNL     1       7.216  -0.468   3.427  0.00  0.00    +0.000 C 
ATOM     30  C   UNL     1       7.434  -1.960   2.989  0.00  0.00    +0.000 C 
ATOM     31  C   UNL     1       6.221  -2.904   3.204  0.00  0.00    +0.000 C 
ATOM     32  N   UNL     1       5.506  -2.715   4.532  0.00  0.00    +0.000 NA
ATOM     33  C   UNL     1       5.504  -1.318   5.216  0.00  0.00    +0.000 C 
ATOM     34  C   UNL     1       6.743  -0.443   4.914  0.00  0.00    +0.000 C 
BRANCH  32  35
ATOM     35  C   UNL     1       4.234  -3.560   4.712  0.00  0.00    +0.000 C 
ATOM     36  C   UNL     1       2.748  -3.407   4.102  0.00  0.00    +0.000 C 
ATOM     37  C   UNL     1       2.135  -1.997   4.538  0.00  0.00    +0.000 C 
ATOM     38  C   UNL     1       1.823  -2.096   5.981  0.00  0.00    +0.000 C 
ATOM     39  C   UNL     1       2.915  -2.763   6.743  0.00  0.00    +0.000 A 
ATOM     40  C   UNL     1       3.989  -3.512   6.194  0.00  0.00    +0.000 A 
ATOM     41  C   UNL     1       4.997  -3.991   7.025  0.00  0.00    +0.000 A 
ATOM     42  C   UNL     1       4.885  -3.815   8.385  0.00  0.00    +0.000 A 
ATOM     43  C   UNL     1       3.781  -3.148   8.905  0.00  0.00    +0.000 A 
ATOM     44  N   UNL     1       2.809  -2.602   8.102  0.00  0.00    +0.000 N 
ATOM     45  O   UNL     1       1.838  -1.966   8.621  0.00  0.00    +0.000 OA
ENDBRANCH  32  35
ENDBRANCH  28  29
ENDBRANCH   3  28
TORSDOF 6
