REMARK  Name = CHEMBL211440
REMARK  12 active torsions:
REMARK  status: ('A' for Active; 'I' for Inactive)
REMARK    1  A    between atoms: CD1_1  and  CG_2
REMARK    2  A    between atoms: CG_2  and  CD2_3
REMARK    3  A    between atoms: CG_2  and  CB_4
REMARK    4  A    between atoms: CB_4  and  CA_5
REMARK    5  A    between atoms: C_9  and  C_10
REMARK    6  A    between atoms: N_21  and  C_22
REMARK    7  A    between atoms: C_22  and  C_23
REMARK    8  A    between atoms: C_22  and  C_30
REMARK    9  A    between atoms: N_25  and  C_26
REMARK   10  A    between atoms: C_26  and  C_27
REMARK   11  A    between atoms: C_26  and  C_28
REMARK   12  A    between atoms: C_26  and  C_29
REMARK                            x       y       z     vdW  Elec       q    Type
REMARK                         _______ _______ _______ _____ _____    ______ ____
ROOT
ATOM      1  CA  LEU A   2       4.734  -0.723  -1.475  0.00  0.00    +0.000 C 
ATOM      2  C   LEU A   2       5.164  -2.064  -0.792  0.00  0.00    +0.000 C 
ATOM      3  O   LEU A   2       4.503  -3.094  -0.701  0.00  0.00    +0.000 OA
ATOM      4  N   UNK A   1       6.365  -1.988  -0.187  0.00  0.00    +0.000 N 
ATOM      5  C   UNK A   1       7.226  -0.837  -0.330  0.00  0.00    +0.000 C 
ATOM      6  C   UNK A   1       6.488   0.487  -0.090  0.00  0.00    +0.000 C 
ATOM      7  O   UNK A   1       7.118   1.389   0.454  0.00  0.00    +0.000 OA
ATOM      8  N   LEU A   2       5.160   0.575  -0.555  0.00  0.00    +0.000 N 
ATOM      9  H   UNK A   1       6.627  -2.829   0.313  0.00  0.00    +0.000 HD
ENDROOT
BRANCH   5  10
ATOM     10  C   UNK A   1       8.400  -0.860   0.680  0.00  0.00    +0.000 C 
ATOM     11  C   UNK A   1       9.270  -2.102   0.478  0.00  0.00    +0.000 C 
ATOM     12  C   UNK A   1       8.624  -3.062   1.430  0.00  0.00    +0.000 A 
ATOM     13  C   UNK A   1       8.634  -4.441   1.363  0.00  0.00    +0.000 A 
ATOM     14  C   UNK A   1       7.852  -5.149   2.276  0.00  0.00    +0.000 A 
ATOM     15  C   UNK A   1       7.068  -4.478   3.229  0.00  0.00    +0.000 A 
ATOM     16  C   UNK A   1       7.049  -3.083   3.282  0.00  0.00    +0.000 A 
ATOM     17  C   UNK A   1       7.836  -2.390   2.379  0.00  0.00    +0.000 A 
ATOM     18  C   UNK A   1       7.901  -0.910   2.158  0.00  0.00    +0.000 C 
ENDBRANCH   5  10
BRANCH   1  19
ATOM     19  CB  LEU A   2       3.258  -0.914  -1.803  0.00  0.00    +0.000 C 
BRANCH  19  21
ATOM     20  CD1 LEU A   2       1.164   0.395  -1.091  0.00  0.00    +0.000 C 
ATOM     21  CG  LEU A   2       2.697  -0.092  -0.768  0.00  0.00    +0.000 C 
ATOM     22  CD2 LEU A   2       3.560  -0.830   0.807  0.00  0.00    +0.000 C 
ENDBRANCH  19  21
ENDBRANCH   1  19
BRANCH   8  23
ATOM     23  C   UNK A   0       4.105   1.693   0.229  0.00  0.00    +0.000 C 
BRANCH  23  24
ATOM     24  C   UNK A   0       4.923   2.831   0.831  0.00  0.00    +0.000 A 
ATOM     25  C   UNK A   0       5.919   3.589   0.144  0.00  0.00    +0.000 A 
ATOM     26  C   UNK A   0       6.732   4.485   0.860  0.00  0.00    +0.000 A 
ATOM     27  C   UNK A   0       6.416   4.704   2.186  0.00  0.00    +0.000 A 
ATOM     28  C   UNK A   0       5.401   4.026   2.789  0.00  0.00    +0.000 A 
ATOM     29  C   UNK A   0       4.714   3.054   2.169  0.00  0.00    +0.000 A 
ATOM     30  O   UNK A   0       5.179   4.314   4.085  0.00  0.00    +0.000 OA
ATOM     31  C   UNK A   0       6.260   5.214   4.290  0.00  0.00    +0.000 C 
ATOM     32  O   UNK A   0       7.029   5.510   3.091  0.00  0.00    +0.000 OA
ENDBRANCH  23  24
BRANCH  23  33
ATOM     33  C   UNK A   0       2.540   1.397   1.301  0.00  0.00    +0.000 C 
ATOM     34  O   UNK A   0       2.155   2.253   2.146  0.00  0.00    +0.000 OA
ATOM     35  N   UNK A   0       1.633   0.243   1.222  0.00  0.00    +0.000 N 
ATOM     36  H   UNK A   0       1.816  -0.566   0.682  0.00  0.00    +0.000 HD
BRANCH  35  37
ATOM     37  C   UNK A   0       0.511  -0.445   1.846  0.00  0.00    +0.000 C 
ATOM     38  C   UNK A   0       1.156  -1.149   3.030  0.00  0.00    +0.000 C 
ATOM     39  C   UNK A   0      -0.473   0.663   1.997  0.00  0.00    +0.000 C 
ATOM     40  C   UNK A   0      -0.074  -1.656   0.913  0.00  0.00    +0.000 C 
ENDBRANCH  35  37
ENDBRANCH  23  33
ENDBRANCH   8  23
TORSDOF 7
