REMARK  Name = CHEMBL1088766
REMARK  10 active torsions:
REMARK  status: ('A' for Active; 'I' for Inactive)
REMARK    1  A    between atoms: C_1  and  O_2
REMARK    2  A    between atoms: O_2  and  C_3
REMARK    3  A    between atoms: C_3  and  C_4
REMARK    4  A    between atoms: C_4  and  N_5
REMARK    5  A    between atoms: N_5  and  C_20
REMARK    6  A    between atoms: C_6  and  C_8
REMARK    7  A    between atoms: N_11  and  C_12
REMARK    8  A    between atoms: C_18  and  C_19
REMARK    9  A    between atoms: C_23  and  O_24
REMARK   10  A    between atoms: O_24  and  C_25
REMARK                            x       y       z     vdW  Elec       q    Type
REMARK                         _______ _______ _______ _____ _____    ______ ____
ROOT
ATOM      1  N   UNL     1       4.906   1.767  -2.008  0.00  0.00    +0.000 N 
ATOM      2  C   UNL     1       4.029   2.586  -2.805  0.00  0.00    +0.000 C 
ATOM      3  O   UNL     1       4.463   3.285  -3.710  0.00  0.00    +0.000 OA
ENDROOT
BRANCH   2   4
ATOM      4  C   UNL     1       2.561   2.522  -2.665  0.00  0.00    +0.000 A 
ATOM      5  C   UNL     1       1.683   2.881  -1.612  0.00  0.00    +0.000 A 
ATOM      6  N   UNL     1       0.409   2.581  -1.859  0.00  0.00    +0.000 NA
ATOM      7  N   UNL     1       0.412   2.154  -3.140  0.00  0.00    +0.000 N 
ATOM      8  C   UNL     1       1.679   2.182  -3.688  0.00  0.00    +0.000 A 
ATOM      9  C   UNL     1       1.949   2.027  -5.137  0.00  0.00    +0.000 C 
BRANCH   7  10
ATOM     10  C   UNL     1      -0.808   1.826  -3.764  0.00  0.00    +0.000 A 
ATOM     11  C   UNL     1      -1.889   2.694  -3.584  0.00  0.00    +0.000 A 
ATOM     12  C   UNL     1      -3.111   2.396  -4.175  0.00  0.00    +0.000 A 
ATOM     13  C   UNL     1      -3.238   1.257  -4.972  0.00  0.00    +0.000 A 
ATOM     14  C   UNL     1      -2.156   0.390  -5.147  0.00  0.00    +0.000 A 
ATOM     15  C   UNL     1      -0.933   0.669  -4.539  0.00  0.00    +0.000 A 
ENDBRANCH   7  10
ENDBRANCH   2   4
BRANCH   1  16
ATOM     16  C   UNL     1       6.337   1.932  -2.205  0.00  0.00    +0.000 A 
ATOM     17  C   UNL     1       7.211   0.842  -2.181  0.00  0.00    +0.000 A 
ATOM     18  C   UNL     1       8.581   1.018  -2.400  0.00  0.00    +0.000 A 
ATOM     19  C   UNL     1       9.078   2.293  -2.615  0.00  0.00    +0.000 A 
ATOM     20  N   UNL     1       8.274   3.375  -2.610  0.00  0.00    +0.000 NA
ATOM     21  C   UNL     1       6.939   3.173  -2.423  0.00  0.00    +0.000 A 
BRANCH  19  22
ATOM     22  O   UNL     1      10.394   2.583  -2.854  0.00  0.00    +0.000 OA
ATOM     23  C   UNL     1      11.288   1.476  -2.909  0.00  0.00    +0.000 C 
ENDBRANCH  19  22
ENDBRANCH   1  16
BRANCH   1  24
ATOM     24  C   UNL     1       4.547   0.726  -0.971  0.00  0.00    +0.000 C 
BRANCH  24  25
ATOM     25  C   UNL     1       3.068   0.513  -0.789  0.00  0.00    +0.000 C 
BRANCH  25  27
ATOM     26  C   UNL     1       1.095  -0.156   0.166  0.00  0.00    +0.000 C 
ATOM     27  O   UNL     1       2.529  -0.359   0.185  0.00  0.00    +0.000 OA
ENDBRANCH  25  27
ENDBRANCH  24  25
ENDBRANCH   1  24
TORSDOF 7
