REMARK  Name = CHEMBL4129142
REMARK  22 active torsions:
REMARK  status: ('A' for Active; 'I' for Inactive)
REMARK    1  A    between atoms: C_1  and  C_2
REMARK    2  A    between atoms: C_2  and  C_3
REMARK    3  A    between atoms: C_3  and  C_4
REMARK    4  A    between atoms: C_3  and  C_5
REMARK    5  A    between atoms: C_9  and  C_10
REMARK    6  A    between atoms: C_10  and  C_11
REMARK    7  A    between atoms: C_14  and  O_15
REMARK    8  A    between atoms: C_34  and  C_35
REMARK    9  A    between atoms: C_41  and  C_42
REMARK   10  A    between atoms: N_44  and  C_45
REMARK   11  A    between atoms: C_45  and  C_46
REMARK   12  A    between atoms: C_45  and  C_50
REMARK   13  A    between atoms: C_46  and  C_47
REMARK   14  A    between atoms: C_47  and  C_48
REMARK   15  A    between atoms: C_47  and  C_49
REMARK   16  A    between atoms: N_52  and  C_53
REMARK   17  A    between atoms: C_53  and  C_54
REMARK   18  A    between atoms: C_60  and  C_61
REMARK   19  A    between atoms: C_61  and  C_62
REMARK   20  A    between atoms: C_68  and  C_69
REMARK   21  A    between atoms: C_69  and  C_70
REMARK   22  A    between atoms: C_70  and  C_71
REMARK                            x       y       z     vdW  Elec       q    Type
REMARK                         _______ _______ _______ _____ _____    ______ ____
ROOT
ATOM      1  C   UNL     1       4.922   1.607  -3.601  0.00  0.00    +0.000 C 
ATOM      2  N   UNL     1       5.124   3.360  -5.139  0.00  0.00    +0.000 N 
ATOM      3  C   UNL     1       5.721   4.630  -6.577  0.00  0.00    +0.000 C 
ATOM      4  O   UNL     1       7.008   4.720  -6.709  0.00  0.00    +0.000 OA
ATOM      5  C   UNL     1       5.833   6.191  -8.275  0.00  0.00    +0.000 C 
ATOM      6  N   UNL     1       7.411   6.950  -9.161  0.00  0.00    +0.000 N 
ATOM      7  C   UNL     1       8.523   6.176  -9.675  0.00  0.00    +0.000 C 
ATOM      8  O   UNL     1       9.649   6.582 -10.005  0.00  0.00    +0.000 OA
ATOM      9  C   UNL     1       8.269   4.698  -9.581  0.00  0.00    +0.000 C 
ATOM     10  C   UNL     1       6.917   4.232  -9.314  0.00  0.00    +0.000 C 
ATOM     11  S   UNL     1       6.398   2.653  -9.102  0.00  0.00    +0.000 S 
ATOM     12  C   UNL     1       4.573   2.717  -8.761  0.00  0.00    +0.000 C 
ATOM     13  C   UNL     1       4.164   1.277  -8.746  0.00  0.00    +0.000 A 
ATOM     14  C   UNL     1       5.082   0.235  -8.735  0.00  0.00    +0.000 A 
ATOM     15  C   UNL     1       4.700  -1.110  -8.729  0.00  0.00    +0.000 A 
ATOM     16  C   UNL     1       3.345  -1.478  -8.907  0.00  0.00    +0.000 A 
ATOM     17  C   UNL     1       2.358  -0.472  -9.001  0.00  0.00    +0.000 A 
ATOM     18  C   UNL     1       2.833   0.892  -8.929  0.00  0.00    +0.000 A 
ATOM     19  C   UNL     1       0.868  -0.861  -8.847  0.00  0.00    +0.000 C 
ATOM     20  S   UNL     1      -0.102  -0.665  -7.435  0.00  0.00    +0.000 S 
ATOM     21  C   UNL     1      -1.647  -1.252  -7.026  0.00  0.00    +0.000 C 
ATOM     22  C   UNL     1      -2.162  -1.043  -5.615  0.00  0.00    +0.000 C 
ATOM     23  N   UNL     1      -1.433  -1.911  -4.667  0.00  0.00    +0.000 N 
ATOM     24  C   UNL     1      -0.115  -1.850  -4.375  0.00  0.00    +0.000 C 
ATOM     25  O   UNL     1       0.348  -2.685  -3.614  0.00  0.00    +0.000 OA
ATOM     26  C   UNL     1       0.707  -0.745  -4.966  0.00  0.00    +0.000 C 
ATOM     27  N   UNL     1       1.202   0.260  -4.199  0.00  0.00    +0.000 N 
ATOM     28  C   UNL     1       2.445  -0.077  -3.912  0.00  0.00    +0.000 C 
ATOM     29  O   UNL     1       3.180   0.773  -3.461  0.00  0.00    +0.000 OA
ATOM     30  C   UNL     1       2.751  -1.865  -3.396  0.00  0.00    +0.000 C 
ATOM     31  N   UNL     1       4.300  -1.721  -3.598  0.00  0.00    +0.000 N 
ATOM     32  C   UNL     1       5.283  -0.393  -3.437  0.00  0.00    +0.000 C 
ATOM     33  O   UNL     1       6.232  -0.976  -2.780  0.00  0.00    +0.000 OA
ATOM     34  H   UNL     1       4.847   4.519  -5.026  0.00  0.00    +0.000 HD
ATOM     35  H   UNL     1       7.631   7.979  -9.640  0.00  0.00    +0.000 HD
ATOM     36  H   UNL     1      -1.946  -2.668  -4.211  0.00  0.00    +0.000 HD
ATOM     37  H   UNL     1       0.942   1.244  -4.192  0.00  0.00    +0.000 HD
ATOM     38  H   UNL     1       4.593  -2.448  -4.227  0.00  0.00    +0.000 HD
ENDROOT
BRANCH  22  39
ATOM     39  C   UNL     1      -3.662  -1.377  -5.655  0.00  0.00    +0.000 C 
ATOM     40  O   UNL     1      -3.962  -2.273  -4.868  0.00  0.00    +0.000 OA
ATOM     41  N   UNL     1      -4.522  -0.585  -6.462  0.00  0.00    +0.000 N 
ATOM     42  C   UNL     1      -4.288  -0.203  -7.837  0.00  0.00    +0.000 C 
ATOM     43  C   UNL     1      -4.941   1.143  -7.949  0.00  0.00    +0.000 C 
ATOM     44  C   UNL     1      -6.252   0.918  -7.252  0.00  0.00    +0.000 C 
ATOM     45  C   UNL     1      -5.948  -0.139  -6.196  0.00  0.00    +0.000 C 
BRANCH  45  46
ATOM     46  C   UNL     1      -7.034  -1.154  -6.679  0.00  0.00    +0.000 C 
ATOM     47  O   UNL     1      -6.638  -2.187  -7.245  0.00  0.00    +0.000 OA
ATOM     48  N   UNL     1      -8.336  -1.028  -6.082  0.00  0.00    +0.000 N 
ATOM     49  H   UNL     1      -8.682  -0.155  -5.687  0.00  0.00    +0.000 HD
BRANCH  48  50
ATOM     50  C   UNL     1      -9.292  -2.192  -5.975  0.00  0.00    +0.000 C 
BRANCH  50  51
ATOM     51  C   UNL     1     -10.728  -1.683  -5.634  0.00  0.00    +0.000 C 
ATOM     52  O   UNL     1     -10.906  -0.488  -5.391  0.00  0.00    +0.000 OA
ATOM     53  N   UNL     1     -11.770  -2.594  -5.617  0.00  0.00    +0.000 N 
ATOM     54  H   UNL     1     -11.614  -3.567  -5.812  0.00  0.00    +0.000 HD
BRANCH  53  55
ATOM     55  C   UNL     1     -13.148  -2.195  -5.316  0.00  0.00    +0.000 C 
BRANCH  55  56
ATOM     56  C   UNL     1     -14.168  -3.354  -5.351  0.00  0.00    +0.000 C 
ATOM     57  N   UNL     1     -13.695  -4.614  -5.650  0.00  0.00    +0.000 N 
ATOM     58  O   UNL     1     -15.360  -3.165  -5.120  0.00  0.00    +0.000 OA
ATOM     59  H   UNL     1     -12.741  -4.854  -5.849  0.00  0.00    +0.000 HD
ATOM     60  H   UNL     1     -14.335  -5.401  -5.682  0.00  0.00    +0.000 HD
ENDBRANCH  55  56
ENDBRANCH  53  55
ENDBRANCH  50  51
BRANCH  50  61
ATOM     61  C   UNL     1      -8.888  -3.255  -4.930  0.00  0.00    +0.000 C 
BRANCH  61  62
ATOM     62  C   UNL     1      -7.511  -3.848  -5.173  0.00  0.00    +0.000 C 
ATOM     63  C   UNL     1      -6.440  -2.894  -4.815  0.00  0.00    +0.000 C 
ATOM     64  C   UNL     1      -7.102  -4.875  -4.194  0.00  0.00    +0.000 C 
ENDBRANCH  61  62
ENDBRANCH  50  61
ENDBRANCH  48  50
ENDBRANCH  45  46
ENDBRANCH  22  39
BRANCH   1  65
ATOM     65  C   UNL     1       4.093   0.556  -1.844  0.00  0.00    +0.000 C 
ATOM     66  C   UNL     1       3.000   0.336  -0.206  0.00  0.00    +0.000 C 
BRANCH  65  68
ATOM     67  C   UNL     1       2.091   2.016  -2.577  0.00  0.00    +0.000 C 
ATOM     68  C   UNL     1       2.268   0.173  -1.900  0.00  0.00    +0.000 C 
ENDBRANCH  65  68
ENDBRANCH   1  65
BRANCH  26  69
ATOM     69  C   UNL     1       1.809  -1.305  -5.859  0.00  0.00    +0.000 C 
BRANCH  69  70
ATOM     70  C   UNL     1       2.397  -0.112  -6.505  0.00  0.00    +0.000 C 
ATOM     71  N   UNL     1       1.699   1.088  -6.661  0.00  0.00    +0.000 N 
ATOM     72  O   UNL     1       3.565  -0.328  -6.757  0.00  0.00    +0.000 OA
ATOM     73  H   UNL     1       0.786   1.247  -6.304  0.00  0.00    +0.000 HD
ATOM     74  H   UNL     1       1.892   1.909  -7.201  0.00  0.00    +0.000 HD
ENDBRANCH  69  70
ENDBRANCH  26  69
BRANCH   5  75
ATOM     75  C   UNL     1       5.495   6.038 -10.296  0.00  0.00    +0.000 C 
BRANCH  75  76
ATOM     76  C   UNL     1       4.090   5.652 -10.236  0.00  0.00    +0.000 A 
ATOM     77  C   UNL     1       3.415   6.226  -9.172  0.00  0.00    +0.000 A 
ATOM     78  C   UNL     1       2.269   5.678  -8.671  0.00  0.00    +0.000 A 
ATOM     79  C   UNL     1       1.634   4.725  -9.412  0.00  0.00    +0.000 A 
ATOM     80  C   UNL     1       2.195   4.323 -10.625  0.00  0.00    +0.000 A 
ATOM     81  C   UNL     1       3.493   4.682 -10.991  0.00  0.00    +0.000 A 
BRANCH  79  82
ATOM     82  O   UNL     1       0.470   4.162  -8.982  0.00  0.00    +0.000 OA
ATOM     83  H   UNL     1       0.156   4.526  -8.133  0.00  0.00    +0.000 HD
ENDBRANCH  79  82
ENDBRANCH  75  76
ENDBRANCH   5  75
BRANCH  30  84
ATOM     84  C   UNL     1       2.348  -2.574  -1.919  0.00  0.00    +0.000 C 
BRANCH  84  85
ATOM     85  C   UNL     1       3.588  -2.825  -1.029  0.00  0.00    +0.000 C 
BRANCH  85  86
ATOM     86  C   UNL     1       3.263  -3.396   0.320  0.00  0.00    +0.000 C 
ATOM     87  N   UNL     1       1.948  -3.658   0.602  0.00  0.00    +0.000 N 
ATOM     88  O   UNL     1       4.157  -3.603   1.135  0.00  0.00    +0.000 OA
ATOM     89  H   UNL     1       1.175  -3.475  -0.025  0.00  0.00    +0.000 HD
ATOM     90  H   UNL     1       1.701  -4.083   1.483  0.00  0.00    +0.000 HD
ENDBRANCH  85  86
ENDBRANCH  84  85
ENDBRANCH  30  84
TORSDOF 18
