REMARK  Name = CHEMBL322187
REMARK  8 active torsions:
REMARK  status: ('A' for Active; 'I' for Inactive)
REMARK    1  A    between atoms: C_1  and  O_2
REMARK    2  A    between atoms: O_2  and  C_3
REMARK    3  A    between atoms: C_5  and  O_6
REMARK    4  A    between atoms: O_6  and  C_7
REMARK    5  A    between atoms: C_7  and  C_8
REMARK    6  A    between atoms: C_7  and  C_9
REMARK    7  A    between atoms: C_17  and  C_18
REMARK    8  A    between atoms: C_23  and  N_24
REMARK                            x       y       z     vdW  Elec       q    Type
REMARK                         _______ _______ _______ _____ _____    ______ ____
ROOT
ATOM      1  C   UNL     1       7.290  -4.319   0.528  0.00  0.00    +0.000 C 
ATOM      2  O   UNL     1       7.380  -5.353   1.198  0.00  0.00    +0.000 OA
ATOM      3  N   UNL     1       7.063  -4.387  -0.888  0.00  0.00    +0.000 N 
ATOM      4  C   UNL     1       5.760  -5.014  -1.340  0.00  0.00    +0.000 C 
ATOM      5  C   UNL     1       5.843  -5.642  -2.711  0.00  0.00    +0.000 C 
ATOM      6  C   UNL     1       5.958  -4.405  -3.907  0.00  0.00    +0.000 C 
ATOM      7  C   UNL     1       7.593  -3.976  -3.314  0.00  0.00    +0.000 C 
ATOM      8  C   UNL     1       7.748  -3.483  -1.872  0.00  0.00    +0.000 C 
ENDROOT
BRANCH   6   9
ATOM      9  N   UNL     1       4.302  -3.940  -4.592  0.00  0.00    +0.000 N 
ATOM     10  C   UNL     1       4.427  -5.110  -5.374  0.00  0.00    +0.000 C 
ATOM     11  O   UNL     1       4.556  -6.312  -4.910  0.00  0.00    +0.000 OA
ATOM     12  O   UNL     1       4.702  -4.952  -6.653  0.00  0.00    +0.000 OA
ATOM     13  C   UNL     1       3.397  -4.902  -7.098  0.00  0.00    +0.000 C 
ATOM     14  C   UNL     1       3.328  -3.440  -7.026  0.00  0.00    +0.000 A 
ATOM     15  C   UNL     1       3.488  -2.449  -8.008  0.00  0.00    +0.000 A 
ATOM     16  C   UNL     1       2.598  -1.381  -8.125  0.00  0.00    +0.000 A 
ATOM     17  C   UNL     1       1.508  -1.538  -7.337  0.00  0.00    +0.000 A 
ATOM     18  C   UNL     1       1.804  -2.396  -6.096  0.00  0.00    +0.000 A 
ATOM     19  C   UNL     1       3.265  -2.967  -5.773  0.00  0.00    +0.000 A 
ENDBRANCH   6   9
BRANCH   1  25
ATOM     20  C   UNL     1       6.808  -1.801   0.825  0.00  0.00    +0.000 A 
ATOM     21  C   UNL     1       6.632  -0.745   1.698  0.00  0.00    +0.000 A 
ATOM     22  C   UNL     1       7.100  -0.669   2.988  0.00  0.00    +0.000 A 
ATOM     23  C   UNL     1       7.479  -1.873   3.545  0.00  0.00    +0.000 A 
ATOM     24  C   UNL     1       7.537  -3.037   2.725  0.00  0.00    +0.000 A 
ATOM     25  C   UNL     1       7.260  -3.015   1.312  0.00  0.00    +0.000 A 
BRANCH  20  27
ATOM     26  C   UNL     1       5.435  -1.941  -1.052  0.00  0.00    +0.000 C 
ATOM     27  O   UNL     1       6.530  -1.324  -0.429  0.00  0.00    +0.000 OA
ENDBRANCH  20  27
BRANCH  22  28
ATOM     28  O   UNL     1       7.190   0.479   3.722  0.00  0.00    +0.000 OA
BRANCH  28  29
ATOM     29  C   UNL     1       7.268   1.797   3.096  0.00  0.00    +0.000 C 
ATOM     30  C   UNL     1       6.357   2.019   1.894  0.00  0.00    +0.000 C 
BRANCH  29  31
ATOM     31  C   UNL     1       8.667   2.262   2.711  0.00  0.00    +0.000 A 
ATOM     32  C   UNL     1       9.687   1.373   2.372  0.00  0.00    +0.000 A 
ATOM     33  C   UNL     1      10.898   1.879   1.925  0.00  0.00    +0.000 A 
ATOM     34  N   UNL     1      11.164   3.196   1.793  0.00  0.00    +0.000 NA
ATOM     35  C   UNL     1      10.170   4.046   2.119  0.00  0.00    +0.000 A 
ATOM     36  C   UNL     1       8.923   3.636   2.566  0.00  0.00    +0.000 A 
ENDBRANCH  29  31
ENDBRANCH  28  29
ENDBRANCH  22  28
ENDBRANCH   1  25
TORSDOF 6
