REMARK  Name = CHEMBL491224
REMARK  9 active torsions:
REMARK  status: ('A' for Active; 'I' for Inactive)
REMARK    1  A    between atoms: C_1  and  C_2
REMARK    2  A    between atoms: C_2  and  O_3
REMARK    3  A    between atoms: O_3  and  C_4
REMARK    4  A    between atoms: C_7  and  S_8
REMARK    5  A    between atoms: S_8  and  N_11
REMARK    6  A    between atoms: N_11  and  C_12
REMARK    7  A    between atoms: N_11  and  C_27
REMARK    8  A    between atoms: C_12  and  C_13
REMARK    9  A    between atoms: N_15  and  N_16
REMARK                            x       y       z     vdW  Elec       q    Type
REMARK                         _______ _______ _______ _____ _____    ______ ____
ROOT
ATOM      1  N   UNL     1       9.506   1.768  -1.105  0.00  0.00    +0.000 N 
ENDROOT
BRANCH   1   2
ATOM      2  C   UNL     1      11.015   1.827  -1.134  0.00  0.00    +0.000 A 
ATOM      3  C   UNL     1      11.660   1.846  -2.388  0.00  0.00    +0.000 A 
ATOM      4  C   UNL     1      13.055   1.702  -2.528  0.00  0.00    +0.000 A 
ATOM      5  C   UNL     1      13.866   1.619  -1.404  0.00  0.00    +0.000 A 
ATOM      6  C   UNL     1      13.268   1.608  -0.146  0.00  0.00    +0.000 A 
ATOM      7  C   UNL     1      11.858   1.684  -0.014  0.00  0.00    +0.000 A 
ENDBRANCH   1   2
BRANCH   1   8
ATOM      8  S   UNL     1       8.703   2.662   0.187  0.00  0.00    +0.000 S 
ATOM      9  O   UNL     1       9.012   4.057  -0.057  0.00  0.00    +0.000 OA
ATOM     10  O   UNL     1       9.128   2.074   1.452  0.00  0.00    +0.000 OA
BRANCH   8  14
ATOM     11  C   UNL     1       4.184   1.705   0.631  0.00  0.00    +0.000 A 
ATOM     12  C   UNL     1       4.776   2.594   1.534  0.00  0.00    +0.000 A 
ATOM     13  C   UNL     1       6.139   2.988   1.369  0.00  0.00    +0.000 A 
ATOM     14  C   UNL     1       6.861   2.601   0.221  0.00  0.00    +0.000 A 
ATOM     15  C   UNL     1       6.125   2.004  -0.779  0.00  0.00    +0.000 A 
ATOM     16  C   UNL     1       4.919   1.357  -0.481  0.00  0.00    +0.000 A 
BRANCH  11  17
ATOM     17  O   UNL     1       2.865   1.359   0.753  0.00  0.00    +0.000 OA
BRANCH  17  19
ATOM     18  C   UNL     1       0.967   0.023   0.147  0.00  0.00    +0.000 C 
ATOM     19  C   UNL     1       2.481   0.072   0.234  0.00  0.00    +0.000 C 
ENDBRANCH  17  19
ENDBRANCH  11  17
ENDBRANCH   8  14
ENDBRANCH   1   8
BRANCH   1  20
ATOM     20  C   UNL     1       8.917   0.627  -1.941  0.00  0.00    +0.000 C 
BRANCH  20  21
ATOM     21  C   UNL     1       7.654  -0.171  -1.531  0.00  0.00    +0.000 C 
ATOM     22  O   UNL     1       7.446  -0.295  -0.306  0.00  0.00    +0.000 OA
ATOM     23  N   UNL     1       6.800  -0.700  -2.563  0.00  0.00    +0.000 N 
ATOM     24  H   UNL     1       7.107  -0.568  -3.529  0.00  0.00    +0.000 HD
BRANCH  23  25
ATOM     25  N   UNL     1       5.934  -1.967  -2.502  0.00  0.00    +0.000 NA
ATOM     26  C   UNL     1       5.274  -2.202  -3.639  0.00  0.00    +0.000 C 
ATOM     27  C   UNL     1       4.729  -1.040  -4.409  0.00  0.00    +0.000 C 
ATOM     28  O   UNL     1       5.575  -0.422  -5.005  0.00  0.00    +0.000 OA
ATOM     29  N   UNL     1       3.448  -1.431  -4.829  0.00  0.00    +0.000 N 
ATOM     30  C   UNL     1       3.672  -2.723  -5.326  0.00  0.00    +0.000 A 
ATOM     31  C   UNL     1       3.053  -3.024  -6.557  0.00  0.00    +0.000 A 
ATOM     32  C   UNL     1       3.541  -4.030  -7.352  0.00  0.00    +0.000 A 
ATOM     33  C   UNL     1       4.689  -4.666  -6.877  0.00  0.00    +0.000 A 
ATOM     34  C   UNL     1       5.305  -4.347  -5.561  0.00  0.00    +0.000 A 
ATOM     35  C   UNL     1       4.764  -3.356  -4.690  0.00  0.00    +0.000 A 
ATOM     36  H   UNL     1       2.766  -1.582  -4.087  0.00  0.00    +0.000 HD
ENDBRANCH  23  25
ENDBRANCH  20  21
ENDBRANCH   1  20
TORSDOF 8
