REMARK  Name = CHEMBL475207
REMARK  6 active torsions:
REMARK  status: ('A' for Active; 'I' for Inactive)
REMARK    1  A    between atoms: C_2  and  C_3
REMARK    2  A    between atoms: C_6  and  C_7
REMARK    3  A    between atoms: N_15  and  C_16
REMARK    4  A    between atoms: N_15  and  C_20
REMARK    5  A    between atoms: C_16  and  C_17
REMARK    6  A    between atoms: C_20  and  C_21
REMARK                            x       y       z     vdW  Elec       q    Type
REMARK                         _______ _______ _______ _____ _____    ______ ____
ROOT
ATOM      1  O   UNL     1       1.469   0.564   1.060  0.00  0.00    +0.000 OA
ATOM      2  C   UNL     1       2.411   0.251   0.349  0.00  0.00    +0.000 C 
ATOM      3  N   UNL     1       2.930  -1.048   0.315  0.00  0.00    +0.000 N 
ENDROOT
BRANCH   2   4
ATOM      4  C   UNL     1       3.035   1.350  -0.438  0.00  0.00    +0.000 A 
ATOM      5  C   UNL     1       4.065   1.250  -1.376  0.00  0.00    +0.000 A 
ATOM      6  C   UNL     1       4.774   2.398  -1.720  0.00  0.00    +0.000 A 
ATOM      7  C   UNL     1       4.334   3.659  -1.289  0.00  0.00    +0.000 A 
ATOM      8  C   UNL     1       3.211   3.756  -0.472  0.00  0.00    +0.000 A 
ATOM      9  C   UNL     1       2.563   2.612  -0.066  0.00  0.00    +0.000 A 
BRANCH   7  10
ATOM     10  C   UNL     1       5.030   4.868  -1.688  0.00  0.00    +0.000 A 
ATOM     11  C   UNL     1       5.186   5.186  -3.042  0.00  0.00    +0.000 A 
ATOM     12  C   UNL     1       5.925   6.303  -3.414  0.00  0.00    +0.000 A 
ATOM     13  C   UNL     1       6.435   7.154  -2.434  0.00  0.00    +0.000 A 
ATOM     14  C   UNL     1       6.245   6.869  -1.083  0.00  0.00    +0.000 A 
ATOM     15  C   UNL     1       5.552   5.725  -0.711  0.00  0.00    +0.000 A 
ENDBRANCH   7  10
ENDBRANCH   2   4
BRANCH   3  16
ATOM     16  C   UNL     1       2.101  -2.126   0.845  0.00  0.00    +0.000 C 
BRANCH  16  17
ATOM     17  C   UNL     1       0.616  -2.003   0.716  0.00  0.00    +0.000 C 
ATOM     18  C   UNL     1      -0.110  -1.021  -0.193  0.00  0.00    +0.000 C 
ATOM     19  C   UNL     1      -0.071  -2.462  -0.547  0.00  0.00    +0.000 C 
ENDBRANCH  16  17
ENDBRANCH   3  16
BRANCH   3  20
ATOM     20  C   UNL     1       4.379  -1.182   0.461  0.00  0.00    +0.000 C 
BRANCH  20  21
ATOM     21  C   UNL     1       5.033  -2.471   1.001  0.00  0.00    +0.000 C 
ATOM     22  C   UNL     1       6.261  -2.798   0.162  0.00  0.00    +0.000 C 
ATOM     23  C   UNL     1       6.319  -4.300   0.203  0.00  0.00    +0.000 C 
ATOM     24  C   UNL     1       4.867  -4.694   0.278  0.00  0.00    +0.000 C 
ATOM     25  O   UNL     1       4.219  -3.647   0.987  0.00  0.00    +0.000 OA
ENDBRANCH  20  21
ENDBRANCH   3  20
TORSDOF 6
