REMARK  Name = CHEMBL601930
REMARK  8 active torsions:
REMARK  status: ('A' for Active; 'I' for Inactive)
REMARK    1  A    between atoms: C_1  and  C_2
REMARK    2  A    between atoms: C_4  and  C_5
REMARK    3  A    between atoms: C_10  and  N_11
REMARK    4  A    between atoms: C_26  and  C_27
REMARK    5  A    between atoms: C_27  and  N_28
REMARK    6  A    between atoms: C_35  and  C_36
REMARK    7  A    between atoms: C_36  and  N_38
REMARK    8  A    between atoms: N_42  and  C_43
REMARK                            x       y       z     vdW  Elec       q    Type
REMARK                         _______ _______ _______ _____ _____    ______ ____
ROOT
ATOM      1  C   UNL     1       2.464  -0.301  -0.007  0.00  0.00    +0.000 C 
ATOM      2  C   UNL     1       0.981  -0.094  -0.010  0.00  0.00    +0.000 A 
ATOM      3  C   UNL     1       0.184  -1.267  -0.022  0.00  0.00    +0.000 A 
ATOM      4  C   UNL     1      -1.218  -1.220  -0.046  0.00  0.00    +0.000 A 
ATOM      5  C   UNL     1      -1.808   0.040  -0.012  0.00  0.00    +0.000 A 
ATOM      6  C   UNL     1      -1.032   1.217  -0.007  0.00  0.00    +0.000 A 
ATOM      7  C   UNL     1       0.384   1.189  -0.021  0.00  0.00    +0.000 A 
ENDROOT
BRANCH   4   8
ATOM      8  C   UNL     1      -2.022  -2.499   0.018  0.00  0.00    +0.000 C 
ATOM      9  O   UNL     1      -1.415  -3.561   0.169  0.00  0.00    +0.000 OA
ATOM     10  N   UNL     1      -3.431  -2.436   0.030  0.00  0.00    +0.000 N 
ATOM     11  C   UNL     1      -4.175  -3.007   1.151  0.00  0.00    +0.000 C 
ATOM     12  C   UNL     1      -5.346  -3.861   0.708  0.00  0.00    +0.000 C 
ATOM     13  C   UNL     1      -6.521  -2.875  -0.049  0.00  0.00    +0.000 C 
ATOM     14  C   UNL     1      -5.473  -2.554  -1.386  0.00  0.00    +0.000 C 
ATOM     15  C   UNL     1      -4.244  -1.744  -0.976  0.00  0.00    +0.000 C 
BRANCH  13  16
ATOM     16  N   UNL     1      -7.771  -1.880   0.859  0.00  0.00    +0.000 N 
ATOM     17  C   UNL     1      -8.317  -3.232   1.111  0.00  0.00    +0.000 C 
ATOM     18  O   UNL     1      -7.712  -4.314   1.380  0.00  0.00    +0.000 OA
ATOM     19  O   UNL     1      -9.619  -3.327   0.983  0.00  0.00    +0.000 OA
ATOM     20  C   UNL     1      -9.960  -3.445   2.320  0.00  0.00    +0.000 C 
ATOM     21  C   UNL     1      -9.958  -2.038   2.718  0.00  0.00    +0.000 A 
ATOM     22  C   UNL     1     -11.081  -1.874   3.776  0.00  0.00    +0.000 A 
ATOM     23  C   UNL     1     -11.652  -0.712   4.185  0.00  0.00    +0.000 A 
ATOM     24  C   UNL     1     -11.077   0.308   3.462  0.00  0.00    +0.000 A 
ATOM     25  C   UNL     1      -9.832   0.114   2.370  0.00  0.00    +0.000 A 
ATOM     26  C   UNL     1      -9.094  -1.178   1.949  0.00  0.00    +0.000 A 
ENDBRANCH  13  16
ENDBRANCH   4   8
BRANCH   7  27
ATOM     27  C   UNL     1       1.134   2.543  -0.034  0.00  0.00    +0.000 C 
BRANCH  27  28
ATOM     28  N   UNL     1       2.599   2.513  -0.202  0.00  0.00    +0.000 N 
ATOM     29  C   UNL     1       3.475   3.535   0.027  0.00  0.00    +0.000 C 
ATOM     30  O   UNL     1       3.085   4.661   0.305  0.00  0.00    +0.000 OA
ATOM     31  N   UNL     1       4.818   3.126   0.034  0.00  0.00    +0.000 N 
ATOM     32  C   UNL     1       5.471   2.091  -0.775  0.00  0.00    +0.000 C 
ATOM     33  C   UNL     1       6.603   1.603   0.113  0.00  0.00    +0.000 C 
ATOM     34  C   UNL     1       7.082   2.896   0.752  0.00  0.00    +0.000 C 
ATOM     35  C   UNL     1       5.857   3.848   0.803  0.00  0.00    +0.000 C 
ATOM     36  H   UNL     1       3.080   1.687   0.050  0.00  0.00    +0.000 HD
BRANCH  35  37
ATOM     37  C   UNL     1       6.274   5.277   0.303  0.00  0.00    +0.000 C 
ATOM     38  S   UNL     1       5.688   5.942  -1.137  0.00  0.00    +0.000 S 
BRANCH  37  39
ATOM     39  N   UNL     1       7.148   5.991   1.147  0.00  0.00    +0.000 N 
ATOM     40  C   UNL     1       6.764   7.330   1.597  0.00  0.00    +0.000 C 
ATOM     41  C   UNL     1       7.553   8.483   0.975  0.00  0.00    +0.000 C 
ATOM     42  C   UNL     1       8.986   8.527   1.516  0.00  0.00    +0.000 C 
ATOM     43  N   UNL     1       9.960   7.769   0.719  0.00  0.00    +0.000 NA
ATOM     44  C   UNL     1      10.413   8.586  -0.412  0.00  0.00    +0.000 C 
ATOM     45  C   UNL     1       9.446   6.473   0.221  0.00  0.00    +0.000 C 
ATOM     46  C   UNL     1       8.593   5.687   1.246  0.00  0.00    +0.000 C 
ENDBRANCH  37  39
ENDBRANCH  35  37
ENDBRANCH  27  28
ENDBRANCH   7  27
TORSDOF 6
