REMARK  Name = CHEMBL2017979
REMARK  9 active torsions:
REMARK  status: ('A' for Active; 'I' for Inactive)
REMARK    1  A    between atoms: C_1  and  O_2
REMARK    2  A    between atoms: O_2  and  C_3
REMARK    3  A    between atoms: C_5  and  O_6
REMARK    4  A    between atoms: O_6  and  C_7
REMARK    5  A    between atoms: N_10  and  S_11
REMARK    6  A    between atoms: S_11  and  C_12
REMARK    7  A    between atoms: C_19  and  C_20
REMARK    8  A    between atoms: C_20  and  C_21
REMARK    9  A    between atoms: C_26  and  N_27
REMARK                            x       y       z     vdW  Elec       q    Type
REMARK                         _______ _______ _______ _____ _____    ______ ____
ROOT
ATOM      1  C   UNL     1       1.393  -2.340   0.917  0.00  0.00    +0.000 C 
ENDROOT
BRANCH   1   2
ATOM      2  C   UNL     1       0.731  -2.017  -0.352  0.00  0.00    +0.000 C 
ATOM      3  O   UNL     1       1.506  -1.691  -1.263  0.00  0.00    +0.000 OA
ATOM      4  N   UNL     1      -0.651  -1.957  -0.522  0.00  0.00    +0.000 N 
ATOM      5  C   UNL     1      -1.016  -1.679  -1.901  0.00  0.00    +0.000 C 
ATOM      6  C   UNL     1      -2.307  -0.947  -2.078  0.00  0.00    +0.000 C 
ATOM      7  C   UNL     1      -3.629  -2.061  -1.563  0.00  0.00    +0.000 C 
ATOM      8  C   UNL     1      -3.071  -1.825   0.111  0.00  0.00    +0.000 C 
ATOM      9  C   UNL     1      -1.718  -2.494   0.332  0.00  0.00    +0.000 C 
BRANCH   7  10
ATOM     10  N   UNL     1      -4.271  -3.575  -2.608  0.00  0.00    +0.000 N 
ATOM     11  C   UNL     1      -4.692  -1.954  -3.232  0.00  0.00    +0.000 C 
ATOM     12  O   UNL     1      -4.266  -0.894  -3.624  0.00  0.00    +0.000 OA
ATOM     13  C   UNL     1      -5.160  -2.789  -4.105  0.00  0.00    +0.000 C 
ATOM     14  C   UNL     1      -5.643  -2.604  -5.366  0.00  0.00    +0.000 C 
ATOM     15  C   UNL     1      -6.047  -4.019  -5.120  0.00  0.00    +0.000 A 
ATOM     16  C   UNL     1      -7.117  -4.252  -6.283  0.00  0.00    +0.000 A 
ATOM     17  C   UNL     1      -7.599  -5.455  -6.665  0.00  0.00    +0.000 A 
ATOM     18  C   UNL     1      -6.751  -6.383  -6.092  0.00  0.00    +0.000 A 
ATOM     19  C   UNL     1      -5.597  -6.084  -4.803  0.00  0.00    +0.000 A 
ATOM     20  C   UNL     1      -5.176  -4.733  -3.904  0.00  0.00    +0.000 A 
ENDBRANCH   7  10
ENDBRANCH   1   2
BRANCH   1  26
ATOM     21  C   UNL     1       3.017  -0.186   0.886  0.00  0.00    +0.000 A 
ATOM     22  C   UNL     1       4.322   0.375   1.296  0.00  0.00    +0.000 A 
ATOM     23  C   UNL     1       5.193  -0.323   2.052  0.00  0.00    +0.000 A 
ATOM     24  C   UNL     1       4.536  -1.397   2.409  0.00  0.00    +0.000 A 
ATOM     25  C   UNL     1       3.733  -2.131   1.590  0.00  0.00    +0.000 A 
ATOM     26  C   UNL     1       2.653  -1.501   1.138  0.00  0.00    +0.000 A 
BRANCH  21  28
ATOM     27  C   UNL     1       0.988   0.723   0.012  0.00  0.00    +0.000 C 
ATOM     28  O   UNL     1       2.380   0.609   0.001  0.00  0.00    +0.000 OA
ENDBRANCH  21  28
BRANCH  23  29
ATOM     29  O   UNL     1       6.480  -0.131   2.448  0.00  0.00    +0.000 OA
BRANCH  29  30
ATOM     30  C   UNL     1       7.301  -1.222   3.107  0.00  0.00    +0.000 C 
ATOM     31  C   UNL     1       7.488  -2.531   2.284  0.00  0.00    +0.000 C 
ATOM     32  C   UNL     1       6.260  -3.438   2.278  0.00  0.00    +0.000 C 
ATOM     33  N   UNL     1       5.521  -3.581   3.804  0.00  0.00    +0.000 NA
ATOM     34  C   UNL     1       5.633  -2.314   4.815  0.00  0.00    +0.000 C 
ATOM     35  C   UNL     1       6.935  -1.534   4.590  0.00  0.00    +0.000 C 
BRANCH  33  36
ATOM     36  S   UNL     1       3.963  -4.441   3.928  0.00  0.00    +0.000 S 
ATOM     37  C   UNL     1       2.506  -3.442   3.454  0.00  0.00    +0.000 C 
ATOM     38  O   UNL     1       4.033  -5.515   2.956  0.00  0.00    +0.000 OA
ATOM     39  O   UNL     1       3.739  -4.697   5.333  0.00  0.00    +0.000 OA
ENDBRANCH  33  36
ENDBRANCH  29  30
ENDBRANCH  23  29
ENDBRANCH   1  26
TORSDOF 7
