REMARK  Name = CHEMBL1092498
REMARK  7 active torsions:
REMARK  status: ('A' for Active; 'I' for Inactive)
REMARK    1  A    between atoms: C_1  and  O_2
REMARK    2  A    between atoms: O_2  and  C_3
REMARK    3  A    between atoms: C_6  and  N_7
REMARK    4  A    between atoms: N_7  and  C_8
REMARK    5  A    between atoms: C_13  and  O_14
REMARK    6  A    between atoms: O_14  and  C_15
REMARK    7  A    between atoms: C_22  and  C_23
REMARK                            x       y       z     vdW  Elec       q    Type
REMARK                         _______ _______ _______ _____ _____    ______ ____
ROOT
ATOM      1  N   UNL     1       5.272   0.061   5.006  0.00  0.00    +0.000 N 
ATOM      2  C   UNL     1       6.413   0.978   5.070  0.00  0.00    +0.000 C 
ATOM      3  C   UNL     1       5.018  -0.835   6.114  0.00  0.00    +0.000 C 
ATOM      4  O   UNL     1       4.111  -1.642   6.177  0.00  0.00    +0.000 OA
ATOM      5  N   UNL     1       5.987  -0.796   7.134  0.00  0.00    +0.000 N 
ATOM      6  C   UNL     1       6.170  -1.716   8.267  0.00  0.00    +0.000 C 
ATOM      7  C   UNL     1       6.012  -0.518   9.243  0.00  0.00    +0.000 C 
ATOM      8  C   UNL     1       6.286   0.346   7.983  0.00  0.00    +0.000 C 
ENDROOT
BRANCH   1  12
ATOM      9  C   UNL     1       3.124  -0.054   1.284  0.00  0.00    +0.000 A 
ATOM     10  C   UNL     1       2.737  -0.887   2.314  0.00  0.00    +0.000 A 
ATOM     11  C   UNL     1       3.428  -0.846   3.539  0.00  0.00    +0.000 A 
ATOM     12  C   UNL     1       4.516   0.005   3.745  0.00  0.00    +0.000 A 
ATOM     13  C   UNL     1       4.830   0.774   2.607  0.00  0.00    +0.000 A 
ATOM     14  N   UNL     1       4.177   0.766   1.404  0.00  0.00    +0.000 NA
BRANCH   9  16
ATOM     15  C   UNL     1       1.111  -0.060   0.077  0.00  0.00    +0.000 C 
ATOM     16  O   UNL     1       2.536  -0.055   0.048  0.00  0.00    +0.000 OA
ENDBRANCH   9  16
ENDBRANCH   1  12
BRANCH   7  17
ATOM     17  O   UNL     1       4.745  -0.411   9.982  0.00  0.00    +0.000 OA
BRANCH  17  18
ATOM     18  C   UNL     1       4.673   0.524  11.006  0.00  0.00    +0.000 A 
ATOM     19  C   UNL     1       4.546   0.099  12.335  0.00  0.00    +0.000 A 
ATOM     20  C   UNL     1       4.452   1.051  13.363  0.00  0.00    +0.000 A 
ATOM     21  F   UNL     1       4.351   0.650  14.638  0.00  0.00    +0.000 F 
ATOM     22  C   UNL     1       4.475   2.412  13.100  0.00  0.00    +0.000 A 
ATOM     23  C   UNL     1       4.555   2.819  11.787  0.00  0.00    +0.000 A 
ATOM     24  F   UNL     1       4.597   4.131  11.513  0.00  0.00    +0.000 F 
ATOM     25  C   UNL     1       4.620   1.900  10.738  0.00  0.00    +0.000 A 
ATOM     26  C   UNL     1       4.715   2.456   9.369  0.00  0.00    +0.000 C 
ENDBRANCH  17  18
ENDBRANCH   7  17
TORSDOF 4
