REMARK  Name = CHEMBL2035010
REMARK  12 active torsions:
REMARK  status: ('A' for Active; 'I' for Inactive)
REMARK    1  A    between atoms: C_1  and  C_2
REMARK    2  A    between atoms: C_7  and  C_8
REMARK    3  A    between atoms: C_8  and  C_9
REMARK    4  A    between atoms: C_8  and  N_15
REMARK    5  A    between atoms: N_11  and  C_12
REMARK    6  A    between atoms: C_12  and  C_13
REMARK    7  A    between atoms: C_12  and  C_14
REMARK    8  A    between atoms: C_18  and  C_19
REMARK    9  A    between atoms: CA_31  and  CB_32
REMARK   10  A    between atoms: CB_32  and  CG_33
REMARK   11  A    between atoms: CG_33  and  CD1_34
REMARK   12  A    between atoms: CG_33  and  CD2_35
REMARK                            x       y       z     vdW  Elec       q    Type
REMARK                         _______ _______ _______ _____ _____    ______ ____
ROOT
ATOM      1  N   LEU A   1       2.498   2.113   0.284  0.00  0.00    +0.000 N 
ATOM      2  C   UNK A   2       3.015   1.430  -0.770  0.00  0.00    +0.000 C 
ATOM      3  O   UNK A   2       2.241   0.927  -1.621  0.00  0.00    +0.000 OA
ATOM      4  C   UNK A   2       4.568   1.267  -0.829  0.00  0.00    +0.000 C 
ATOM      5  N   UNK A   2       5.157   2.536  -0.502  0.00  0.00    +0.000 N 
ATOM      6  C   LEU A   1       4.946   2.846   0.802  0.00  0.00    +0.000 C 
ATOM      7  O   LEU A   1       5.886   3.278   1.481  0.00  0.00    +0.000 OA
ATOM      8  CA  LEU A   1       3.510   2.553   1.320  0.00  0.00    +0.000 C 
ATOM      9  H   UNK A   2       6.086   2.782  -0.829  0.00  0.00    +0.000 HD
ENDROOT
BRANCH   4  10
ATOM     10  C   UNK A   2       4.776   0.873  -2.232  0.00  0.00    +0.000 C 
ATOM     11  C   UNK A   2       4.470  -0.621  -2.536  0.00  0.00    +0.000 C 
ATOM     12  C   UNK A   2       3.699  -0.469  -3.802  0.00  0.00    +0.000 A 
ATOM     13  C   UNK A   2       2.645  -1.315  -4.159  0.00  0.00    +0.000 A 
ATOM     14  C   UNK A   2       1.589  -0.801  -4.876  0.00  0.00    +0.000 A 
ATOM     15  C   UNK A   2       1.565   0.585  -5.029  0.00  0.00    +0.000 A 
ATOM     16  C   UNK A   2       2.726   1.408  -4.678  0.00  0.00    +0.000 A 
ATOM     17  C   UNK A   2       3.974   0.812  -4.297  0.00  0.00    +0.000 A 
ATOM     18  C   UNK A   2       5.434   1.218  -3.497  0.00  0.00    +0.000 C 
ENDBRANCH   4  10
BRANCH   1  19
ATOM     19  C   UNK A   0       1.020   2.446   0.134  0.00  0.00    +0.000 C 
BRANCH  19  26
ATOM     20  C   UNK A   0      -0.914   1.434   2.353  0.00  0.00    +0.000 C 
ATOM     21  C   UNK A   0      -0.305   2.779   2.347  0.00  0.00    +0.000 A 
ATOM     22  C   UNK A   0      -0.459   3.490   3.532  0.00  0.00    +0.000 A 
ATOM     23  C   UNK A   0      -0.056   4.796   3.601  0.00  0.00    +0.000 A 
ATOM     24  C   UNK A   0       0.309   5.442   2.428  0.00  0.00    +0.000 A 
ATOM     25  C   UNK A   0       0.496   4.732   1.230  0.00  0.00    +0.000 A 
ATOM     26  C   UNK A   0       0.347   3.330   1.224  0.00  0.00    +0.000 A 
ENDBRANCH  19  26
BRANCH  19  27
ATOM     27  C   UNK A   0       0.047   1.244  -0.252  0.00  0.00    +0.000 C 
ATOM     28  O   UNK A   0      -1.016   1.567  -0.801  0.00  0.00    +0.000 OA
ATOM     29  N   UNK A   0       0.231  -0.068   0.235  0.00  0.00    +0.000 N 
ATOM     30  H   UNK A   0       1.080  -0.312   0.732  0.00  0.00    +0.000 HD
BRANCH  29  31
ATOM     31  C   UNK A   0      -0.956  -0.952   0.353  0.00  0.00    +0.000 C 
ATOM     32  C   UNK A   0      -1.595  -1.186  -1.004  0.00  0.00    +0.000 C 
ATOM     33  C   UNK A   0      -0.729  -2.291   1.063  0.00  0.00    +0.000 C 
ENDBRANCH  29  31
ENDBRANCH  19  27
ENDBRANCH   1  19
BRANCH   8  34
ATOM     34  CB  LEU A   1       3.051   3.806   2.005  0.00  0.00    +0.000 C 
BRANCH  34  35
ATOM     35  CG  LEU A   1       3.927   4.960   2.472  0.00  0.00    +0.000 C 
ATOM     36  CD1 LEU A   1       4.475   5.748   1.261  0.00  0.00    +0.000 C 
ATOM     37  CD2 LEU A   1       3.141   6.023   3.238  0.00  0.00    +0.000 C 
ENDBRANCH  34  35
ENDBRANCH   8  34
TORSDOF 7
