REMARK  Name = CHEMBL2172289
REMARK  30 active torsions:
REMARK  status: ('A' for Active; 'I' for Inactive)
REMARK    1  A    between atoms: C_1  and  C_2
REMARK    2  A    between atoms: C_2  and  N_3
REMARK    3  A    between atoms: C_5  and  C_6
REMARK    4  A    between atoms: C_7  and  C_8
REMARK    5  A    between atoms: C_9  and  C_10
REMARK    6  A    between atoms: N_11  and  C_12
REMARK    7  A    between atoms: C_12  and  C_13
REMARK    8  A    between atoms: C_17  and  S_18
REMARK    9  A    between atoms: C_24  and  C_25
REMARK   10  A    between atoms: C_24  and  C_26
REMARK   11  A    between atoms: C_27  and  C_28
REMARK   12  A    between atoms: C_27  and  C_29
REMARK   13  A    between atoms: C_29  and  C_30
REMARK   14  A    between atoms: C_30  and  C_31
REMARK   15  A    between atoms: C_31  and  C_32
REMARK   16  A    between atoms: N_34  and  C_35
REMARK   17  A    between atoms: C_35  and  C_36
REMARK   18  A    between atoms: C_36  and  N_37
REMARK   19  A    between atoms: C_39  and  C_40
REMARK   20  A    between atoms: C_40  and  N_41
REMARK   21  A    between atoms: C_42  and  C_44
REMARK   22  A    between atoms: C_44  and  C_45
REMARK   23  A    between atoms: C_45  and  C_46
REMARK   24  A    between atoms: N_48  and  C_49
REMARK   25  A    between atoms: C_54  and  C_56
REMARK   26  A    between atoms: C_59  and  N_60
REMARK   27  A    between atoms: C_61  and  C_63
REMARK   28  A    between atoms: C_68  and  C_69
REMARK   29  A    between atoms: C_87  and  S_88
REMARK   30  A    between atoms: S_88  and  O_91
REMARK                            x       y       z     vdW  Elec       q    Type
REMARK                         _______ _______ _______ _____ _____    ______ ____
ROOT
ATOM      1  N   UNL     1       1.578  11.317   7.268  0.00  0.00    +0.000 N 
ATOM      2  C   UNL     1       0.384  11.946   7.410  0.00  0.00    +0.000 A 
ATOM      3  C   UNL     1       0.667  13.291   7.377  0.00  0.00    +0.000 A 
ATOM      4  N   UNL     1       2.029  13.430   7.210  0.00  0.00    +0.000 NA
ATOM      5  N   UNL     1       2.574  12.211   7.147  0.00  0.00    +0.000 NA
ENDROOT
BRANCH   3   6
ATOM      6  C   UNL     1      -0.291  14.441   7.497  0.00  0.00    +0.000 C 
BRANCH   6   7
ATOM      7  N   UNL     1      -1.701  13.977   7.673  0.00  0.00    +0.000 N 
ATOM      8  C   UNL     1      -2.770  14.870   7.808  0.00  0.00    +0.000 C 
ATOM      9  O   UNL     1      -2.560  16.081   7.785  0.00  0.00    +0.000 OA
ATOM     10  H   UNL     1      -1.852  12.980   7.686  0.00  0.00    +0.000 HD
BRANCH   8  11
ATOM     11  C   UNL     1      -4.260  14.304   7.996  0.00  0.00    +0.000 C 
BRANCH  11  12
ATOM     12  C   UNL     1      -5.567  15.527   8.199  0.00  0.00    +0.000 C 
BRANCH  12  13
ATOM     13  C   UNL     1      -7.408  14.994   8.582  0.00  0.00    +0.000 C 
ATOM     14  O   UNL     1      -7.317  13.743   8.428  0.00  0.00    +0.000 OA
ATOM     15  N   UNL     1      -8.887  15.945   9.140  0.00  0.00    +0.000 N 
ATOM     16  H   UNL     1      -8.350  16.725   8.673  0.00  0.00    +0.000 HD
BRANCH  15  17
ATOM     17  C   UNL     1     -10.796  16.248   9.782  0.00  0.00    +0.000 C 
ATOM     18  C   UNL     1     -10.552  17.176   8.678  0.00  0.00    +0.000 C 
ATOM     19  C   UNL     1     -11.647  16.164   8.437  0.00  0.00    +0.000 C 
ATOM     20  C   UNL     1     -12.467  17.261   8.299  0.00  0.00    +0.000 C 
ATOM     21  N   UNL     1     -13.698  16.261   8.291  0.00  0.00    +0.000 N 
ATOM     22  C   UNL     1     -14.027  14.870   8.998  0.00  0.00    +0.000 C 
ATOM     23  O   UNL     1     -15.174  14.535   9.326  0.00  0.00    +0.000 OA
ATOM     24  C   UNL     1     -14.027  17.183   9.159  0.00  0.00    +0.000 A 
ATOM     25  C   UNL     1     -14.876  18.458   8.305  0.00  0.00    +0.000 A 
ATOM     26  C   UNL     1     -15.725  19.420   8.733  0.00  0.00    +0.000 A 
ATOM     27  C   UNL     1     -15.940  18.868   9.915  0.00  0.00    +0.000 A 
ATOM     28  C   UNL     1     -14.592  17.715  10.535  0.00  0.00    +0.000 A 
ATOM     29  C   UNL     1     -12.949  16.837  10.372  0.00  0.00    +0.000 A 
BRANCH  22  30
ATOM     30  C   UNL     1     -12.923  13.767   9.211  0.00  0.00    +0.000 A 
ATOM     31  C   UNL     1     -11.757  13.721  10.106  0.00  0.00    +0.000 A 
ATOM     32  C   UNL     1     -10.510  13.253   9.626  0.00  0.00    +0.000 A 
ATOM     33  C   UNL     1     -10.541  12.393   8.584  0.00  0.00    +0.000 A 
ATOM     34  C   UNL     1     -11.809  12.100   8.069  0.00  0.00    +0.000 A 
ATOM     35  C   UNL     1     -12.937  12.883   8.203  0.00  0.00    +0.000 A 
BRANCH  33  36
ATOM     36  N   UNL     1      -9.355  11.747   8.189  0.00  0.00    +0.000 N 
ATOM     37  C   UNL     1      -9.404  10.650   7.349  0.00  0.00    +0.000 C 
ATOM     38  O   UNL     1     -10.433  10.177   6.877  0.00  0.00    +0.000 OA
ATOM     39  H   UNL     1      -8.465  12.119   8.534  0.00  0.00    +0.000 HD
BRANCH  37  40
ATOM     40  C   UNL     1      -8.143   9.988   6.955  0.00  0.00    +0.000 A 
ATOM     41  C   UNL     1      -7.171   9.648   7.899  0.00  0.00    +0.000 A 
ATOM     42  C   UNL     1      -5.916   9.209   7.479  0.00  0.00    +0.000 A 
ATOM     43  C   UNL     1      -5.717   8.863   6.155  0.00  0.00    +0.000 A 
ATOM     44  C   UNL     1      -6.783   8.942   5.264  0.00  0.00    +0.000 A 
ATOM     45  C   UNL     1      -7.961   9.626   5.606  0.00  0.00    +0.000 A 
BRANCH  45  46
ATOM     46  C   UNL     1      -8.954   9.966   4.574  0.00  0.00    +0.000 A 
ATOM     47  C   UNL     1      -9.339  11.299   4.340  0.00  0.00    +0.000 A 
ATOM     48  C   UNL     1     -10.498  11.594   3.627  0.00  0.00    +0.000 A 
ATOM     49  C   UNL     1     -11.131  10.589   2.924  0.00  0.00    +0.000 A 
ATOM     50  C   UNL     1     -10.600   9.305   2.943  0.00  0.00    +0.000 A 
ATOM     51  C   UNL     1      -9.604   8.969   3.856  0.00  0.00    +0.000 A 
ENDBRANCH  45  46
ENDBRANCH  37  40
ENDBRANCH  33  36
ENDBRANCH  22  30
ENDBRANCH  15  17
ENDBRANCH  12  13
ENDBRANCH  11  12
ENDBRANCH   8  11
ENDBRANCH   6   7
ENDBRANCH   3   6
BRANCH   1  52
ATOM     52  C   UNL     1       1.804   9.887   7.232  0.00  0.00    +0.000 C 
BRANCH  52  53
ATOM     53  C   UNL     1       2.205   9.397   5.850  0.00  0.00    +0.000 C 
BRANCH  53  56
ATOM     54  C   UNL     1       2.784   7.340   4.610  0.00  0.00    +0.000 C 
ATOM     55  O   UNL     1       2.965   7.984   3.580  0.00  0.00    +0.000 OA
ATOM     56  N   UNL     1       2.401   7.945   5.790  0.00  0.00    +0.000 N 
ATOM     57  H   UNL     1       2.268   7.397   6.629  0.00  0.00    +0.000 HD
BRANCH  54  58
ATOM     58  C   UNL     1       2.982   5.826   4.667  0.00  0.00    +0.000 C 
BRANCH  58  59
ATOM     59  C   UNL     1       3.399   5.339   3.313  0.00  0.00    +0.000 C 
BRANCH  59  60
ATOM     60  C   UNL     1       3.593   3.842   3.204  0.00  0.00    +0.000 C 
BRANCH  60  64
ATOM     61  N   UNL     1       3.000   1.555   0.636  0.00  0.00    +0.000 N 
ATOM     62  C   UNL     1       4.037   1.840   1.676  0.00  0.00    +0.000 C 
ATOM     63  C   UNL     1       4.918   1.142   2.479  0.00  0.00    +0.000 C 
ATOM     64  C   UNL     1       4.062   3.381   1.814  0.00  0.00    +0.000 C 
ATOM     65  C   UNL     1       5.373   3.941   1.290  0.00  0.00    +0.000 C 
ATOM     66  C   UNL     1       3.055   3.877   0.828  0.00  0.00    +0.000 A 
ATOM     67  C   UNL     1       2.820   5.264   0.600  0.00  0.00    +0.000 A 
ATOM     68  C   UNL     1       1.820   5.700  -0.208  0.00  0.00    +0.000 A 
ATOM     69  C   UNL     1       1.165   4.703  -0.910  0.00  0.00    +0.000 A 
ATOM     70  C   UNL     1       1.496   3.280  -0.736  0.00  0.00    +0.000 A 
ATOM     71  C   UNL     1       2.451   2.817   0.177  0.00  0.00    +0.000 A 
BRANCH  68  72
ATOM     72  S   UNL     1       1.534   7.468  -0.304  0.00  0.00    +0.000 S 
ATOM     73  O   UNL     1       0.947   7.895   0.950  0.00  0.00    +0.000 OA
ATOM     74  O   UNL     1       2.746   8.077  -0.807  0.00  0.00    +0.000 OA
BRANCH  72  75
ATOM     75  O   UNL     1       0.389   7.625  -1.440  0.00  0.00    +0.000 OA
ATOM     76  H   UNL     1      -0.459   7.222  -1.167  0.00  0.00    +0.000 HD
ENDBRANCH  72  75
ENDBRANCH  68  72
BRANCH  63  77
ATOM     77  C   UNL     1       5.891   1.704   3.492  0.00  0.00    +0.000 C 
ATOM     78  C   UNL     1       6.741   1.010   4.273  0.00  0.00    +0.000 C 
BRANCH  78  79
ATOM     79  C   UNL     1       7.620   1.705   5.198  0.00  0.00    +0.000 C 
ATOM     80  C   UNL     1       8.527   1.181   6.022  0.00  0.00    +0.000 C 
BRANCH  80  81
ATOM     81  C   UNL     1       9.571   1.546   7.109  0.00  0.00    +0.000 C 
ATOM     82  N   UNL     1      10.089   0.724   7.949  0.00  0.00    +0.000 N 
ATOM     83  C   UNL     1      10.851   1.321   8.998  0.00  0.00    +0.000 A 
ATOM     84  C   UNL     1      10.513   2.415   9.859  0.00  0.00    +0.000 A 
ATOM     85  C   UNL     1      11.462   3.358  10.484  0.00  0.00    +0.000 A 
ATOM     86  C   UNL     1      12.778   3.054  10.503  0.00  0.00    +0.000 A 
ATOM     87  C   UNL     1      12.964   2.157   9.481  0.00  0.00    +0.000 A 
ATOM     88  C   UNL     1      11.782   1.931   8.319  0.00  0.00    +0.000 A 
ATOM     89  C   UNL     1      10.198   2.879   7.572  0.00  0.00    +0.000 C 
ATOM     90  C   UNL     1      11.107   3.753   6.825  0.00  0.00    +0.000 C 
ATOM     91  C   UNL     1       8.871   3.707   6.566  0.00  0.00    +0.000 C 
BRANCH  86  92
ATOM     92  S   UNL     1      13.997   4.016  11.544  0.00  0.00    +0.000 S 
ATOM     93  O   UNL     1      14.004   5.291  10.835  0.00  0.00    +0.000 OA
ATOM     94  O   UNL     1      13.353   4.051  12.856  0.00  0.00    +0.000 OA
ATOM     95  O   UNL     1      15.245   3.261  11.492  0.00  0.00    +0.000 OA
ENDBRANCH  86  92
BRANCH  82  96
ATOM     96  C   UNL     1      10.324  -0.699   7.746  0.00  0.00    +0.000 C 
ATOM     97  C   UNL     1       9.392  -1.206   6.709  0.00  0.00    +0.000 C 
ENDBRANCH  82  96
ENDBRANCH  80  81
ENDBRANCH  78  79
ENDBRANCH  63  77
BRANCH  61  99
ATOM     98  C   UNL     1       0.983   0.088   0.079  0.00  0.00    +0.000 C 
ATOM     99  C   UNL     1       2.512   0.207   0.109  0.00  0.00    +0.000 C 
ENDBRANCH  61  99
ENDBRANCH  60  64
ENDBRANCH  59  60
ENDBRANCH  58  59
ENDBRANCH  54  58
ENDBRANCH  53  56
ENDBRANCH  52  53
ENDBRANCH   1  52
TORSDOF 25
