REMARK  Name = CHEMBL200729
REMARK  9 active torsions:
REMARK  status: ('A' for Active; 'I' for Inactive)
REMARK    1  A    between atoms: C_1  and  C_2
REMARK    2  A    between atoms: C_5  and  N_6
REMARK    3  A    between atoms: N_6  and  C_7
REMARK    4  A    between atoms: N_6  and  S_22
REMARK    5  A    between atoms: C_7  and  C_8
REMARK    6  A    between atoms: C_8  and  N_10
REMARK    7  A    between atoms: N_11  and  C_12
REMARK    8  A    between atoms: C_13  and  O_14
REMARK    9  A    between atoms: S_22  and  C_25
REMARK                            x       y       z     vdW  Elec       q    Type
REMARK                         _______ _______ _______ _____ _____    ______ ____
ROOT
ATOM      1  N   UNL     1      -3.221  -0.003   0.043  0.00  0.00    +0.000 N 
ENDROOT
BRANCH   1   6
ATOM      2  C   UNL     1       2.567   0.067  -0.046  0.00  0.00    +0.000 C 
ATOM      3  C   UNL     1       1.084   0.109  -0.121  0.00  0.00    +0.000 A 
ATOM      4  C   UNL     1       0.420  -1.083  -0.147  0.00  0.00    +0.000 A 
ATOM      5  C   UNL     1      -0.926  -1.026   0.143  0.00  0.00    +0.000 A 
ATOM      6  C   UNL     1      -1.754   0.096   0.005  0.00  0.00    +0.000 A 
ATOM      7  C   UNL     1      -1.062   1.290  -0.038  0.00  0.00    +0.000 A 
ATOM      8  C   UNL     1       0.344   1.295  -0.042  0.00  0.00    +0.000 A 
ENDBRANCH   1   6
BRANCH   1   9
ATOM      9  S   UNL     1      -4.169   1.519  -0.047  0.00  0.00    +0.000 S 
ATOM     10  O   UNL     1      -3.926   2.201   1.209  0.00  0.00    +0.000 OA
ATOM     11  O   UNL     1      -3.830   2.176  -1.297  0.00  0.00    +0.000 OA
BRANCH   9  12
ATOM     12  C   UNL     1      -5.964   1.254  -0.134  0.00  0.00    +0.000 A 
ATOM     13  C   UNL     1      -6.451  -0.005  -0.110  0.00  0.00    +0.000 A 
ATOM     14  C   UNL     1      -7.761  -0.363  -0.267  0.00  0.00    +0.000 A 
ATOM     15  C   UNL     1      -8.586   0.586  -0.866  0.00  0.00    +0.000 A 
ATOM     16  C   UNL     1      -9.744   0.166  -1.639  0.00  0.00    +0.000 A 
ATOM     17  C   UNL     1     -10.524  -0.513  -0.839  0.00  0.00    +0.000 A 
ATOM     18  C   UNL     1     -10.980   0.616  -0.200  0.00  0.00    +0.000 A 
ATOM     19  C   UNL     1      -9.972   1.960  -0.125  0.00  0.00    +0.000 A 
ATOM     20  C   UNL     1      -8.498   1.750  -0.281  0.00  0.00    +0.000 A 
ATOM     21  C   UNL     1      -6.988   2.254  -0.131  0.00  0.00    +0.000 A 
ENDBRANCH   9  12
ENDBRANCH   1   9
BRANCH   1  22
ATOM     22  C   UNL     1      -3.862  -1.359  -0.013  0.00  0.00    +0.000 C 
BRANCH  22  23
ATOM     23  C   UNL     1      -3.198  -2.708  -0.240  0.00  0.00    +0.000 C 
ATOM     24  O   UNL     1      -2.270  -2.787  -1.048  0.00  0.00    +0.000 OA
BRANCH  23  25
ATOM     25  N   UNL     1      -3.763  -3.863   0.302  0.00  0.00    +0.000 NA
ATOM     26  N   UNL     1      -2.895  -4.766   0.150  0.00  0.00    +0.000 NA
BRANCH  26  27
ATOM     27  C   UNL     1      -3.322  -6.087   0.056  0.00  0.00    +0.000 A 
ATOM     28  C   UNL     1      -2.755  -7.114   0.773  0.00  0.00    +0.000 A 
ATOM     29  N   UNL     1      -3.434  -8.257   0.431  0.00  0.00    +0.000 N 
ATOM     30  C   UNL     1      -4.364  -7.992  -0.559  0.00  0.00    +0.000 A 
ATOM     31  C   UNL     1      -5.289  -8.828  -1.204  0.00  0.00    +0.000 A 
ATOM     32  C   UNL     1      -6.106  -8.260  -2.190  0.00  0.00    +0.000 A 
ATOM     33  C   UNL     1      -5.986  -6.918  -2.539  0.00  0.00    +0.000 A 
ATOM     34  C   UNL     1      -5.060  -6.098  -1.889  0.00  0.00    +0.000 A 
ATOM     35  C   UNL     1      -4.261  -6.629  -0.857  0.00  0.00    +0.000 A 
ATOM     36  H   UNL     1      -3.279  -9.157   0.862  0.00  0.00    +0.000 HD
BRANCH  28  37
ATOM     37  O   UNL     1      -1.778  -7.144   1.673  0.00  0.00    +0.000 OA
ATOM     38  H   UNL     1      -1.413  -6.238   1.725  0.00  0.00    +0.000 HD
ENDBRANCH  28  37
ENDBRANCH  26  27
ENDBRANCH  23  25
ENDBRANCH  22  23
ENDBRANCH   1  22
TORSDOF 8
