REMARK  Name = CHEMBL3814126
REMARK  24 active torsions:
REMARK  status: ('A' for Active; 'I' for Inactive)
REMARK    1  A    between atoms: C_1  and  C_2
REMARK    2  A    between atoms: C_2  and  C_3
REMARK    3  A    between atoms: C_3  and  C_4
REMARK    4  A    between atoms: C_3  and  C_5
REMARK    5  A    between atoms: C_9  and  C_10
REMARK    6  A    between atoms: C_10  and  C_11
REMARK    7  A    between atoms: C_11  and  C_12
REMARK    8  A    between atoms: C_18  and  C_19
REMARK    9  A    between atoms: C_19  and  C_20
REMARK   10  A    between atoms: C_26  and  C_27
REMARK   11  A    between atoms: C_33  and  C_34
REMARK   12  A    between atoms: N_36  and  C_37
REMARK   13  A    between atoms: C_37  and  C_38
REMARK   14  A    between atoms: C_37  and  C_42
REMARK   15  A    between atoms: C_38  and  C_39
REMARK   16  A    between atoms: C_39  and  C_40
REMARK   17  A    between atoms: C_39  and  C_41
REMARK   18  A    between atoms: N_44  and  C_45
REMARK   19  A    between atoms: C_45  and  C_46
REMARK   20  A    between atoms: C_53  and  N_54
REMARK   21  A    between atoms: C_58  and  C_59
REMARK   22  A    between atoms: C_59  and  C_60
REMARK   23  A    between atoms: C_63  and  O_64
REMARK   24  A    between atoms: N_69  and  C_70
REMARK                            x       y       z     vdW  Elec       q    Type
REMARK                         _______ _______ _______ _____ _____    ______ ____
ROOT
ATOM      1  C   UNL     1       2.229  -0.376  -4.175  0.00  0.00    +0.000 C 
ATOM      2  C   UNL     1       0.582  -0.885  -5.557  0.00  0.00    +0.000 C 
ATOM      3  O   UNL     1       0.408  -2.152  -6.030  0.00  0.00    +0.000 OA
ATOM      4  N   UNL     1      -0.825  -0.820  -7.000  0.00  0.00    +0.000 N 
ATOM      5  C   UNL     1      -2.169  -0.513  -8.481  0.00  0.00    +0.000 C 
ATOM      6  C   UNL     1      -1.913  -0.114 -10.203  0.00  0.00    +0.000 C 
ATOM      7  O   UNL     1      -1.917  -0.857 -11.189  0.00  0.00    +0.000 OA
ATOM      8  N   UNL     1      -1.648   1.193 -10.438  0.00  0.00    +0.000 N 
ATOM      9  C   UNL     1      -1.970   2.216  -9.544  0.00  0.00    +0.000 C 
ATOM     10  C   UNL     1      -3.621   2.706  -9.731  0.00  0.00    +0.000 C 
ATOM     11  O   UNL     1      -4.598   1.936  -9.779  0.00  0.00    +0.000 OA
ATOM     12  N   UNL     1      -3.974   4.012  -9.659  0.00  0.00    +0.000 N 
ATOM     13  C   UNL     1      -3.060   5.137  -9.783  0.00  0.00    +0.000 C 
ATOM     14  C   UNL     1      -2.261   5.329  -8.363  0.00  0.00    +0.000 C 
ATOM     15  S   UNL     1      -1.691   3.792  -7.087  0.00  0.00    +0.000 S 
ATOM     16  S   UNL     1       0.140   3.995  -6.448  0.00  0.00    +0.000 S 
ATOM     17  C   UNL     1       0.837   2.317  -6.375  0.00  0.00    +0.000 C 
ATOM     18  C   UNL     1       1.673   2.444  -5.177  0.00  0.00    +0.000 C 
ATOM     19  C   UNL     1       2.774   3.558  -5.297  0.00  0.00    +0.000 C 
ATOM     20  O   UNL     1       2.502   4.752  -5.399  0.00  0.00    +0.000 OA
ATOM     21  N   UNL     1       4.097   3.258  -5.239  0.00  0.00    +0.000 N 
ATOM     22  C   UNL     1       4.696   1.969  -5.188  0.00  0.00    +0.000 C 
ATOM     23  C   UNL     1       4.079   1.423  -4.032  0.00  0.00    +0.000 C 
ATOM     24  O   UNL     1       3.029   1.796  -3.616  0.00  0.00    +0.000 OA
ATOM     25  N   UNL     1       4.225   0.117  -3.926  0.00  0.00    +0.000 N 
ATOM     26  C   UNL     1       5.813   0.515  -2.871  0.00  0.00    +0.000 C 
ATOM     27  H   UNL     1      -1.679  -1.561  -6.936  0.00  0.00    +0.000 HD
ATOM     28  H   UNL     1      -1.041   1.479 -11.191  0.00  0.00    +0.000 HD
ATOM     29  H   UNL     1      -4.982   4.131  -9.652  0.00  0.00    +0.000 HD
ATOM     30  H   UNL     1       4.707   4.040  -5.329  0.00  0.00    +0.000 HD
ENDROOT
BRANCH  13  31
ATOM     31  C   UNL     1      -2.257   4.945 -11.297  0.00  0.00    +0.000 C 
ATOM     32  O   UNL     1      -1.600   3.965 -11.633  0.00  0.00    +0.000 OA
ATOM     33  N   UNL     1      -2.570   5.579 -12.395  0.00  0.00    +0.000 N 
ATOM     34  C   UNL     1      -2.714   6.962 -12.451  0.00  0.00    +0.000 C 
ATOM     35  C   UNL     1      -3.720   6.968 -13.556  0.00  0.00    +0.000 C 
ATOM     36  C   UNL     1      -3.219   5.933 -14.561  0.00  0.00    +0.000 C 
ATOM     37  C   UNL     1      -2.499   4.931 -13.733  0.00  0.00    +0.000 C 
BRANCH  37  38
ATOM     38  C   UNL     1      -1.105   4.982 -14.437  0.00  0.00    +0.000 C 
ATOM     39  O   UNL     1      -0.176   5.582 -13.881  0.00  0.00    +0.000 OA
ATOM     40  N   UNL     1      -0.908   4.087 -15.532  0.00  0.00    +0.000 N 
ATOM     41  H   UNL     1      -1.689   3.669 -16.036  0.00  0.00    +0.000 HD
BRANCH  40  42
ATOM     42  C   UNL     1       0.458   3.628 -15.972  0.00  0.00    +0.000 C 
BRANCH  42  43
ATOM     43  C   UNL     1       0.366   2.972 -17.384  0.00  0.00    +0.000 C 
ATOM     44  O   UNL     1      -0.732   2.786 -17.910  0.00  0.00    +0.000 OA
ATOM     45  N   UNL     1       1.543   2.610 -18.015  0.00  0.00    +0.000 N 
ATOM     46  H   UNL     1       2.430   2.760 -17.570  0.00  0.00    +0.000 HD
BRANCH  45  47
ATOM     47  C   UNL     1       1.556   1.999 -19.347  0.00  0.00    +0.000 C 
BRANCH  47  48
ATOM     48  C   UNL     1       2.962   1.673 -19.892  0.00  0.00    +0.000 C 
ATOM     49  N   UNL     1       4.043   1.973 -19.095  0.00  0.00    +0.000 N 
ATOM     50  O   UNL     1       3.126   1.162 -20.998  0.00  0.00    +0.000 OA
ATOM     51  H   UNL     1       4.006   2.389 -18.183  0.00  0.00    +0.000 HD
ATOM     52  H   UNL     1       4.979   1.770 -19.428  0.00  0.00    +0.000 HD
ENDBRANCH  47  48
ENDBRANCH  45  47
ENDBRANCH  42  43
BRANCH  42  53
ATOM     53  C   UNL     1       1.163   2.617 -15.027  0.00  0.00    +0.000 C 
BRANCH  53  54
ATOM     54  C   UNL     1       1.369   3.135 -13.628  0.00  0.00    +0.000 C 
ATOM     55  C   UNL     1       0.100   3.151 -12.912  0.00  0.00    +0.000 C 
ATOM     56  C   UNL     1       2.027   2.216 -12.671  0.00  0.00    +0.000 C 
ENDBRANCH  53  54
ENDBRANCH  42  53
ENDBRANCH  40  42
ENDBRANCH  37  38
ENDBRANCH  13  31
BRANCH  18  57
ATOM     57  N   UNL     1       0.763   2.622  -3.994  0.00  0.00    +0.000 NA
ATOM     58  H   UNL     1       0.375   3.558  -4.086  0.00  0.00    +0.000 HD
ATOM     59  H   UNL     1       1.358   2.756  -3.193  0.00  0.00    +0.000 HD
ENDBRANCH  18  57
BRANCH   1  60
ATOM     60  C   UNL     1       2.612   0.139  -2.180  0.00  0.00    +0.000 C 
ATOM     61  C   UNL     1       2.779  -0.334  -0.300  0.00  0.00    +0.000 C 
BRANCH  60  63
ATOM     62  C   UNL     1       1.266   1.392  -0.891  0.00  0.00    +0.000 C 
ATOM     63  C   UNL     1       2.499   1.770  -1.564  0.00  0.00    +0.000 C 
ENDBRANCH  60  63
ENDBRANCH   1  60
BRANCH   9  64
ATOM     64  C   UNL     1      -0.957   3.255  -9.604  0.00  0.00    +0.000 C 
BRANCH  64  65
ATOM     65  C   UNL     1       0.469   3.195  -9.613  0.00  0.00    +0.000 C 
ATOM     66  N   UNL     1       0.853   1.930  -9.349  0.00  0.00    +0.000 N 
ATOM     67  O   UNL     1       1.176   4.190  -9.677  0.00  0.00    +0.000 OA
ATOM     68  H   UNL     1       0.184   1.190  -9.162  0.00  0.00    +0.000 HD
ATOM     69  H   UNL     1       1.826   1.750  -9.249  0.00  0.00    +0.000 HD
ENDBRANCH  64  65
ENDBRANCH   9  64
BRANCH  22  70
ATOM     70  C   UNL     1       6.180   1.941  -5.164  0.00  0.00    +0.000 C 
BRANCH  70  71
ATOM     71  C   UNL     1       6.721   2.399  -6.427  0.00  0.00    +0.000 A 
ATOM     72  C   UNL     1       7.177   1.485  -7.360  0.00  0.00    +0.000 A 
ATOM     73  C   UNL     1       7.513   1.955  -8.613  0.00  0.00    +0.000 A 
ATOM     74  C   UNL     1       7.381   3.312  -8.889  0.00  0.00    +0.000 A 
ATOM     75  C   UNL     1       6.967   4.204  -7.919  0.00  0.00    +0.000 A 
ATOM     76  C   UNL     1       6.666   3.753  -6.671  0.00  0.00    +0.000 A 
BRANCH  74  77
ATOM     77  O   UNL     1       7.657   3.867 -10.098  0.00  0.00    +0.000 OA
ATOM     78  H   UNL     1       7.938   3.199 -10.739  0.00  0.00    +0.000 HD
ENDBRANCH  74  77
ENDBRANCH  70  71
ENDBRANCH  22  70
BRANCH   5  79
ATOM     79  C   UNL     1      -3.183   0.465  -7.938  0.00  0.00    +0.000 C 
BRANCH  79  80
ATOM     80  C   UNL     1      -4.413   0.295  -7.152  0.00  0.00    +0.000 C 
BRANCH  80  81
ATOM     81  C   UNL     1      -4.628   1.515  -6.250  0.00  0.00    +0.000 C 
ATOM     82  N   UNL     1      -4.009   2.697  -6.503  0.00  0.00    +0.000 N 
ATOM     83  O   UNL     1      -5.393   1.442  -5.297  0.00  0.00    +0.000 OA
ATOM     84  H   UNL     1      -3.293   2.845  -7.206  0.00  0.00    +0.000 HD
ATOM     85  H   UNL     1      -4.034   3.481  -5.858  0.00  0.00    +0.000 HD
ENDBRANCH  80  81
ENDBRANCH  79  80
ENDBRANCH   5  79
TORSDOF 19
