REMARK  Name = CHEMBL2037491
REMARK  11 active torsions:
REMARK  status: ('A' for Active; 'I' for Inactive)
REMARK    1  A    between atoms: C_1  and  C_2
REMARK    2  A    between atoms: C_5  and  C_6
REMARK    3  A    between atoms: C_6  and  C_7
REMARK    4  A    between atoms: C_6  and  N_12
REMARK    5  A    between atoms: N_9  and  C_10
REMARK    6  A    between atoms: N_9  and  C_11
REMARK    7  A    between atoms: C_15  and  C_16
REMARK    8  A    between atoms: CA_28  and  CB_29
REMARK    9  A    between atoms: CB_29  and  CG_30
REMARK   10  A    between atoms: CG_30  and  CD1_31
REMARK   11  A    between atoms: CG_30  and  CD2_32
REMARK                            x       y       z     vdW  Elec       q    Type
REMARK                         _______ _______ _______ _____ _____    ______ ____
ROOT
ATOM      1  N   LEU A   1      -4.142  -1.105  -0.132  0.00  0.00    +0.000 N 
ATOM      2  C   UNK A   2      -4.228  -1.875   1.041  0.00  0.00    +0.000 C 
ATOM      3  O   UNK A   2      -3.750  -1.463   2.100  0.00  0.00    +0.000 OA
ATOM      4  C   UNK A   2      -4.599  -3.389   0.793  0.00  0.00    +0.000 C 
ATOM      5  N   UNK A   2      -5.837  -3.401   0.091  0.00  0.00    +0.000 N 
ATOM      6  C   LEU A   1      -5.889  -2.796  -1.107  0.00  0.00    +0.000 C 
ATOM      7  O   LEU A   1      -6.834  -3.105  -1.857  0.00  0.00    +0.000 OA
ATOM      8  CA  LEU A   1      -4.767  -1.734  -1.390  0.00  0.00    +0.000 C 
ATOM      9  H   UNK A   2      -6.653  -3.929   0.384  0.00  0.00    +0.000 HD
ENDROOT
BRANCH   4  10
ATOM     10  C   UNK A   2      -4.705  -4.224   2.038  0.00  0.00    +0.000 C 
ATOM     11  C   UNK A   2      -3.343  -4.554   2.674  0.00  0.00    +0.000 C 
ATOM     12  C   UNK A   2      -3.713  -4.578   4.114  0.00  0.00    +0.000 A 
ATOM     13  C   UNK A   2      -2.966  -5.054   5.169  0.00  0.00    +0.000 A 
ATOM     14  C   UNK A   2      -3.515  -4.950   6.446  0.00  0.00    +0.000 A 
ATOM     15  C   UNK A   2      -4.761  -4.332   6.652  0.00  0.00    +0.000 A 
ATOM     16  C   UNK A   2      -5.483  -3.813   5.587  0.00  0.00    +0.000 A 
ATOM     17  C   UNK A   2      -4.957  -3.974   4.327  0.00  0.00    +0.000 A 
ATOM     18  C   UNK A   2      -5.565  -3.483   3.072  0.00  0.00    +0.000 C 
ENDBRANCH   4  10
BRANCH   1  19
ATOM     19  C   UNK A   0      -3.222   0.193  -0.067  0.00  0.00    +0.000 C 
BRANCH  19  24
ATOM     20  C   UNK A   0      -4.799   3.601  -4.564  0.00  0.00    +0.000 C 
ATOM     21  C   UNK A   0      -4.304   2.847  -3.364  0.00  0.00    +0.000 A 
ATOM     22  C   UNK A   0      -5.162   2.717  -2.298  0.00  0.00    +0.000 A 
ATOM     23  C   UNK A   0      -4.754   2.062  -1.126  0.00  0.00    +0.000 A 
ATOM     24  C   UNK A   0      -3.526   1.372  -1.101  0.00  0.00    +0.000 A 
ATOM     25  C   UNK A   0      -2.690   1.674  -2.183  0.00  0.00    +0.000 A 
ATOM     26  N   UNK A   0      -3.040   2.395  -3.294  0.00  0.00    +0.000 NA
ENDBRANCH  19  24
BRANCH  19  27
ATOM     27  C   UNK A   0      -1.600   0.049   0.065  0.00  0.00    +0.000 C 
ATOM     28  O   UNK A   0      -0.923   1.085  -0.055  0.00  0.00    +0.000 OA
ATOM     29  N   UNK A   0      -0.907  -1.127   0.321  0.00  0.00    +0.000 N 
ATOM     30  C   UNK A   0      -1.446  -2.360   0.768  0.00  0.00    +0.000 C 
ATOM     31  C   UNK A   0       0.532  -1.121   0.432  0.00  0.00    +0.000 C 
ENDBRANCH  19  27
ENDBRANCH   1  19
BRANCH   8  32
ATOM     32  CB  LEU A   1      -5.473  -0.633  -2.155  0.00  0.00    +0.000 C 
BRANCH  32  33
ATOM     33  CG  LEU A   1      -6.985  -0.398  -1.975  0.00  0.00    +0.000 C 
ATOM     34  CD1 LEU A   1      -7.402  -0.371  -0.476  0.00  0.00    +0.000 C 
ATOM     35  CD2 LEU A   1      -7.550   0.880  -2.570  0.00  0.00    +0.000 C 
ENDBRANCH  32  33
ENDBRANCH   8  32
TORSDOF 6
