REMARK  Name = CHEMBL194374
REMARK  12 active torsions:
REMARK  status: ('A' for Active; 'I' for Inactive)
REMARK    1  A    between atoms: CD1_1  and  CG_2
REMARK    2  A    between atoms: CG_2  and  CD2_3
REMARK    3  A    between atoms: CG_2  and  CB_4
REMARK    4  A    between atoms: CB_4  and  CA_5
REMARK    5  A    between atoms: C_9  and  C_10
REMARK    6  A    between atoms: N_21  and  C_22
REMARK    7  A    between atoms: C_22  and  C_23
REMARK    8  A    between atoms: C_22  and  C_30
REMARK    9  A    between atoms: N_25  and  C_26
REMARK   10  A    between atoms: C_26  and  C_27
REMARK   11  A    between atoms: C_26  and  C_28
REMARK   12  A    between atoms: C_26  and  C_29
REMARK                            x       y       z     vdW  Elec       q    Type
REMARK                         _______ _______ _______ _____ _____    ______ ____
ROOT
ATOM      1  CA  LEU A   2       4.660   0.702   1.069  0.00  0.00    +0.000 C 
ATOM      2  C   LEU A   2       5.047   0.446   2.536  0.00  0.00    +0.000 C 
ATOM      3  O   LEU A   2       4.386  -0.108   3.380  0.00  0.00    +0.000 OA
ATOM      4  N   UNK A   1       6.325   0.834   2.798  0.00  0.00    +0.000 N 
ATOM      5  C   UNK A   1       7.193   1.402   1.787  0.00  0.00    +0.000 C 
ATOM      6  C   UNK A   1       6.422   2.428   0.952  0.00  0.00    +0.000 C 
ATOM      7  O   UNK A   1       7.043   3.387   0.518  0.00  0.00    +0.000 OA
ATOM      8  N   LEU A   2       5.075   2.138   0.722  0.00  0.00    +0.000 N 
ATOM      9  H   UNK A   1       6.632   0.635   3.741  0.00  0.00    +0.000 HD
ENDROOT
BRANCH   5  10
ATOM     10  C   UNK A   1       8.365   2.206   2.394  0.00  0.00    +0.000 C 
ATOM     11  C   UNK A   1       9.300   1.344   3.242  0.00  0.00    +0.000 C 
ATOM     12  C   UNK A   1       8.667   1.479   4.591  0.00  0.00    +0.000 A 
ATOM     13  C   UNK A   1       8.772   0.611   5.657  0.00  0.00    +0.000 A 
ATOM     14  C   UNK A   1       7.987   0.858   6.783  0.00  0.00    +0.000 A 
ATOM     15  C   UNK A   1       7.107   1.953   6.825  0.00  0.00    +0.000 A 
ATOM     16  C   UNK A   1       7.006   2.827   5.744  0.00  0.00    +0.000 A 
ATOM     17  C   UNK A   1       7.807   2.588   4.642  0.00  0.00    +0.000 A 
ATOM     18  C   UNK A   1       7.811   3.318   3.337  0.00  0.00    +0.000 C 
ENDBRANCH   5  10
BRANCH   1  19
ATOM     19  CB  LEU A   2       3.195   0.407   0.944  0.00  0.00    +0.000 C 
BRANCH  19  21
ATOM     20  CD1 LEU A   2       1.003  -0.114  -0.160  0.00  0.00    +0.000 C 
ATOM     21  CG  LEU A   2       2.538  -0.234  -0.259  0.00  0.00    +0.000 C 
ATOM     22  CD2 LEU A   2       2.970   0.495  -1.532  0.00  0.00    +0.000 C 
ENDBRANCH  19  21
ENDBRANCH   1  19
BRANCH   8  23
ATOM     23  C   UNK A   0       4.121   3.230   0.171  0.00  0.00    +0.000 C 
BRANCH  23  24
ATOM     24  C   UNK A   0       4.831   4.469  -0.451  0.00  0.00    +0.000 A 
ATOM     25  C   UNK A   0       4.616   5.779   0.000  0.00  0.00    +0.000 A 
ATOM     26  C   UNK A   0       5.254   6.880  -0.547  0.00  0.00    +0.000 A 
ATOM     27  C   UNK A   0       6.285   6.684  -1.441  0.00  0.00    +0.000 A 
ATOM     28  C   UNK A   0       6.573   5.398  -1.888  0.00  0.00    +0.000 A 
ATOM     29  C   UNK A   0       5.791   4.312  -1.472  0.00  0.00    +0.000 A 
ENDBRANCH  23  24
BRANCH  23  30
ATOM     30  C   UNK A   0       2.846   3.661   1.118  0.00  0.00    +0.000 C 
ATOM     31  O   UNK A   0       2.604   4.821   1.443  0.00  0.00    +0.000 OA
ATOM     32  N   UNK A   0       1.908   2.733   1.539  0.00  0.00    +0.000 N 
ATOM     33  H   UNK A   0       1.581   2.046   0.893  0.00  0.00    +0.000 HD
BRANCH  32  34
ATOM     34  C   UNK A   0       0.843   2.995   2.480  0.00  0.00    +0.000 C 
ATOM     35  C   UNK A   0       1.473   3.526   3.763  0.00  0.00    +0.000 C 
ATOM     36  C   UNK A   0      -0.146   3.921   1.774  0.00  0.00    +0.000 C 
ATOM     37  C   UNK A   0       0.133   1.660   2.811  0.00  0.00    +0.000 C 
ENDBRANCH  32  34
ENDBRANCH  23  30
ENDBRANCH   8  23
TORSDOF 7
