REMARK  Name = CHEMBL2037505
REMARK  10 active torsions:
REMARK  status: ('A' for Active; 'I' for Inactive)
REMARK    1  A    between atoms: CD1_1  and  CG1_2
REMARK    2  A    between atoms: CG1_2  and  CB_3
REMARK    3  A    between atoms: CB_3  and  CG2_4
REMARK    4  A    between atoms: CB_3  and  CA_5
REMARK    5  A    between atoms: C_9  and  C_10
REMARK    6  A    between atoms: N_21  and  C_22
REMARK    7  A    between atoms: C_22  and  C_23
REMARK    8  A    between atoms: C_22  and  C_31
REMARK    9  A    between atoms: C_33  and  C_34
REMARK   10  A    between atoms: C_37  and  C_38
REMARK                            x       y       z     vdW  Elec       q    Type
REMARK                         _______ _______ _______ _____ _____    ______ ____
ROOT
ATOM      1  CA  ILE A   2       4.861  -0.706  -1.329  0.00  0.00    +0.000 C 
ATOM      2  C   ILE A   2       5.170  -2.078  -0.625  0.00  0.00    +0.000 C 
ATOM      3  O   ILE A   2       4.514  -3.123  -0.650  0.00  0.00    +0.000 OA
ATOM      4  N   UNK A   1       6.370  -2.078  -0.009  0.00  0.00    +0.000 N 
ATOM      5  C   UNK A   1       7.285  -0.970  -0.187  0.00  0.00    +0.000 C 
ATOM      6  C   UNK A   1       6.540   0.293   0.153  0.00  0.00    +0.000 C 
ATOM      7  O   UNK A   1       7.148   1.198   0.770  0.00  0.00    +0.000 OA
ATOM      8  N   ILE A   2       5.236   0.367  -0.288  0.00  0.00    +0.000 N 
ATOM      9  H   UNK A   1       6.645  -2.967   0.394  0.00  0.00    +0.000 HD
ENDROOT
BRANCH   5  10
ATOM     10  C   UNK A   1       8.459  -0.995   0.790  0.00  0.00    +0.000 C 
ATOM     11  C   UNK A   1       9.306  -2.239   0.566  0.00  0.00    +0.000 C 
ATOM     12  C   UNK A   1       8.651  -3.194   1.515  0.00  0.00    +0.000 A 
ATOM     13  C   UNK A   1       8.644  -4.570   1.437  0.00  0.00    +0.000 A 
ATOM     14  C   UNK A   1       7.854  -5.275   2.345  0.00  0.00    +0.000 A 
ATOM     15  C   UNK A   1       7.071  -4.603   3.299  0.00  0.00    +0.000 A 
ATOM     16  C   UNK A   1       7.062  -3.211   3.359  0.00  0.00    +0.000 A 
ATOM     17  C   UNK A   1       7.869  -2.523   2.470  0.00  0.00    +0.000 A 
ATOM     18  C   UNK A   1       7.945  -1.045   2.263  0.00  0.00    +0.000 C 
ENDBRANCH   5  10
BRANCH   1  19
ATOM     19  CB  ILE A   2       3.443  -0.678  -1.899  0.00  0.00    +0.000 C 
ATOM     20  CG2 ILE A   2       2.691   0.235  -1.048  0.00  0.00    +0.000 C 
BRANCH  19  22
ATOM     21  CD1 ILE A   2       3.712   1.106  -3.463  0.00  0.00    +0.000 C 
ATOM     22  CG1 ILE A   2       2.917  -0.121  -3.171  0.00  0.00    +0.000 C 
ENDBRANCH  19  22
ENDBRANCH   1  19
BRANCH   8  23
ATOM     23  C   UNK A   0       4.254   1.350   0.431  0.00  0.00    +0.000 C 
BRANCH  23  24
ATOM     24  C   UNK A   0       2.705   0.806   1.437  0.00  0.00    +0.000 C 
ATOM     25  O   UNK A   0       2.177   1.611   2.232  0.00  0.00    +0.000 OA
ATOM     26  N   UNK A   0       1.735  -0.418   1.121  0.00  0.00    +0.000 N 
ATOM     27  C   UNK A   0       1.950  -1.806   0.415  0.00  0.00    +0.000 C 
ATOM     28  C   UNK A   0       1.094  -2.010  -0.976  0.00  0.00    +0.000 C 
ATOM     29  O   UNK A   0      -0.282  -1.704  -0.793  0.00  0.00    +0.000 OA
ATOM     30  C   UNK A   0      -0.408  -0.322  -0.371  0.00  0.00    +0.000 C 
ATOM     31  C   UNK A   0       0.279  -0.099   1.039  0.00  0.00    +0.000 C 
ENDBRANCH  23  24
BRANCH  23  32
ATOM     32  C   UNK A   0       4.973   2.613   0.929  0.00  0.00    +0.000 A 
ATOM     33  C   UNK A   0       4.680   2.934   2.225  0.00  0.00    +0.000 A 
ATOM     34  C   UNK A   0       5.366   3.878   2.924  0.00  0.00    +0.000 A 
ATOM     35  C   UNK A   0       4.919   4.044   4.331  0.00  0.00    +0.000 C 
ATOM     36  C   UNK A   0       6.399   4.504   2.263  0.00  0.00    +0.000 A 
ATOM     37  N   UNK A   0       6.678   4.328   0.939  0.00  0.00    +0.000 NA
ATOM     38  C   UNK A   0       5.955   3.396   0.252  0.00  0.00    +0.000 A 
ATOM     39  C   UNK A   0       6.386   3.177  -1.196  0.00  0.00    +0.000 C 
ENDBRANCH  23  32
ENDBRANCH   8  23
TORSDOF 6
