REMARK  Name = CHEMBL279782
REMARK  7 active torsions:
REMARK  status: ('A' for Active; 'I' for Inactive)
REMARK    1  A    between atoms: C_1  and  N_2
REMARK    2  A    between atoms: N_7  and  C_8
REMARK    3  A    between atoms: C_8  and  C_9
REMARK    4  A    between atoms: N_11  and  C_12
REMARK    5  A    between atoms: C_12  and  C_13
REMARK    6  A    between atoms: C_17  and  C_18
REMARK    7  A    between atoms: C_23  and  N_24
REMARK                            x       y       z     vdW  Elec       q    Type
REMARK                         _______ _______ _______ _____ _____    ______ ____
ROOT
ATOM      1  C   UNL     1       2.427   6.569  -3.661  0.00  0.00    +0.000 A 
ATOM      2  C   UNL     1       2.042   6.419  -4.976  0.00  0.00    +0.000 A 
ATOM      3  C   UNL     1       2.180   7.681  -5.598  0.00  0.00    +0.000 A 
ATOM      4  C   UNL     1       1.946   8.182  -6.895  0.00  0.00    +0.000 A 
ATOM      5  C   UNL     1       2.168   9.542  -7.149  0.00  0.00    +0.000 A 
ATOM      6  C   UNL     1       2.577  10.370  -6.089  0.00  0.00    +0.000 A 
ATOM      7  C   UNL     1       2.863   9.892  -4.805  0.00  0.00    +0.000 A 
ATOM      8  C   UNL     1       2.637   8.539  -4.602  0.00  0.00    +0.000 A 
ATOM      9  O   UNL     1       2.798   7.863  -3.426  0.00  0.00    +0.000 OA
ENDROOT
BRANCH   5  10
ATOM     10  C   UNL     1       1.862  10.095  -8.520  0.00  0.00    +0.000 C 
ATOM     11  O   UNL     1       1.302   9.397  -9.358  0.00  0.00    +0.000 OA
ATOM     12  N   UNL     1       2.121  11.449  -8.696  0.00  0.00    +0.000 N 
ATOM     13  C   UNL     1       1.153  12.290  -9.418  0.00  0.00    +0.000 C 
ATOM     14  C   UNL     1       1.173  13.697  -8.840  0.00  0.00    +0.000 C 
ATOM     15  C   UNL     1       2.599  14.263  -8.789  0.00  0.00    +0.000 C 
ATOM     16  C   UNL     1       3.499  13.327  -7.968  0.00  0.00    +0.000 C 
ATOM     17  C   UNL     1       3.501  11.938  -8.578  0.00  0.00    +0.000 C 
BRANCH  15  18
ATOM     18  N   UNL     1       3.211  14.632 -10.104  0.00  0.00    +0.000 N 
ATOM     19  C   UNL     1       3.602  13.720 -11.091  0.00  0.00    +0.000 C 
ATOM     20  O   UNL     1       2.998  12.744 -11.523  0.00  0.00    +0.000 OA
ATOM     21  O   UNL     1       4.865  13.925 -11.533  0.00  0.00    +0.000 OA
ATOM     22  C   UNL     1       4.908  15.110 -12.292  0.00  0.00    +0.000 C 
ATOM     23  C   UNL     1       4.336  16.247 -11.506  0.00  0.00    +0.000 A 
ATOM     24  C   UNL     1       4.608  17.552 -11.910  0.00  0.00    +0.000 A 
ATOM     25  C   UNL     1       4.066  18.617 -11.206  0.00  0.00    +0.000 A 
ATOM     26  C   UNL     1       3.245  18.381 -10.107  0.00  0.00    +0.000 A 
ATOM     27  C   UNL     1       2.964  17.076  -9.701  0.00  0.00    +0.000 A 
ATOM     28  C   UNL     1       3.512  15.994 -10.396  0.00  0.00    +0.000 A 
ENDBRANCH  15  18
ENDBRANCH   5  10
BRANCH   1  29
ATOM     29  C   UNL     1       2.409   5.618  -2.528  0.00  0.00    +0.000 C 
BRANCH  29  32
ATOM     30  C   UNL     1       3.270   3.454  -1.862  0.00  0.00    +0.000 C 
ATOM     31  O   UNL     1       2.365   3.465  -1.031  0.00  0.00    +0.000 OA
ATOM     32  N   UNL     1       3.332   4.507  -2.753  0.00  0.00    +0.000 N 
ATOM     33  H   UNL     1       3.941   4.514  -3.559  0.00  0.00    +0.000 HD
BRANCH  30  34
ATOM     34  C   UNL     1       4.294   2.293  -2.001  0.00  0.00    +0.000 C 
BRANCH  34  41
ATOM     35  C   UNL     1       1.068   0.047   0.138  0.00  0.00    +0.000 C 
ATOM     36  N   UNL     1       2.516   0.015   0.075  0.00  0.00    +0.000 N 
ATOM     37  C   UNL     1       3.257  -1.219   0.092  0.00  0.00    +0.000 C 
ATOM     38  C   UNL     1       4.190  -1.250  -1.094  0.00  0.00    +0.000 C 
ATOM     39  C   UNL     1       4.959   0.052  -1.157  0.00  0.00    +0.000 C 
ATOM     40  O   UNL     1       6.175   0.089  -1.323  0.00  0.00    +0.000 OA
ATOM     41  N   UNL     1       4.124   1.148  -1.090  0.00  0.00    +0.000 N 
ATOM     42  C   UNL     1       3.268   1.181  -0.001  0.00  0.00    +0.000 C 
ATOM     43  O   UNL     1       3.219   2.054   0.855  0.00  0.00    +0.000 OA
ENDBRANCH  34  41
ENDBRANCH  30  34
ENDBRANCH  29  32
ENDBRANCH   1  29
TORSDOF 6
