REMARK  Name = CHEMBL68978
REMARK  8 active torsions:
REMARK  status: ('A' for Active; 'I' for Inactive)
REMARK    1  A    between atoms: C_1  and  O_2
REMARK    2  A    between atoms: O_2  and  C_3
REMARK    3  A    between atoms: C_5  and  O_6
REMARK    4  A    between atoms: O_6  and  C_7
REMARK    5  A    between atoms: N_10  and  C_11
REMARK    6  A    between atoms: C_11  and  C_12
REMARK    7  A    between atoms: C_22  and  C_23
REMARK    8  A    between atoms: C_28  and  N_29
REMARK                            x       y       z     vdW  Elec       q    Type
REMARK                         _______ _______ _______ _____ _____    ______ ____
ROOT
ATOM      1  C   UNL     1       2.940  -0.044  -0.898  0.00  0.00    +0.000 A 
ATOM      2  C   UNL     1       4.138  -0.787  -1.196  0.00  0.00    +0.000 A 
ATOM      3  C   UNL     1       4.867  -0.505  -2.302  0.00  0.00    +0.000 A 
ATOM      4  C   UNL     1       4.192   0.377  -3.078  0.00  0.00    +0.000 A 
ATOM      5  C   UNL     1       3.078   1.170  -2.856  0.00  0.00    +0.000 A 
ATOM      6  C   UNL     1       2.392   0.999  -1.704  0.00  0.00    +0.000 A 
ENDROOT
BRANCH   6   7
ATOM      7  C   UNL     1       1.135   1.883  -1.646  0.00  0.00    +0.000 C 
ATOM      8  O   UNL     1       0.813   2.490  -2.679  0.00  0.00    +0.000 OA
ATOM      9  N   UNL     1       0.296   1.929  -0.491  0.00  0.00    +0.000 N 
ATOM     10  C   UNL     1      -1.038   1.274  -0.598  0.00  0.00    +0.000 C 
ATOM     11  C   UNL     1      -2.064   1.844   0.389  0.00  0.00    +0.000 C 
ATOM     12  C   UNL     1      -1.679   1.583   2.156  0.00  0.00    +0.000 C 
ATOM     13  C   UNL     1      -0.162   2.523   1.953  0.00  0.00    +0.000 C 
ATOM     14  C   UNL     1       0.852   2.007   0.873  0.00  0.00    +0.000 C 
BRANCH  12  15
ATOM     15  N   UNL     1      -2.785   0.727   3.379  0.00  0.00    +0.000 N 
ATOM     16  C   UNL     1      -3.693   0.619   2.370  0.00  0.00    +0.000 C 
ATOM     17  O   UNL     1      -4.298   1.660   1.853  0.00  0.00    +0.000 OA
ATOM     18  O   UNL     1      -3.743  -0.533   1.738  0.00  0.00    +0.000 OA
ATOM     19  C   UNL     1      -4.648  -1.182   2.576  0.00  0.00    +0.000 C 
ATOM     20  C   UNL     1      -3.615  -1.723   3.487  0.00  0.00    +0.000 A 
ATOM     21  C   UNL     1      -2.902  -2.912   3.712  0.00  0.00    +0.000 A 
ATOM     22  C   UNL     1      -3.171  -3.726   4.827  0.00  0.00    +0.000 A 
ATOM     23  C   UNL     1      -3.991  -3.118   5.720  0.00  0.00    +0.000 A 
ATOM     24  C   UNL     1      -4.099  -1.581   5.466  0.00  0.00    +0.000 A 
ATOM     25  C   UNL     1      -3.207  -0.818   4.321  0.00  0.00    +0.000 A 
ENDBRANCH  12  15
ENDBRANCH   6   7
BRANCH   1  27
ATOM     26  C   UNL     1       1.090  -0.856   0.106  0.00  0.00    +0.000 C 
ATOM     27  O   UNL     1       2.433  -0.503   0.285  0.00  0.00    +0.000 OA
ENDBRANCH   1  27
BRANCH   3  28
ATOM     28  O   UNL     1       6.096  -1.018  -2.573  0.00  0.00    +0.000 OA
BRANCH  28  29
ATOM     29  C   UNL     1       6.975  -0.586  -3.673  0.00  0.00    +0.000 C 
ATOM     30  C   UNL     1       7.363   0.908  -3.775  0.00  0.00    +0.000 C 
ATOM     31  C   UNL     1       6.274   1.790  -4.374  0.00  0.00    +0.000 C 
ATOM     32  N   UNL     1       5.678   1.189  -5.633  0.00  0.00    +0.000 NA
ATOM     33  C   UNL     1       5.470  -0.308  -5.654  0.00  0.00    +0.000 C 
ATOM     34  C   UNL     1       6.563  -1.128  -5.033  0.00  0.00    +0.000 C 
BRANCH  32  35
ATOM     35  C   UNL     1       4.421   1.905  -5.984  0.00  0.00    +0.000 C 
BRANCH  35  36
ATOM     36  C   UNL     1       3.753   1.470  -7.256  0.00  0.00    +0.000 A 
ATOM     37  C   UNL     1       3.209   0.186  -7.425  0.00  0.00    +0.000 A 
ATOM     38  C   UNL     1       2.723  -0.186  -8.655  0.00  0.00    +0.000 A 
ATOM     39  N   UNL     1       2.610   0.675  -9.677  0.00  0.00    +0.000 NA
ATOM     40  C   UNL     1       3.010   1.948  -9.446  0.00  0.00    +0.000 A 
ATOM     41  C   UNL     1       3.591   2.389  -8.275  0.00  0.00    +0.000 A 
ENDBRANCH  35  36
ENDBRANCH  32  35
ENDBRANCH  28  29
ENDBRANCH   3  28
TORSDOF 7
