REMARK  Name = CHEMBL24074
REMARK  8 active torsions:
REMARK  status: ('A' for Active; 'I' for Inactive)
REMARK    1  A    between atoms: C_1  and  C_2
REMARK    2  A    between atoms: N_4  and  C_5
REMARK    3  A    between atoms: C_7  and  C_8
REMARK    4  A    between atoms: N_20  and  C_21
REMARK    5  A    between atoms: C_21  and  C_22
REMARK    6  A    between atoms: N_24  and  C_25
REMARK    7  A    between atoms: C_25  and  C_26
REMARK    8  A    between atoms: C_26  and  C_27
REMARK                            x       y       z     vdW  Elec       q    Type
REMARK                         _______ _______ _______ _____ _____    ______ ____
ROOT
ATOM      1  C   UNL     1       4.753   1.225   0.326  0.00  0.00    +0.000 C 
ATOM      2  N   UNL     1       5.266   0.118   1.120  0.00  0.00    +0.000 NA
ATOM      3  C   UNL     1       6.519  -0.173   1.082  0.00  0.00    +0.000 C 
ATOM      4  C   UNL     1       7.556   0.612   0.351  0.00  0.00    +0.000 A 
ATOM      5  C   UNL     1       8.653  -0.085  -0.188  0.00  0.00    +0.000 A 
ATOM      6  C   UNL     1       9.715   0.599  -0.777  0.00  0.00    +0.000 A 
ATOM      7  C   UNL     1       9.657   1.978  -0.907  0.00  0.00    +0.000 A 
ATOM      8  C   UNL     1       8.539   2.671  -0.446  0.00  0.00    +0.000 A 
ATOM      9  C   UNL     1       7.522   2.018   0.274  0.00  0.00    +0.000 A 
ATOM     10  N   UNL     1       6.589   2.819   1.006  0.00  0.00    +0.000 N 
ATOM     11  C   UNL     1       5.217   2.548   1.013  0.00  0.00    +0.000 C 
ATOM     12  O   UNL     1       4.406   3.349   1.495  0.00  0.00    +0.000 OA
ENDROOT
BRANCH   3  13
ATOM     13  C   UNL     1       6.955  -1.369   1.859  0.00  0.00    +0.000 A 
ATOM     14  C   UNL     1       6.435  -2.639   1.585  0.00  0.00    +0.000 A 
ATOM     15  C   UNL     1       6.799  -3.720   2.395  0.00  0.00    +0.000 A 
ATOM     16  C   UNL     1       7.738  -3.546   3.414  0.00  0.00    +0.000 A 
ATOM     17  C   UNL     1       8.322  -2.296   3.621  0.00  0.00    +0.000 A 
ATOM     18  C   UNL     1       7.895  -1.196   2.879  0.00  0.00    +0.000 A 
ENDBRANCH   3  13
BRANCH   1  22
ATOM     19  C   UNL     1       1.122   0.094   0.078  0.00  0.00    +0.000 C 
ATOM     20  C   UNL     1       2.624  -0.011   0.020  0.00  0.00    +0.000 C 
ATOM     21  O   UNL     1       3.159  -1.075  -0.285  0.00  0.00    +0.000 OA
ATOM     22  N   UNL     1       3.300   1.149   0.317  0.00  0.00    +0.000 N 
ATOM     23  H   UNL     1       2.802   2.016   0.474  0.00  0.00    +0.000 HD
ENDBRANCH   1  22
BRANCH  10  24
ATOM     24  C   UNL     1       7.068   3.996   1.778  0.00  0.00    +0.000 C 
BRANCH  24  25
ATOM     25  C   UNL     1       8.581   4.129   2.058  0.00  0.00    +0.000 C 
ATOM     26  O   UNL     1       9.363   3.170   2.024  0.00  0.00    +0.000 OA
ATOM     27  N   UNL     1       9.069   5.379   2.374  0.00  0.00    +0.000 N 
ATOM     28  H   UNL     1       8.478   6.039   2.868  0.00  0.00    +0.000 HD
BRANCH  27  29
ATOM     29  C   UNL     1      10.512   5.496   2.438  0.00  0.00    +0.000 C 
BRANCH  29  30
ATOM     30  C   UNL     1      11.028   6.698   3.211  0.00  0.00    +0.000 C 
BRANCH  30  31
ATOM     31  C   UNL     1      12.538   6.788   3.166  0.00  0.00    +0.000 A 
ATOM     32  C   UNL     1      13.148   8.045   3.109  0.00  0.00    +0.000 A 
ATOM     33  C   UNL     1      14.535   8.153   2.997  0.00  0.00    +0.000 A 
ATOM     34  C   UNL     1      15.316   7.008   2.838  0.00  0.00    +0.000 A 
ATOM     35  C   UNL     1      14.721   5.755   2.920  0.00  0.00    +0.000 A 
ATOM     36 CL   UNL     1      15.660   4.334   2.670  0.00  0.00    +0.000 Cl
ATOM     37  C   UNL     1      13.356   5.644   3.164  0.00  0.00    +0.000 A 
ENDBRANCH  30  31
ENDBRANCH  29  30
ENDBRANCH  27  29
ENDBRANCH  24  25
ENDBRANCH  10  24
TORSDOF 7
