REMARK  Name = CHEMBL408691
REMARK  11 active torsions:
REMARK  status: ('A' for Active; 'I' for Inactive)
REMARK    1  A    between atoms: C_1  and  C_2
REMARK    2  A    between atoms: C_4  and  C_5
REMARK    3  A    between atoms: C_5  and  C_6
REMARK    4  A    between atoms: C_5  and  N_11
REMARK    5  A    between atoms: N_8  and  C_9
REMARK    6  A    between atoms: N_8  and  C_10
REMARK    7  A    between atoms: C_14  and  C_15
REMARK    8  A    between atoms: CA_27  and  CB_28
REMARK    9  A    between atoms: CB_28  and  CG_29
REMARK   10  A    between atoms: CG_29  and  CD1_30
REMARK   11  A    between atoms: CG_29  and  CD2_31
REMARK                            x       y       z     vdW  Elec       q    Type
REMARK                         _______ _______ _______ _____ _____    ______ ____
ROOT
ATOM      1  N   LEU A   1       1.230  -3.800   0.142  0.00  0.00    +0.000 N 
ATOM      2  C   UNK A   2       0.378  -4.192  -0.878  0.00  0.00    +0.000 C 
ATOM      3  O   UNK A   2       0.148  -3.535  -1.840  0.00  0.00    +0.000 OA
ATOM      4  C   UNK A   2      -0.385  -5.507  -0.787  0.00  0.00    +0.000 C 
ATOM      5  N   UNK A   2       0.568  -6.470  -0.365  0.00  0.00    +0.000 N 
ATOM      6  C   LEU A   1       0.989  -6.260   0.906  0.00  0.00    +0.000 C 
ATOM      7  O   LEU A   1       1.146  -7.242   1.619  0.00  0.00    +0.000 OA
ATOM      8  CA  LEU A   1       1.246  -4.753   1.270  0.00  0.00    +0.000 C 
ATOM      9  H   UNK A   2       0.483  -7.450  -0.604  0.00  0.00    +0.000 HD
ENDROOT
BRANCH   4  10
ATOM     10  C   UNK A   2      -0.973  -5.897  -2.134  0.00  0.00    +0.000 C 
ATOM     11  C   UNK A   2      -2.039  -4.908  -2.669  0.00  0.00    +0.000 C 
ATOM     12  C   UNK A   2      -1.945  -5.176  -4.134  0.00  0.00    +0.000 A 
ATOM     13  C   UNK A   2      -2.856  -4.807  -5.104  0.00  0.00    +0.000 A 
ATOM     14  C   UNK A   2      -2.599  -5.182  -6.421  0.00  0.00    +0.000 A 
ATOM     15  C   UNK A   2      -1.425  -5.877  -6.752  0.00  0.00    +0.000 A 
ATOM     16  C   UNK A   2      -0.484  -6.197  -5.773  0.00  0.00    +0.000 A 
ATOM     17  C   UNK A   2      -0.760  -5.846  -4.465  0.00  0.00    +0.000 A 
ATOM     18  C   UNK A   2       0.090  -6.064  -3.257  0.00  0.00    +0.000 C 
ENDBRANCH   4  10
BRANCH   1  19
ATOM     19  C   UNK A   0       2.086  -2.434   0.034  0.00  0.00    +0.000 C 
BRANCH  19  23
ATOM     20  C   UNK A   0       6.090  -3.420   3.322  0.00  0.00    +0.000 C 
ATOM     21  C   UNK A   0       4.966  -2.622   2.613  0.00  0.00    +0.000 A 
ATOM     22  N   UNK A   0       4.475  -2.736   1.371  0.00  0.00    +0.000 NA
ATOM     23  C   UNK A   0       3.172  -2.081   1.228  0.00  0.00    +0.000 A 
ATOM     24  C   UNK A   0       2.987  -1.204   2.282  0.00  0.00    +0.000 A 
ATOM     25  S   UNK A   0       4.080  -1.501   3.575  0.00  0.00    +0.000 S 
ENDBRANCH  19  23
BRANCH  19  26
ATOM     26  C   UNK A   0       1.000  -1.301  -0.080  0.00  0.00    +0.000 C 
ATOM     27  O   UNK A   0       0.560  -0.752   0.940  0.00  0.00    +0.000 OA
ATOM     28  N   UNK A   0       0.390  -1.025  -1.312  0.00  0.00    +0.000 N 
ATOM     29  C   UNK A   0       0.843  -1.487  -2.640  0.00  0.00    +0.000 C 
ATOM     30  C   UNK A   0      -0.957  -0.472  -1.263  0.00  0.00    +0.000 C 
ENDBRANCH  19  26
ENDBRANCH   1  19
BRANCH   8  31
ATOM     31  CB  LEU A   1       2.616  -4.708   1.822  0.00  0.00    +0.000 C 
BRANCH  31  32
ATOM     32  CG  LEU A   1       3.396  -5.978   2.007  0.00  0.00    +0.000 C 
ATOM     33  CD1 LEU A   1       3.857  -6.535   0.648  0.00  0.00    +0.000 C 
ATOM     34  CD2 LEU A   1       4.661  -5.642   2.677  0.00  0.00    +0.000 C 
ENDBRANCH  31  32
ENDBRANCH   8  31
TORSDOF 6
