REMARK  Name = CHEMBL2037500
REMARK  9 active torsions:
REMARK  status: ('A' for Active; 'I' for Inactive)
REMARK    1  A    between atoms: CD1_1  and  CG1_2
REMARK    2  A    between atoms: CG1_2  and  CB_3
REMARK    3  A    between atoms: CB_3  and  CG2_4
REMARK    4  A    between atoms: CB_3  and  CA_5
REMARK    5  A    between atoms: C_9  and  C_10
REMARK    6  A    between atoms: N_21  and  C_22
REMARK    7  A    between atoms: C_22  and  C_23
REMARK    8  A    between atoms: C_22  and  C_31
REMARK    9  A    between atoms: C_34  and  C_35
REMARK                            x       y       z     vdW  Elec       q    Type
REMARK                         _______ _______ _______ _____ _____    ______ ____
ROOT
ATOM      1  CA  ILE A   2       4.782   1.096  -0.505  0.00  0.00    +0.000 C 
ATOM      2  C   ILE A   2       5.392   2.183   0.363  0.00  0.00    +0.000 C 
ATOM      3  O   ILE A   2       5.220   2.483   1.562  0.00  0.00    +0.000 OA
ATOM      4  N   UNK A   1       6.342   2.874  -0.203  0.00  0.00    +0.000 N 
ATOM      5  C   UNK A   1       7.220   2.173  -1.077  0.00  0.00    +0.000 C 
ATOM      6  C   UNK A   1       6.395   1.899  -2.312  0.00  0.00    +0.000 C 
ATOM      7  O   UNK A   1       6.984   1.979  -3.385  0.00  0.00    +0.000 OA
ATOM      8  N   ILE A   2       5.036   1.539  -2.062  0.00  0.00    +0.000 N 
ATOM      9  H   UNK A   1       6.676   3.507   0.509  0.00  0.00    +0.000 HD
ENDROOT
BRANCH   5  10
ATOM     10  C   UNK A   1       8.414   3.069  -1.392  0.00  0.00    +0.000 C 
ATOM     11  C   UNK A   1       9.178   3.313  -0.075  0.00  0.00    +0.000 C 
ATOM     12  C   UNK A   1       8.520   4.571   0.433  0.00  0.00    +0.000 A 
ATOM     13  C   UNK A   1       8.360   4.957   1.755  0.00  0.00    +0.000 A 
ATOM     14  C   UNK A   1       7.531   6.048   2.033  0.00  0.00    +0.000 A 
ATOM     15  C   UNK A   1       6.849   6.716   1.003  0.00  0.00    +0.000 A 
ATOM     16  C   UNK A   1       6.967   6.291  -0.322  0.00  0.00    +0.000 A 
ATOM     17  C   UNK A   1       7.812   5.224  -0.595  0.00  0.00    +0.000 A 
ATOM     18  C   UNK A   1       7.949   4.471  -1.892  0.00  0.00    +0.000 C 
ENDBRANCH   5  10
BRANCH   1  19
ATOM     19  CB  ILE A   2       3.339   0.964   0.014  0.00  0.00    +0.000 C 
ATOM     20  CG2 ILE A   2       2.914   2.398   0.988  0.00  0.00    +0.000 C 
BRANCH  19  22
ATOM     21  CD1 ILE A   2       1.114  -0.814   0.504  0.00  0.00    +0.000 C 
ATOM     22  CG1 ILE A   2       2.700  -0.479   0.448  0.00  0.00    +0.000 C 
ENDBRANCH  19  22
ENDBRANCH   1  19
BRANCH   8  23
ATOM     23  C   UNK A   0       4.021   1.487  -3.305  0.00  0.00    +0.000 C 
BRANCH  23  24
ATOM     24  C   UNK A   0       2.654   2.544  -3.440  0.00  0.00    +0.000 C 
ATOM     25  O   UNK A   0       2.516   3.500  -4.196  0.00  0.00    +0.000 OA
ATOM     26  N   UNK A   0       1.593   2.364  -2.603  0.00  0.00    +0.000 N 
ATOM     27  C   UNK A   0       1.848   2.762  -1.282  0.00  0.00    +0.000 C 
ATOM     28  C   UNK A   0       1.025   1.668  -0.562  0.00  0.00    +0.000 C 
ATOM     29  O   UNK A   0      -0.364   1.751  -0.653  0.00  0.00    +0.000 OA
ATOM     30  C   UNK A   0      -0.607   1.493  -2.031  0.00  0.00    +0.000 C 
ATOM     31  C   UNK A   0       0.149   2.599  -2.806  0.00  0.00    +0.000 C 
ENDBRANCH  23  24
BRANCH  23  32
ATOM     32  C   UNK A   0       4.750   1.504  -4.705  0.00  0.00    +0.000 A 
ATOM     33  C   UNK A   0       5.770   0.603  -5.070  0.00  0.00    +0.000 A 
ATOM     34  C   UNK A   0       6.556   0.849  -6.213  0.00  0.00    +0.000 A 
ATOM     35  C   UNK A   0       6.217   1.898  -7.053  0.00  0.00    +0.000 A 
ATOM     36  C   UNK A   0       6.919   2.209  -8.325  0.00  0.00    +0.000 C 
ATOM     37  N   UNK A   0       5.196   2.712  -6.796  0.00  0.00    +0.000 NA
ATOM     38  C   UNK A   0       4.537   2.520  -5.641  0.00  0.00    +0.000 A 
ENDBRANCH  23  32
ENDBRANCH   8  23
TORSDOF 6
