REMARK  Name = CHEMBL2113177
REMARK  10 active torsions:
REMARK  status: ('A' for Active; 'I' for Inactive)
REMARK    1  A    between atoms: C_2  and  C_3
REMARK    2  A    between atoms: C_3  and  N_4
REMARK    3  A    between atoms: N_4  and  C_5
REMARK    4  A    between atoms: N_4  and  S_12
REMARK    5  A    between atoms: S_12  and  C_15
REMARK    6  A    between atoms: C_18  and  N_19
REMARK    7  A    between atoms: N_19  and  C_20
REMARK    8  A    between atoms: C_20  and  C_21
REMARK    9  A    between atoms: C_21  and  N_22
REMARK   10  A    between atoms: N_30  and  N_31
REMARK                            x       y       z     vdW  Elec       q    Type
REMARK                         _______ _______ _______ _____ _____    ______ ____
ROOT
ATOM      1  N   UNL     1       2.092  -0.291   2.440  0.00  0.00    +0.000 N 
ENDROOT
BRANCH   1   2
ATOM      2  C   UNL     1       0.665  -0.347   2.248  0.00  0.00    +0.000 A 
ATOM      3  C   UNL     1       0.093  -1.200   1.309  0.00  0.00    +0.000 A 
ATOM      4  C   UNL     1      -1.263  -1.082   0.974  0.00  0.00    +0.000 A 
ATOM      5  C   UNL     1      -2.094  -0.231   1.695  0.00  0.00    +0.000 A 
ATOM      6 CL   UNL     1      -3.765  -0.119   1.316  0.00  0.00    +0.000 Cl
ATOM      7  C   UNL     1      -1.566   0.546   2.711  0.00  0.00    +0.000 A 
ATOM      8  C   UNL     1      -0.186   0.537   2.918  0.00  0.00    +0.000 A 
ENDBRANCH   1   2
BRANCH   1   9
ATOM      9  S   UNL     1       2.730  -0.428   4.046  0.00  0.00    +0.000 S 
ATOM     10  O   UNL     1       3.443  -1.689   4.137  0.00  0.00    +0.000 OA
ATOM     11  O   UNL     1       3.426   0.805   4.360  0.00  0.00    +0.000 OA
BRANCH   9  12
ATOM     12  C   UNL     1       1.361  -0.542   5.228  0.00  0.00    +0.000 A 
ATOM     13  C   UNL     1       0.813   0.610   5.819  0.00  0.00    +0.000 A 
ATOM     14  C   UNL     1      -0.182   0.511   6.798  0.00  0.00    +0.000 A 
ATOM     15  C   UNL     1      -0.663  -0.729   7.201  0.00  0.00    +0.000 A 
ATOM     16  C   UNL     1      -0.082  -1.875   6.626  0.00  0.00    +0.000 A 
ATOM     17  C   UNL     1       0.915  -1.791   5.646  0.00  0.00    +0.000 A 
BRANCH  15  18
ATOM     18  N   UNL     1      -1.558  -0.770   8.276  0.00  0.00    +0.000 N 
ATOM     19  H   UNL     1      -2.189   0.028   8.342  0.00  0.00    +0.000 HD
BRANCH  18  20
ATOM     20  C   UNL     1      -2.141  -2.064   8.567  0.00  0.00    +0.000 C 
BRANCH  20  21
ATOM     21  C   UNL     1      -3.282  -1.958   9.552  0.00  0.00    +0.000 C 
BRANCH  21  22
ATOM     22  N   UNL     1      -4.175  -3.133   9.771  0.00  0.00    +0.000 NA
ATOM     23  C   UNL     1      -3.964  -4.405   9.005  0.00  0.00    +0.000 C 
ATOM     24  C   UNL     1      -4.091  -4.300   7.472  0.00  0.00    +0.000 C 
ATOM     25  O   UNL     1      -5.274  -3.580   7.083  0.00  0.00    +0.000 OA
ATOM     26  C   UNL     1      -5.421  -2.349   7.806  0.00  0.00    +0.000 C 
ATOM     27  C   UNL     1      -5.486  -2.607   9.338  0.00  0.00    +0.000 C 
ENDBRANCH  21  22
ENDBRANCH  20  21
ENDBRANCH  18  20
ENDBRANCH  15  18
ENDBRANCH   9  12
ENDBRANCH   1   9
BRANCH   1  28
ATOM     28  C   UNL     1       3.111  -0.133   1.234  0.00  0.00    +0.000 C 
BRANCH  28  30
ATOM     29  O   UNL     1       1.331   0.334  -0.393  0.00  0.00    +0.000 OA
ATOM     30  C   UNL     1       2.557   0.191  -0.248  0.00  0.00    +0.000 C 
ATOM     31  N   UNL     1       3.223   0.122  -1.506  0.00  0.00    +0.000 N 
ATOM     32  H   UNL     1       2.407   0.050  -2.144  0.00  0.00    +0.000 HD
BRANCH  31  33
ATOM     33  N   UNL     1       4.065   1.216  -2.291  0.00  0.00    +0.000 NA
ATOM     34  C   UNL     1       4.184   1.028  -3.647  0.00  0.00    +0.000 C 
ATOM     35  C   UNL     1       4.150  -0.379  -3.975  0.00  0.00    +0.000 C 
ATOM     36  O   UNL     1       2.989  -0.790  -3.921  0.00  0.00    +0.000 OA
ATOM     37  N   UNL     1       5.107  -0.419  -4.929  0.00  0.00    +0.000 N 
ATOM     38  C   UNL     1       4.514   0.397  -5.896  0.00  0.00    +0.000 A 
ATOM     39  C   UNL     1       4.887  -0.182  -7.222  0.00  0.00    +0.000 A 
ATOM     40  C   UNL     1       4.263   0.146  -8.381  0.00  0.00    +0.000 A 
ATOM     41  C   UNL     1       3.251   1.012  -8.115  0.00  0.00    +0.000 A 
ATOM     42  C   UNL     1       3.051   1.616  -6.668  0.00  0.00    +0.000 A 
ATOM     43  C   UNL     1       3.531   1.381  -5.308  0.00  0.00    +0.000 A 
ATOM     44  H   UNL     1       5.981   0.058  -4.694  0.00  0.00    +0.000 HD
ENDBRANCH  31  33
ENDBRANCH  28  30
ENDBRANCH   1  28
TORSDOF 10
