REMARK  Name = CHEMBL286084
REMARK  2 active torsions:
REMARK  status: ('A' for Active; 'I' for Inactive)
REMARK    1  A    between atoms: C_2  and  C_3
REMARK    2  A    between atoms: C_15  and  N_16
REMARK                            x       y       z     vdW  Elec       q    Type
REMARK                         _______ _______ _______ _____ _____    ______ ____
ROOT
ATOM      1  O   UNL     1       1.091  -0.159   0.148  0.00  0.00    +0.000 OA
ATOM      2  C   UNL     1       2.310  -0.043   0.105  0.00  0.00    +0.000 C 
ATOM      3  N   UNL     1       3.077   0.490   1.127  0.00  0.00    +0.000 N 
ATOM      4  C   UNL     1       4.210   1.384   0.890  0.00  0.00    +0.000 C 
ATOM      5  C   UNL     1       5.411   0.890   1.671  0.00  0.00    +0.000 C 
ATOM      6  C   UNL     1       5.067   0.733   3.169  0.00  0.00    +0.000 C 
ATOM      7  C   UNL     1       3.806  -0.130   3.358  0.00  0.00    +0.000 C 
ATOM      8  C   UNL     1       2.634   0.349   2.508  0.00  0.00    +0.000 C 
ENDROOT
BRANCH   6   9
ATOM      9  N   UNL     1       5.075   2.041   3.892  0.00  0.00    +0.000 N 
ATOM     10  C   UNL     1       4.211   3.099   3.607  0.00  0.00    +0.000 C 
ATOM     11  O   UNL     1       2.998   3.058   3.445  0.00  0.00    +0.000 OA
ATOM     12  O   UNL     1       4.850   4.281   3.434  0.00  0.00    +0.000 OA
ATOM     13  C   UNL     1       5.387   4.729   4.659  0.00  0.00    +0.000 C 
ATOM     14  C   UNL     1       6.191   3.650   5.314  0.00  0.00    +0.000 A 
ATOM     15  C   UNL     1       7.058   3.985   6.355  0.00  0.00    +0.000 A 
ATOM     16  C   UNL     1       7.788   2.991   6.991  0.00  0.00    +0.000 A 
ATOM     17  C   UNL     1       7.645   1.664   6.598  0.00  0.00    +0.000 A 
ATOM     18  C   UNL     1       6.777   1.323   5.559  0.00  0.00    +0.000 A 
ATOM     19  C   UNL     1       6.045   2.313   4.901  0.00  0.00    +0.000 A 
ENDBRANCH   6   9
BRANCH   2  20
ATOM     20  C   UNL     1       3.058  -0.638  -1.035  0.00  0.00    +0.000 A 
ATOM     21  C   UNL     1       2.590  -0.462  -2.340  0.00  0.00    +0.000 A 
ATOM     22  C   UNL     1       3.276  -1.017  -3.430  0.00  0.00    +0.000 A 
ATOM     23  C   UNL     1       4.435  -1.739  -3.144  0.00  0.00    +0.000 A 
ATOM     24  O   UNL     1       5.267  -2.316  -4.057  0.00  0.00    +0.000 OA
ATOM     25  C   UNL     1       6.276  -2.905  -3.361  0.00  0.00    +0.000 A 
ATOM     26  C   UNL     1       6.092  -2.738  -2.007  0.00  0.00    +0.000 A 
ATOM     27  C   UNL     1       4.909  -1.969  -1.858  0.00  0.00    +0.000 A 
ATOM     28  C   UNL     1       4.190  -1.437  -0.776  0.00  0.00    +0.000 A 
ENDBRANCH   2  20
TORSDOF 2
