REMARK  Name = CHEMBL268306
REMARK  21 active torsions:
REMARK  status: ('A' for Active; 'I' for Inactive)
REMARK    1  A    between atoms: C_1  and  C_2
REMARK    2  A    between atoms: C_2  and  C_3
REMARK    3  A    between atoms: C_2  and  C_4
REMARK    4  A    between atoms: C_4  and  C_5
REMARK    5  A    between atoms: C_9  and  C_10
REMARK    6  A    between atoms: C_10  and  C_11
REMARK    7  A    between atoms: C_20  and  C_21
REMARK    8  A    between atoms: C_21  and  C_22
REMARK    9  A    between atoms: C_25  and  O_26
REMARK   10  A    between atoms: C_37  and  C_38
REMARK   11  A    between atoms: C_44  and  C_45
REMARK   12  A    between atoms: N_47  and  C_48
REMARK   13  A    between atoms: C_48  and  C_49
REMARK   14  A    between atoms: C_48  and  C_56
REMARK   15  A    between atoms: C_49  and  C_50
REMARK   16  A    between atoms: C_50  and  C_51
REMARK   17  A    between atoms: C_51  and  N_52
REMARK   18  A    between atoms: N_58  and  C_59
REMARK   19  A    between atoms: C_59  and  C_60
REMARK   20  A    between atoms: C_66  and  C_67
REMARK   21  A    between atoms: C_67  and  C_68
REMARK                            x       y       z     vdW  Elec       q    Type
REMARK                         _______ _______ _______ _____ _____    ______ ____
ROOT
ATOM      1  C   UNL     1       4.974   0.771  -1.027  0.00  0.00    +0.000 C 
ATOM      2  N   UNL     1       5.759   0.288  -2.500  0.00  0.00    +0.000 N 
ATOM      3  C   UNL     1       5.767  -0.721  -3.509  0.00  0.00    +0.000 C 
ATOM      4  O   UNL     1       6.234  -0.617  -4.646  0.00  0.00    +0.000 OA
ATOM      5  C   UNL     1       5.082  -2.009  -3.182  0.00  0.00    +0.000 C 
ATOM      6  N   UNL     1       3.717  -1.991  -3.393  0.00  0.00    +0.000 N 
ATOM      7  C   UNL     1       3.331  -1.895  -4.705  0.00  0.00    +0.000 C 
ATOM      8  O   UNL     1       2.107  -1.940  -4.808  0.00  0.00    +0.000 OA
ATOM      9  C   UNL     1       3.675  -1.541  -6.155  0.00  0.00    +0.000 C 
ATOM     10  N   UNL     1       2.687  -2.448  -6.856  0.00  0.00    +0.000 N 
ATOM     11  C   UNL     1       1.312  -2.448  -7.181  0.00  0.00    +0.000 C 
ATOM     12  O   UNL     1       1.005  -3.462  -7.829  0.00  0.00    +0.000 OA
ATOM     13  C   UNL     1       0.032  -1.443  -6.862  0.00  0.00    +0.000 C 
ATOM     14  C   UNL     1       0.290  -0.188  -6.132  0.00  0.00    +0.000 C 
ATOM     15  S   UNL     1      -0.784   1.442  -5.056  0.00  0.00    +0.000 S 
ATOM     16  S   UNL     1       0.275   1.835  -2.534  0.00  0.00    +0.000 S 
ATOM     17  C   UNL     1      -0.243   4.106  -1.973  0.00  0.00    +0.000 C 
ATOM     18  C   UNL     1       0.749   5.141  -1.560  0.00  0.00    +0.000 C 
ATOM     19  N   UNL     1       1.395   4.420  -0.438  0.00  0.00    +0.000 N 
ATOM     20  C   UNL     1       2.118   3.280  -0.530  0.00  0.00    +0.000 C 
ATOM     21  O   UNL     1       2.375   2.475   0.360  0.00  0.00    +0.000 OA
ATOM     22  C   UNL     1       2.661   3.057  -1.832  0.00  0.00    +0.000 C 
ATOM     23  N   UNL     1       4.441   3.186  -1.398  0.00  0.00    +0.000 N 
ATOM     24  C   UNL     1       5.421   2.214  -1.126  0.00  0.00    +0.000 C 
ATOM     25  O   UNL     1       6.589   2.438  -1.517  0.00  0.00    +0.000 OA
ATOM     26  H   UNL     1       6.436   0.990  -2.825  0.00  0.00    +0.000 HD
ATOM     27  H   UNL     1       3.073  -1.701  -2.594  0.00  0.00    +0.000 HD
ATOM     28  H   UNL     1       3.196  -3.244  -7.177  0.00  0.00    +0.000 HD
ATOM     29  H   UNL     1       0.842   4.307   0.392  0.00  0.00    +0.000 HD
ATOM     30  H   UNL     1       5.126   3.475  -2.141  0.00  0.00    +0.000 HD
ENDROOT
BRANCH  18  31
ATOM     31  C   UNL     1       1.664   6.043  -2.790  0.00  0.00    +0.000 C 
ATOM     32  O   UNL     1       2.814   6.301  -2.413  0.00  0.00    +0.000 OA
ATOM     33  N   UNL     1       1.227   6.069  -4.241  0.00  0.00    +0.000 N 
ATOM     34  C   UNL     1       0.000   6.671  -4.616  0.00  0.00    +0.000 C 
ATOM     35  C   UNL     1      -0.259   6.259  -6.061  0.00  0.00    +0.000 C 
ATOM     36  C   UNL     1       1.059   6.380  -6.742  0.00  0.00    +0.000 C 
ATOM     37  C   UNL     1       2.000   5.948  -5.610  0.00  0.00    +0.000 C 
BRANCH  37  38
ATOM     38  C   UNL     1       2.201   4.674  -6.483  0.00  0.00    +0.000 C 
ATOM     39  O   UNL     1       3.005   4.813  -7.434  0.00  0.00    +0.000 OA
ATOM     40  N   UNL     1       1.579   3.488  -5.945  0.00  0.00    +0.000 N 
ATOM     41  H   UNL     1       0.773   3.791  -5.439  0.00  0.00    +0.000 HD
BRANCH  40  42
ATOM     42  C   UNL     1       2.279   1.954  -5.297  0.00  0.00    +0.000 C 
BRANCH  42  43
ATOM     43  C   UNL     1       1.447   0.592  -4.134  0.00  0.00    +0.000 C 
ATOM     44  O   UNL     1       0.305   0.118  -3.939  0.00  0.00    +0.000 OA
ATOM     45  N   UNL     1       1.756  -0.472  -3.351  0.00  0.00    +0.000 N 
ATOM     46  H   UNL     1       2.101  -0.789  -4.197  0.00  0.00    +0.000 HD
BRANCH  45  47
ATOM     47  C   UNL     1       0.649  -1.805  -3.147  0.00  0.00    +0.000 C 
BRANCH  47  48
ATOM     48  C   UNL     1       0.993  -3.471  -3.472  0.00  0.00    +0.000 C 
ATOM     49  N   UNL     1       1.947  -3.971  -4.372  0.00  0.00    +0.000 N 
ATOM     50  O   UNL     1       0.243  -4.315  -2.981  0.00  0.00    +0.000 OA
ATOM     51  H   UNL     1       2.258  -3.376  -5.134  0.00  0.00    +0.000 HD
ATOM     52  H   UNL     1       2.479  -4.822  -4.417  0.00  0.00    +0.000 HD
ENDBRANCH  47  48
ENDBRANCH  45  47
ENDBRANCH  42  43
BRANCH  42  53
ATOM     53  C   UNL     1       4.494   2.071  -5.214  0.00  0.00    +0.000 C 
BRANCH  53  54
ATOM     54  C   UNL     1       5.669   2.725  -5.878  0.00  0.00    +0.000 C 
BRANCH  54  55
ATOM     55  C   UNL     1       6.735   2.488  -4.917  0.00  0.00    +0.000 C 
BRANCH  55  56
ATOM     56  N   UNL     1       7.619   3.362  -5.557  0.00  0.00    +0.000 NA
ATOM     57  C   UNL     1       8.761   3.332  -5.048  0.00  0.00    +0.000 C 
ATOM     58  N   UNL     1       9.142   2.572  -4.028  0.00  0.00    +0.000 N 
ATOM     59  N   UNL     1       9.566   4.160  -5.671  0.00  0.00    +0.000 N 
ATOM     60  H   UNL     1       8.435   2.072  -3.497  0.00  0.00    +0.000 HD
ATOM     61  H   UNL     1      10.055   2.616  -3.643  0.00  0.00    +0.000 HD
ATOM     62  H   UNL     1       9.120   4.640  -6.453  0.00  0.00    +0.000 HD
ATOM     63  H   UNL     1      10.536   4.222  -5.489  0.00  0.00    +0.000 HD
ENDBRANCH  55  56
ENDBRANCH  54  55
ENDBRANCH  53  54
ENDBRANCH  42  53
ENDBRANCH  40  42
ENDBRANCH  37  38
ENDBRANCH  18  31
BRANCH  22  64
ATOM     64  C   UNL     1       1.498   3.655  -3.280  0.00  0.00    +0.000 C 
BRANCH  64  65
ATOM     65  C   UNL     1      -0.434   3.443  -3.873  0.00  0.00    +0.000 C 
ATOM     66  N   UNL     1      -1.650   2.659  -2.815  0.00  0.00    +0.000 N 
ATOM     67  O   UNL     1      -1.023   4.010  -4.824  0.00  0.00    +0.000 OA
ATOM     68  H   UNL     1      -1.055   2.214  -1.999  0.00  0.00    +0.000 HD
ATOM     69  H   UNL     1      -1.912   1.647  -2.924  0.00  0.00    +0.000 HD
ENDBRANCH  64  65
ENDBRANCH  22  64
BRANCH   9  70
ATOM     70  C   UNL     1       3.407  -0.325  -7.026  0.00  0.00    +0.000 C 
BRANCH  70  71
ATOM     71  C   UNL     1       3.587   0.765  -6.220  0.00  0.00    +0.000 A 
ATOM     72  C   UNL     1       3.660   0.567  -4.375  0.00  0.00    +0.000 A 
ATOM     73  C   UNL     1       3.991   1.922  -3.333  0.00  0.00    +0.000 A 
ATOM     74  C   UNL     1       4.180   3.610  -3.825  0.00  0.00    +0.000 A 
ATOM     75  C   UNL     1       3.905   3.928  -5.454  0.00  0.00    +0.000 A 
ATOM     76  C   UNL     1       3.609   2.580  -6.793  0.00  0.00    +0.000 A 
BRANCH  74  77
ATOM     77  O   UNL     1       4.592   4.684  -3.102  0.00  0.00    +0.000 OA
ATOM     78  H   UNL     1       4.325   4.713  -2.148  0.00  0.00    +0.000 HD
ENDBRANCH  74  77
ENDBRANCH  70  71
ENDBRANCH   9  70
BRANCH   5  79
ATOM     79  C   UNL     1       5.482  -2.186  -1.800  0.00  0.00    +0.000 C 
BRANCH  79  80
ATOM     80  C   UNL     1       6.986  -2.208  -1.842  0.00  0.00    +0.000 A 
ATOM     81  C   UNL     1       7.519  -3.446  -1.841  0.00  0.00    +0.000 A 
ATOM     82  C   UNL     1       8.883  -3.507  -1.670  0.00  0.00    +0.000 A 
ATOM     83  C   UNL     1       9.724  -2.372  -1.673  0.00  0.00    +0.000 A 
ATOM     84  C   UNL     1       9.222  -1.121  -1.797  0.00  0.00    +0.000 A 
ATOM     85  C   UNL     1       7.881  -1.083  -1.943  0.00  0.00    +0.000 A 
ENDBRANCH  79  80
ENDBRANCH   5  79
BRANCH   1  86
ATOM     86  C   UNL     1       4.756   0.375   0.457  0.00  0.00    +0.000 C 
BRANCH  86  88
ATOM     87  C   UNL     1       6.880  -0.551   0.556  0.00  0.00    +0.000 C 
ATOM     88  C   UNL     1       5.457  -0.870   0.847  0.00  0.00    +0.000 C 
ATOM     89  C   UNL     1       5.353  -1.349   2.235  0.00  0.00    +0.000 C 
ENDBRANCH  86  88
ENDBRANCH   1  86
TORSDOF 19
