REMARK  Name = CHEMBL377414
REMARK  10 active torsions:
REMARK  status: ('A' for Active; 'I' for Inactive)
REMARK    1  A    between atoms: CD1_1  and  CG_2
REMARK    2  A    between atoms: CG_2  and  CD2_3
REMARK    3  A    between atoms: CG_2  and  CB_4
REMARK    4  A    between atoms: CB_4  and  CA_5
REMARK    5  A    between atoms: C_9  and  C_10
REMARK    6  A    between atoms: N_21  and  C_22
REMARK    7  A    between atoms: C_22  and  C_23
REMARK    8  A    between atoms: C_22  and  C_28
REMARK    9  A    between atoms: N_25  and  C_26
REMARK   10  A    between atoms: N_25  and  C_27
REMARK                            x       y       z     vdW  Elec       q    Type
REMARK                         _______ _______ _______ _____ _____    ______ ____
ROOT
ATOM      1  CA  LEU A   2       4.821   1.122   0.052  0.00  0.00    +0.000 C 
ATOM      2  C   LEU A   2       5.174   2.472   0.755  0.00  0.00    +0.000 C 
ATOM      3  O   LEU A   2       4.510   3.128   1.526  0.00  0.00    +0.000 OA
ATOM      4  N   UNK A   1       6.401   2.906   0.423  0.00  0.00    +0.000 N 
ATOM      5  C   UNK A   1       7.250   2.169  -0.471  0.00  0.00    +0.000 C 
ATOM      6  C   UNK A   1       6.451   1.752  -1.710  0.00  0.00    +0.000 C 
ATOM      7  O   UNK A   1       7.041   1.716  -2.773  0.00  0.00    +0.000 OA
ATOM      8  N   LEU A   2       5.110   1.372  -1.465  0.00  0.00    +0.000 N 
ATOM      9  H   UNK A   1       6.650   3.763   0.896  0.00  0.00    +0.000 HD
ENDROOT
BRANCH   5  10
ATOM     10  C   UNK A   1       8.430   3.024  -0.955  0.00  0.00    +0.000 C 
ATOM     11  C   UNK A   1       9.259   3.467   0.256  0.00  0.00    +0.000 C 
ATOM     12  C   UNK A   1       8.602   4.775   0.591  0.00  0.00    +0.000 A 
ATOM     13  C   UNK A   1       8.525   5.374   1.835  0.00  0.00    +0.000 A 
ATOM     14  C   UNK A   1       7.707   6.498   1.976  0.00  0.00    +0.000 A 
ATOM     15  C   UNK A   1       6.964   6.991   0.891  0.00  0.00    +0.000 A 
ATOM     16  C   UNK A   1       7.015   6.361  -0.353  0.00  0.00    +0.000 A 
ATOM     17  C   UNK A   1       7.845   5.260  -0.490  0.00  0.00    +0.000 A 
ATOM     18  C   UNK A   1       7.940   4.326  -1.659  0.00  0.00    +0.000 C 
ENDBRANCH   5  10
BRANCH   1  19
ATOM     19  CB  LEU A   2       3.405   0.914   0.496  0.00  0.00    +0.000 C 
BRANCH  19  21
ATOM     20  CD1 LEU A   2       1.053  -0.576   0.407  0.00  0.00    +0.000 C 
ATOM     21  CG  LEU A   2       2.644  -0.479   0.378  0.00  0.00    +0.000 C 
ATOM     22  CD2 LEU A   2       3.055  -1.284  -0.852  0.00  0.00    +0.000 C 
ENDBRANCH  19  21
ENDBRANCH   1  19
BRANCH   8  23
ATOM     23  C   UNK A   0       4.076   1.342  -2.678  0.00  0.00    +0.000 C 
BRANCH  23  24
ATOM     24  C   UNK A   0       4.803   1.180  -4.103  0.00  0.00    +0.000 A 
ATOM     25  C   UNK A   0       5.797   0.176  -4.318  0.00  0.00    +0.000 A 
ATOM     26  C   UNK A   0       6.616   0.189  -5.473  0.00  0.00    +0.000 A 
ATOM     27  C   UNK A   0       6.372   1.098  -6.490  0.00  0.00    +0.000 A 
ATOM     28  F   UNK A   0       7.128   1.128  -7.593  0.00  0.00    +0.000 F 
ATOM     29  C   UNK A   0       5.353   1.997  -6.368  0.00  0.00    +0.000 A 
ATOM     30  C   UNK A   0       4.616   2.043  -5.200  0.00  0.00    +0.000 A 
ATOM     31  F   UNK A   0       3.736   3.027  -5.273  0.00  0.00    +0.000 F 
ENDBRANCH  23  24
BRANCH  23  32
ATOM     32  C   UNK A   0       2.760   2.466  -2.759  0.00  0.00    +0.000 C 
ATOM     33  O   UNK A   0       2.708   3.374  -3.581  0.00  0.00    +0.000 OA
ATOM     34  N   UNK A   0       1.625   2.493  -1.966  0.00  0.00    +0.000 N 
ATOM     35  C   UNK A   0       1.377   1.730  -0.855  0.00  0.00    +0.000 C 
ATOM     36  C   UNK A   0       0.715   3.593  -1.897  0.00  0.00    +0.000 C 
ENDBRANCH  23  32
ENDBRANCH   8  23
TORSDOF 6
