REMARK  Name = CHEMBL2172292
REMARK  35 active torsions:
REMARK  status: ('A' for Active; 'I' for Inactive)
REMARK    1  A    between atoms: C_1  and  C_2
REMARK    2  A    between atoms: C_2  and  N_3
REMARK    3  A    between atoms: N_3  and  C_4
REMARK    4  A    between atoms: N_3  and  C_6
REMARK    5  A    between atoms: C_4  and  C_5
REMARK    6  A    between atoms: C_10  and  C_11
REMARK    7  A    between atoms: C_14  and  S_15
REMARK    8  A    between atoms: C_20  and  S_21
REMARK    9  A    between atoms: S_21  and  N_24
REMARK   10  A    between atoms: N_24  and  C_25
REMARK   11  A    between atoms: C_25  and  C_26
REMARK   12  A    between atoms: C_26  and  O_27
REMARK   13  A    between atoms: O_27  and  C_28
REMARK   14  A    between atoms: C_28  and  C_29
REMARK   15  A    between atoms: C_29  and  O_30
REMARK   16  A    between atoms: O_30  and  C_31
REMARK   17  A    between atoms: C_31  and  C_32
REMARK   18  A    between atoms: C_32  and  O_33
REMARK   19  A    between atoms: O_33  and  C_34
REMARK   20  A    between atoms: C_34  and  C_35
REMARK   21  A    between atoms: C_35  and  N_36
REMARK   22  A    between atoms: C_38  and  C_39
REMARK   23  A    between atoms: C_39  and  N_40
REMARK   24  A    between atoms: C_41  and  C_43
REMARK   25  A    between atoms: C_43  and  C_44
REMARK   26  A    between atoms: C_44  and  C_45
REMARK   27  A    between atoms: N_47  and  C_48
REMARK   28  A    between atoms: C_53  and  C_55
REMARK   29  A    between atoms: C_58  and  N_59
REMARK   30  A    between atoms: C_60  and  C_62
REMARK   31  A    between atoms: C_67  and  C_68
REMARK   32  A    between atoms: N_83  and  C_84
REMARK   33  A    between atoms: N_83  and  C_86
REMARK   34  A    between atoms: C_84  and  C_85
REMARK   35  A    between atoms: C_86  and  C_87
REMARK                            x       y       z     vdW  Elec       q    Type
REMARK                         _______ _______ _______ _____ _____    ______ ____
ROOT
ATOM      1  O   UNL     1       6.815  -5.196  11.928  0.00  0.00    +0.000 OA
ENDROOT
BRANCH   1   2
ATOM      2  C   UNL     1       6.592  -4.152  10.981  0.00  0.00    +0.000 C 
BRANCH   2   3
ATOM      3  C   UNL     1       7.598  -4.263   9.858  0.00  0.00    +0.000 C 
BRANCH   3   4
ATOM      4  O   UNL     1       7.378  -3.215   8.916  0.00  0.00    +0.000 OA
BRANCH   4   5
ATOM      5  C   UNL     1       8.319  -3.332   7.855  0.00  0.00    +0.000 C 
BRANCH   5   6
ATOM      6  C   UNL     1       8.076  -2.231   6.852  0.00  0.00    +0.000 C 
BRANCH   6   7
ATOM      7  O   UNL     1       9.032  -2.338   5.804  0.00  0.00    +0.000 OA
BRANCH   7   8
ATOM      8  C   UNL     1       8.809  -1.334   4.825  0.00  0.00    +0.000 C 
BRANCH   8   9
ATOM      9  C   UNL     1       9.841  -1.471   3.714  0.00  0.00    +0.000 C 
BRANCH   9  10
ATOM     10  N   UNL     1       9.648  -0.516   2.634  0.00  0.00    +0.000 NA
ATOM     11  H   UNL     1       8.683  -0.491   2.297  0.00  0.00    +0.000 HD
BRANCH  10  12
ATOM     12  S   UNL     1      10.819  -0.553   1.377  0.00  0.00    +0.000 S 
ATOM     13  O   UNL     1      10.545  -1.798   0.706  0.00  0.00    +0.000 OA
ATOM     14  O   UNL     1      12.094  -0.285   2.015  0.00  0.00    +0.000 OA
BRANCH  12  20
ATOM     15  C   UNL     1       9.513   1.781   0.431  0.00  0.00    +0.000 A 
ATOM     16  C   UNL     1       9.316   2.787  -0.540  0.00  0.00    +0.000 A 
ATOM     17  C   UNL     1       9.921   2.699  -1.795  0.00  0.00    +0.000 A 
ATOM     18  C   UNL     1      10.932   1.766  -1.990  0.00  0.00    +0.000 A 
ATOM     19  C   UNL     1      11.297   0.917  -0.929  0.00  0.00    +0.000 A 
ATOM     20  C   UNL     1      10.495   0.808   0.225  0.00  0.00    +0.000 A 
BRANCH  15  25
ATOM     21  C   UNL     1       4.420   1.129   1.214  0.00  0.00    +0.000 A 
ATOM     22  C   UNL     1       5.270   1.203   0.106  0.00  0.00    +0.000 A 
ATOM     23  C   UNL     1       6.630   1.379   0.235  0.00  0.00    +0.000 A 
ATOM     24  C   UNL     1       7.181   1.521   1.490  0.00  0.00    +0.000 A 
ATOM     25  C   UNL     1       8.611   1.797   1.589  0.00  0.00    +0.000 A 
ATOM     26  C   UNL     1       9.103   1.961   2.824  0.00  0.00    +0.000 A 
ATOM     27  C   UNL     1      10.527   2.100   3.062  0.00  0.00    +0.000 A 
ATOM     28  C   UNL     1      11.083   2.079   4.266  0.00  0.00    +0.000 A 
ATOM     29  C   UNL     1      10.236   1.987   5.455  0.00  0.00    +0.000 A 
ATOM     30  N   UNL     1      10.748   2.032   6.645  0.00  0.00    +0.000 N 
ATOM     31  C   UNL     1       8.803   1.852   5.133  0.00  0.00    +0.000 A 
ATOM     32  C   UNL     1       8.248   1.793   3.947  0.00  0.00    +0.000 A 
ATOM     33  O   UNL     1       6.895   1.509   3.865  0.00  0.00    +0.000 OA
ATOM     34  C   UNL     1       6.371   1.419   2.615  0.00  0.00    +0.000 A 
ATOM     35  C   UNL     1       5.001   1.237   2.482  0.00  0.00    +0.000 A 
BRANCH  30  36
ATOM     36  C   UNL     1       9.955   1.952   7.927  0.00  0.00    +0.000 C 
ATOM     37  C   UNL     1       8.496   1.772   7.719  0.00  0.00    +0.000 C 
ENDBRANCH  30  36
BRANCH  30  38
ATOM     38  C   UNL     1      12.247   2.219   6.782  0.00  0.00    +0.000 C 
ATOM     39  C   UNL     1      12.662   2.298   8.223  0.00  0.00    +0.000 C 
ENDBRANCH  30  38
BRANCH  21  40
ATOM     40  N   UNL     1       3.043   0.942   1.049  0.00  0.00    +0.000 N 
BRANCH  40  42
ATOM     41  C   UNL     1       1.135  -0.231  -0.123  0.00  0.00    +0.000 C 
ATOM     42  C   UNL     1       2.617  -0.054   0.044  0.00  0.00    +0.000 C 
ENDBRANCH  40  42
BRANCH  40  43
ATOM     43  C   UNL     1       2.139   1.775   1.861  0.00  0.00    +0.000 C 
ATOM     44  C   UNL     1       0.667   1.560   1.642  0.00  0.00    +0.000 C 
ENDBRANCH  40  43
ENDBRANCH  21  40
ENDBRANCH  15  25
BRANCH  18  45
ATOM     45  S   UNL     1      11.744   1.634  -3.661  0.00  0.00    +0.000 S 
ATOM     46  O   UNL     1      10.623   1.283  -4.528  0.00  0.00    +0.000 OA
ATOM     47  O   UNL     1      12.289   2.973  -3.856  0.00  0.00    +0.000 OA
ATOM     48  O   UNL     1      12.733   0.579  -3.462  0.00  0.00    +0.000 OA
ENDBRANCH  18  45
ENDBRANCH  12  20
ENDBRANCH  10  12
ENDBRANCH   9  10
ENDBRANCH   8   9
ENDBRANCH   7   8
ENDBRANCH   6   7
ENDBRANCH   5   6
ENDBRANCH   4   5
ENDBRANCH   3   4
ENDBRANCH   2   3
ENDBRANCH   1   2
BRANCH   1  49
ATOM     49  C   UNL     1       5.864  -5.081  12.986  0.00  0.00    +0.000 C 
BRANCH  49  50
ATOM     50  C   UNL     1       6.089  -6.174  14.004  0.00  0.00    +0.000 C 
BRANCH  50  51
ATOM     51  N   UNL     1       5.138  -6.111  15.091  0.00  0.00    +0.000 N 
ATOM     52  C   UNL     1       4.533  -7.159  15.702  0.00  0.00    +0.000 A 
ATOM     53  C   UNL     1       3.716  -6.607  16.659  0.00  0.00    +0.000 A 
ATOM     54  N   UNL     1       3.842  -5.236  16.584  0.00  0.00    +0.000 NA
ATOM     55  N   UNL     1       4.717  -4.947  15.620  0.00  0.00    +0.000 NA
BRANCH  53  56
ATOM     56  C   UNL     1       2.826  -7.317  17.636  0.00  0.00    +0.000 C 
BRANCH  56  57
ATOM     57  N   UNL     1       2.898  -8.801  17.481  0.00  0.00    +0.000 N 
ATOM     58  C   UNL     1       2.156  -9.674  18.285  0.00  0.00    +0.000 C 
ATOM     59  O   UNL     1       1.413  -9.218  19.152  0.00  0.00    +0.000 OA
ATOM     60  H   UNL     1       3.513  -9.153  16.763  0.00  0.00    +0.000 HD
BRANCH  58  61
ATOM     61  C   UNL     1       2.283 -11.259  18.067  0.00  0.00    +0.000 C 
BRANCH  61  62
ATOM     62  C   UNL     1       1.314 -12.306  19.170  0.00  0.00    +0.000 C 
BRANCH  62  63
ATOM     63  C   UNL     1       1.454 -14.250  19.106  0.00  0.00    +0.000 C 
ATOM     64  O   UNL     1       2.187 -14.379  18.089  0.00  0.00    +0.000 OA
ATOM     65  N   UNL     1       0.882 -15.580  20.233  0.00  0.00    +0.000 N 
ATOM     66  H   UNL     1       0.178 -14.842  20.478  0.00  0.00    +0.000 HD
BRANCH  65  67
ATOM     67  C   UNL     1       0.507 -17.480  20.878  0.00  0.00    +0.000 C 
ATOM     68  C   UNL     1      -0.712 -16.801  21.017  0.00  0.00    +0.000 C 
ATOM     69  C   UNL     1      -0.371 -18.119  20.244  0.00  0.00    +0.000 C 
ATOM     70  C   UNL     1      -1.485 -18.592  20.932  0.00  0.00    +0.000 C 
ATOM     71  N   UNL     1      -1.138 -19.998  20.119  0.00  0.00    +0.000 N 
ATOM     72  C   UNL     1       0.207 -20.726  19.621  0.00  0.00    +0.000 C 
ATOM     73  O   UNL     1       0.381 -21.955  19.658  0.00  0.00    +0.000 OA
ATOM     74  C   UNL     1      -1.228 -20.324  21.375  0.00  0.00    +0.000 A 
ATOM     75  C   UNL     1      -2.885 -20.611  21.787  0.00  0.00    +0.000 A 
ATOM     76  C   UNL     1      -3.449 -21.322  22.784  0.00  0.00    +0.000 A 
ATOM     77  C   UNL     1      -2.334 -21.920  23.147  0.00  0.00    +0.000 A 
ATOM     78  C   UNL     1      -0.774 -21.000  22.675  0.00  0.00    +0.000 A 
ATOM     79  C   UNL     1       0.105 -19.541  21.885  0.00  0.00    +0.000 A 
BRANCH  72  80
ATOM     80  C   UNL     1       1.312 -19.903  18.921  0.00  0.00    +0.000 A 
ATOM     81  C   UNL     1       2.310 -18.980  19.438  0.00  0.00    +0.000 A 
ATOM     82  C   UNL     1       2.537 -17.736  18.794  0.00  0.00    +0.000 A 
ATOM     83  C   UNL     1       2.220 -17.647  17.474  0.00  0.00    +0.000 A 
ATOM     84  C   UNL     1       1.721 -18.816  16.901  0.00  0.00    +0.000 A 
ATOM     85  C   UNL     1       1.116 -19.852  17.592  0.00  0.00    +0.000 A 
BRANCH  83  86
ATOM     86  N   UNL     1       2.518 -16.484  16.738  0.00  0.00    +0.000 N 
ATOM     87  C   UNL     1       2.506 -16.484  15.354  0.00  0.00    +0.000 C 
ATOM     88  O   UNL     1       2.194 -17.443  14.657  0.00  0.00    +0.000 OA
ATOM     89  H   UNL     1       2.731 -15.617  17.252  0.00  0.00    +0.000 HD
BRANCH  87  90
ATOM     90  C   UNL     1       2.870 -15.242  14.639  0.00  0.00    +0.000 A 
ATOM     91  C   UNL     1       4.008 -14.514  14.982  0.00  0.00    +0.000 A 
ATOM     92  C   UNL     1       4.150 -13.200  14.538  0.00  0.00    +0.000 A 
ATOM     93  C   UNL     1       3.312 -12.712  13.552  0.00  0.00    +0.000 A 
ATOM     94  C   UNL     1       2.361 -13.556  12.990  0.00  0.00    +0.000 A 
ATOM     95  C   UNL     1       2.056 -14.783  13.595  0.00  0.00    +0.000 A 
ATOM     96  C   UNL     1       0.839 -15.550  13.168  0.00  0.00    +0.000 C 
ENDBRANCH  87  90
ENDBRANCH  83  86
ENDBRANCH  72  80
ENDBRANCH  65  67
ENDBRANCH  62  63
ENDBRANCH  61  62
ENDBRANCH  58  61
ENDBRANCH  56  57
ENDBRANCH  53  56
ENDBRANCH  50  51
ENDBRANCH  49  50
ENDBRANCH   1  49
TORSDOF 30
