REMARK  Name = CHEMBL2037514
REMARK  10 active torsions:
REMARK  status: ('A' for Active; 'I' for Inactive)
REMARK    1  A    between atoms: C_1  and  C_2
REMARK    2  A    between atoms: C_2  and  C_3
REMARK    3  A    between atoms: C_3  and  C_4
REMARK    4  A    between atoms: C_3  and  C_6
REMARK    5  A    between atoms: C_4  and  C_5
REMARK    6  A    between atoms: C_10  and  C_11
REMARK    7  A    between atoms: N_22  and  C_23
REMARK    8  A    between atoms: C_23  and  C_24
REMARK    9  A    between atoms: C_23  and  C_32
REMARK   10  A    between atoms: C_35  and  C_36
REMARK                            x       y       z     vdW  Elec       q    Type
REMARK                         _______ _______ _______ _____ _____    ______ ____
ROOT
ATOM      1  C   UNK A   2       4.942  -1.185   0.162  0.00  0.00    +0.000 C 
ATOM      2  C   UNK A   2       5.455  -2.528  -0.392  0.00  0.00    +0.000 C 
ATOM      3  O   UNK A   2       5.175  -3.157  -1.370  0.00  0.00    +0.000 OA
ATOM      4  N   UNK A   1       6.529  -2.987   0.250  0.00  0.00    +0.000 N 
ATOM      5  C   UNK A   1       7.393  -2.098   0.946  0.00  0.00    +0.000 C 
ATOM      6  C   UNK A   1       6.576  -1.518   2.087  0.00  0.00    +0.000 C 
ATOM      7  O   UNK A   1       7.159  -1.340   3.139  0.00  0.00    +0.000 OA
ATOM      8  N   UNK A   2       5.219  -1.216   1.759  0.00  0.00    +0.000 N 
ATOM      9  H   UNK A   1       6.857  -3.791  -0.266  0.00  0.00    +0.000 HD
ENDROOT
BRANCH   5  10
ATOM     10  C   UNK A   1       8.566  -2.893   1.520  0.00  0.00    +0.000 C 
ATOM     11  C   UNK A   1       9.389  -3.489   0.365  0.00  0.00    +0.000 C 
ATOM     12  C   UNK A   1       8.736  -4.833   0.188  0.00  0.00    +0.000 A 
ATOM     13  C   UNK A   1       8.684  -5.594  -0.967  0.00  0.00    +0.000 A 
ATOM     14  C   UNK A   1       7.874  -6.732  -0.975  0.00  0.00    +0.000 A 
ATOM     15  C   UNK A   1       7.107  -7.078   0.150  0.00  0.00    +0.000 A 
ATOM     16  C   UNK A   1       7.132  -6.287   1.300  0.00  0.00    +0.000 A 
ATOM     17  C   UNK A   1       7.962  -5.176   1.311  0.00  0.00    +0.000 A 
ATOM     18  C   UNK A   1       8.046  -4.102   2.359  0.00  0.00    +0.000 C 
ENDBRANCH   5  10
BRANCH   1  19
ATOM     19  C   UNK A   2       3.490  -0.992  -0.353  0.00  0.00    +0.000 C 
BRANCH  19  21
ATOM     20  C   UNK A   2       1.385   1.056  -0.400  0.00  0.00    +0.000 C 
ATOM     21  C   UNK A   2       2.926   0.605  -0.491  0.00  0.00    +0.000 C 
ENDBRANCH  19  21
BRANCH  19  22
ATOM     22  C   UNK A   2       2.800  -2.481  -1.302  0.00  0.00    +0.000 C 
ATOM     23  C   UNK A   2       1.197  -3.090  -1.495  0.00  0.00    +0.000 C 
ENDBRANCH  19  22
ENDBRANCH   1  19
BRANCH   8  24
ATOM     24  C   UNK A   0       4.202  -0.928   2.946  0.00  0.00    +0.000 C 
BRANCH  24  25
ATOM     25  C   UNK A   0       2.848  -1.938   3.293  0.00  0.00    +0.000 C 
ATOM     26  O   UNK A   0       2.568  -2.417   4.392  0.00  0.00    +0.000 OA
ATOM     27  N   UNK A   0       1.832  -2.143   2.420  0.00  0.00    +0.000 N 
ATOM     28  C   UNK A   0       2.056  -2.651   1.143  0.00  0.00    +0.000 C 
ATOM     29  C   UNK A   0       1.240  -1.510   0.389  0.00  0.00    +0.000 C 
ATOM     30  O   UNK A   0      -0.155  -1.489   0.461  0.00  0.00    +0.000 OA
ATOM     31  C   UNK A   0      -0.410  -1.186   1.815  0.00  0.00    +0.000 C 
ATOM     32  C   UNK A   0       0.381  -2.197   2.686  0.00  0.00    +0.000 C 
ENDBRANCH  24  25
BRANCH  24  33
ATOM     33  C   UNK A   0       4.921  -0.602   4.317  0.00  0.00    +0.000 A 
ATOM     34  C   UNK A   0       5.926   0.375   4.460  0.00  0.00    +0.000 A 
ATOM     35  C   UNK A   0       6.724   0.404   5.621  0.00  0.00    +0.000 A 
ATOM     36  C   UNK A   0       6.405  -0.429   6.682  0.00  0.00    +0.000 A 
ATOM     37  C   UNK A   0       7.130  -0.441   7.978  0.00  0.00    +0.000 C 
ATOM     38  N   UNK A   0       5.389  -1.287   6.629  0.00  0.00    +0.000 NA
ATOM     39  C   UNK A   0       4.724  -1.377   5.463  0.00  0.00    +0.000 A 
ENDBRANCH  24  33
ENDBRANCH   8  24
TORSDOF 7
