REMARK  Name = CHEMBL1093366
REMARK  7 active torsions:
REMARK  status: ('A' for Active; 'I' for Inactive)
REMARK    1  A    between atoms: C_1  and  O_2
REMARK    2  A    between atoms: O_2  and  C_3
REMARK    3  A    between atoms: C_6  and  N_7
REMARK    4  A    between atoms: N_7  and  C_8
REMARK    5  A    between atoms: C_9  and  C_11
REMARK    6  A    between atoms: C_14  and  C_15
REMARK    7  A    between atoms: C_21  and  C_22
REMARK                            x       y       z     vdW  Elec       q    Type
REMARK                         _______ _______ _______ _____ _____    ______ ____
ROOT
ATOM      1  C   UNL     1       5.747   4.173   5.938  0.00  0.00    +0.000 A 
ATOM      2  C   UNL     1       6.125   5.482   5.687  0.00  0.00    +0.000 A 
ATOM      3  N   UNL     1       6.918   6.197   6.525  0.00  0.00    +0.000 NA
ATOM      4  C   UNL     1       7.261   5.582   7.684  0.00  0.00    +0.000 A 
ATOM      5  C   UNL     1       6.805   4.296   7.971  0.00  0.00    +0.000 A 
ATOM      6  N   UNL     1       6.060   3.562   7.111  0.00  0.00    +0.000 NA
ENDROOT
BRANCH   4   7
ATOM      7  C   UNL     1       8.160   6.309   8.590  0.00  0.00    +0.000 A 
ATOM      8  C   UNL     1       9.411   5.735   8.908  0.00  0.00    +0.000 A 
ATOM      9  C   UNL     1      10.292   6.359   9.792  0.00  0.00    +0.000 A 
ATOM     10  C   UNL     1       9.922   7.552  10.388  0.00  0.00    +0.000 A 
ATOM     11  F   UNL     1      10.750   8.140  11.261  0.00  0.00    +0.000 F 
ATOM     12  C   UNL     1       8.706   8.152  10.087  0.00  0.00    +0.000 A 
ATOM     13  C   UNL     1       7.823   7.555   9.170  0.00  0.00    +0.000 A 
ATOM     14  C   UNL     1       6.544   8.275   8.831  0.00  0.00    +0.000 C 
ENDBRANCH   4   7
BRANCH   1  17
ATOM     15  N   UNL     1       5.318   3.245   3.620  0.00  0.00    +0.000 N 
ATOM     16  C   UNL     1       6.569   3.859   3.160  0.00  0.00    +0.000 C 
ATOM     17  C   UNL     1       4.916   3.388   4.984  0.00  0.00    +0.000 C 
ATOM     18  O   UNL     1       3.906   2.895   5.495  0.00  0.00    +0.000 OA
BRANCH  15  22
ATOM     19  C   UNL     1       3.124   0.885   0.824  0.00  0.00    +0.000 A 
ATOM     20  C   UNL     1       2.678   0.978   2.124  0.00  0.00    +0.000 A 
ATOM     21  C   UNL     1       3.393   1.755   3.038  0.00  0.00    +0.000 A 
ATOM     22  C   UNL     1       4.558   2.434   2.677  0.00  0.00    +0.000 A 
ATOM     23  C   UNL     1       4.921   2.246   1.337  0.00  0.00    +0.000 A 
ATOM     24  N   UNL     1       4.246   1.500   0.415  0.00  0.00    +0.000 NA
BRANCH  19  26
ATOM     25  C   UNL     1       1.104   0.090  -0.071  0.00  0.00    +0.000 C 
ATOM     26  O   UNL     1       2.526   0.100  -0.123  0.00  0.00    +0.000 OA
ENDBRANCH  19  26
ENDBRANCH  15  22
ENDBRANCH   1  17
TORSDOF 4
