REMARK  Name = CHEMBL3765356
REMARK  13 active torsions:
REMARK  status: ('A' for Active; 'I' for Inactive)
REMARK    1  A    between atoms: C_1  and  O_2
REMARK    2  A    between atoms: O_2  and  C_3
REMARK    3  A    between atoms: C_5  and  C_6
REMARK    4  A    between atoms: C_6  and  N_7
REMARK    5  A    between atoms: N_10  and  C_11
REMARK    6  A    between atoms: C_11  and  C_12
REMARK    7  A    between atoms: C_12  and  C_13
REMARK    8  A    between atoms: C_13  and  C_14
REMARK    9  A    between atoms: C_14  and  C_15
REMARK   10  A    between atoms: C_15  and  C_16
REMARK   11  A    between atoms: N_23  and  C_24
REMARK   12  A    between atoms: C_36  and  O_37
REMARK   13  A    between atoms: O_37  and  C_38
REMARK                            x       y       z     vdW  Elec       q    Type
REMARK                         _______ _______ _______ _____ _____    ______ ____
ROOT
ATOM      1  C   UNL     1       6.518  -1.810  -8.112  0.00  0.00    +0.000 C 
ENDROOT
BRANCH   1   2
ATOM      2  C   UNL     1       5.745  -1.497  -6.904  0.00  0.00    +0.000 C 
BRANCH   2   3
ATOM      3  C   UNL     1       5.657  -2.775  -6.141  0.00  0.00    +0.000 C 
BRANCH   3   7
ATOM      4  N   UNL     1       6.838  -3.034  -2.574  0.00  0.00    +0.000 NA
ATOM      5  C   UNL     1       6.159  -4.126  -3.331  0.00  0.00    +0.000 C 
ATOM      6  C   UNL     1       4.906  -3.714  -4.111  0.00  0.00    +0.000 C 
ATOM      7  N   UNL     1       5.161  -2.397  -4.872  0.00  0.00    +0.000 NA
ATOM      8  C   UNL     1       6.122  -1.320  -4.226  0.00  0.00    +0.000 C 
ATOM      9  C   UNL     1       7.283  -1.966  -3.506  0.00  0.00    +0.000 C 
BRANCH   4  10
ATOM     10  C   UNL     1       6.133  -2.561  -1.289  0.00  0.00    +0.000 C 
BRANCH  10  13
ATOM     11  C   UNL     1       2.900  -0.429  -0.709  0.00  0.00    +0.000 A 
ATOM     12  C   UNL     1       4.011  -1.256  -0.297  0.00  0.00    +0.000 A 
ATOM     13  C   UNL     1       4.758  -1.834  -1.262  0.00  0.00    +0.000 A 
ATOM     14  C   UNL     1       4.119  -1.607  -2.450  0.00  0.00    +0.000 A 
ATOM     15  C   UNL     1       3.108  -0.858  -3.011  0.00  0.00    +0.000 A 
ATOM     16  C   UNL     1       2.479  -0.191  -2.058  0.00  0.00    +0.000 A 
BRANCH  11  18
ATOM     17  C   UNL     1       0.852   0.121   0.084  0.00  0.00    +0.000 C 
ATOM     18  O   UNL     1       2.251   0.216   0.300  0.00  0.00    +0.000 OA
ENDBRANCH  11  18
BRANCH  15  19
ATOM     19  O   UNL     1       2.991  -0.826  -4.361  0.00  0.00    +0.000 OA
ATOM     20  C   UNL     1       2.057   0.053  -4.963  0.00  0.00    +0.000 C 
ENDBRANCH  15  19
ENDBRANCH  10  13
ENDBRANCH   4  10
ENDBRANCH   3   7
ENDBRANCH   2   3
ENDBRANCH   1   2
BRANCH   1  21
ATOM     21  C   UNL     1       6.844  -0.458  -8.741  0.00  0.00    +0.000 C 
BRANCH  21  22
ATOM     22  C   UNL     1       7.779  -0.679  -9.895  0.00  0.00    +0.000 C 
BRANCH  22  23
ATOM     23  C   UNL     1       7.677   0.409 -10.990  0.00  0.00    +0.000 C 
ATOM     24  O   UNL     1       7.449   1.593 -10.640  0.00  0.00    +0.000 OA
ATOM     25  N   UNL     1       7.877   0.073 -12.340  0.00  0.00    +0.000 N 
ATOM     26  C   UNL     1       8.297   1.082 -13.331  0.00  0.00    +0.000 C 
ATOM     27  C   UNL     1       8.905   0.510 -14.604  0.00  0.00    +0.000 A 
ATOM     28  C   UNL     1       9.554   1.221 -15.648  0.00  0.00    +0.000 A 
ATOM     29  N   UNL     1       9.948   0.449 -16.671  0.00  0.00    +0.000 NA
ATOM     30  N   UNL     1       9.557  -0.781 -16.297  0.00  0.00    +0.000 N 
ATOM     31  C   UNL     1       9.765  -1.940 -17.138  0.00  0.00    +0.000 C 
ATOM     32  C   UNL     1       8.952  -0.792 -15.071  0.00  0.00    +0.000 A 
ATOM     33  N   UNL     1       8.554  -1.948 -14.523  0.00  0.00    +0.000 N 
ATOM     34  C   UNL     1       7.746  -1.997 -13.403  0.00  0.00    +0.000 A 
ATOM     35  C   UNL     1       8.000  -2.933 -12.440  0.00  0.00    +0.000 A 
ATOM     36  C   UNL     1       7.003  -3.139 -11.503  0.00  0.00    +0.000 A 
ATOM     37  C   UNL     1       5.838  -2.310 -11.508  0.00  0.00    +0.000 A 
ATOM     38  C   UNL     1       5.824  -1.163 -12.286  0.00  0.00    +0.000 A 
ATOM     39  C   UNL     1       7.011  -0.918 -12.938  0.00  0.00    +0.000 A 
ATOM     40  H   UNL     1       8.703  -2.861 -14.940  0.00  0.00    +0.000 HD
ENDBRANCH  22  23
ENDBRANCH  21  22
ENDBRANCH   1  21
TORSDOF 10
