REMARK  Name = CHEMBL2369837
REMARK  22 active torsions:
REMARK  status: ('A' for Active; 'I' for Inactive)
REMARK    1  A    between atoms: N_1  and  C_2
REMARK    2  A    between atoms: C_2  and  C_3
REMARK    3  A    between atoms: C_3  and  C_4
REMARK    4  A    between atoms: C_4  and  C_5
REMARK    5  A    between atoms: C_5  and  C_6
REMARK    6  A    between atoms: C_10  and  C_11
REMARK    7  A    between atoms: C_11  and  C_12
REMARK    8  A    between atoms: C_21  and  C_22
REMARK    9  A    between atoms: C_22  and  C_23
REMARK   10  A    between atoms: C_26  and  O_27
REMARK   11  A    between atoms: C_38  and  C_39
REMARK   12  A    between atoms: C_45  and  C_46
REMARK   13  A    between atoms: N_48  and  C_49
REMARK   14  A    between atoms: C_49  and  C_50
REMARK   15  A    between atoms: C_49  and  C_57
REMARK   16  A    between atoms: C_50  and  C_51
REMARK   17  A    between atoms: C_51  and  C_52
REMARK   18  A    between atoms: C_52  and  N_53
REMARK   19  A    between atoms: N_59  and  C_60
REMARK   20  A    between atoms: C_60  and  C_61
REMARK   21  A    between atoms: C_67  and  C_68
REMARK   22  A    between atoms: C_68  and  C_69
REMARK                            x       y       z     vdW  Elec       q    Type
REMARK                         _______ _______ _______ _____ _____    ______ ____
ROOT
ATOM      1  C   UNL     1       7.759  -2.330   0.507  0.00  0.00    +0.000 C 
ATOM      2  N   UNL     1       8.300  -2.201   2.102  0.00  0.00    +0.000 N 
ATOM      3  C   UNL     1       7.954  -2.124   3.496  0.00  0.00    +0.000 C 
ATOM      4  O   UNL     1       8.543  -2.878   4.302  0.00  0.00    +0.000 OA
ATOM      5  C   UNL     1       6.948  -1.057   4.067  0.00  0.00    +0.000 C 
ATOM      6  N   UNL     1       5.511  -1.251   4.247  0.00  0.00    +0.000 N 
ATOM      7  C   UNL     1       4.706  -1.833   5.187  0.00  0.00    +0.000 C 
ATOM      8  O   UNL     1       3.527  -1.455   5.093  0.00  0.00    +0.000 OA
ATOM      9  C   UNL     1       5.224  -2.983   6.317  0.00  0.00    +0.000 C 
ATOM     10  N   UNL     1       4.572  -2.571   7.507  0.00  0.00    +0.000 N 
ATOM     11  C   UNL     1       3.237  -2.661   7.712  0.00  0.00    +0.000 C 
ATOM     12  O   UNL     1       2.826  -2.166   8.767  0.00  0.00    +0.000 OA
ATOM     13  C   UNL     1       2.239  -3.349   6.724  0.00  0.00    +0.000 C 
ATOM     14  C   UNL     1       2.569  -4.016   5.384  0.00  0.00    +0.000 C 
ATOM     15  S   UNL     1       1.280  -4.621   4.252  0.00  0.00    +0.000 S 
ATOM     16  S   UNL     1       2.466  -5.963   3.167  0.00  0.00    +0.000 S 
ATOM     17  C   UNL     1       1.846  -5.930   1.447  0.00  0.00    +0.000 C 
ATOM     18  C   UNL     1       2.624  -6.459   0.233  0.00  0.00    +0.000 C 
ATOM     19  N   UNL     1       3.215  -5.352  -0.533  0.00  0.00    +0.000 N 
ATOM     20  C   UNL     1       4.100  -4.430  -0.134  0.00  0.00    +0.000 C 
ATOM     21  O   UNL     1       4.425  -3.492  -0.859  0.00  0.00    +0.000 OA
ATOM     22  C   UNL     1       4.746  -4.575   1.191  0.00  0.00    +0.000 C 
ATOM     23  N   UNL     1       6.376  -4.566   0.617  0.00  0.00    +0.000 N 
ATOM     24  C   UNL     1       7.663  -3.818   0.496  0.00  0.00    +0.000 C 
ATOM     25  O   UNL     1       8.792  -4.326   0.595  0.00  0.00    +0.000 OA
ATOM     26  H   UNL     1       9.047  -2.911   2.157  0.00  0.00    +0.000 HD
ATOM     27  H   UNL     1       4.938  -0.644   3.648  0.00  0.00    +0.000 HD
ATOM     28  H   UNL     1       5.112  -2.016   8.165  0.00  0.00    +0.000 HD
ATOM     29  H   UNL     1       2.942  -5.236  -1.508  0.00  0.00    +0.000 HD
ATOM     30  H   UNL     1       6.608  -5.556   0.623  0.00  0.00    +0.000 HD
ENDROOT
BRANCH  18  31
ATOM     31  C   UNL     1       1.736  -7.276  -0.780  0.00  0.00    +0.000 C 
ATOM     32  O   UNL     1       1.770  -6.975  -1.978  0.00  0.00    +0.000 OA
ATOM     33  N   UNL     1       1.133  -8.444  -0.332  0.00  0.00    +0.000 N 
ATOM     34  C   UNL     1       0.345  -8.648   0.869  0.00  0.00    +0.000 C 
ATOM     35  C   UNL     1       0.585 -10.097   1.155  0.00  0.00    +0.000 C 
ATOM     36  C   UNL     1       0.421 -10.712  -0.216  0.00  0.00    +0.000 C 
ATOM     37  C   UNL     1       0.887  -9.621  -1.208  0.00  0.00    +0.000 C 
BRANCH  37  38
ATOM     38  C   UNL     1      -0.309  -9.449  -2.160  0.00  0.00    +0.000 C 
ATOM     39  O   UNL     1      -1.132  -8.555  -1.964  0.00  0.00    +0.000 OA
ATOM     40  N   UNL     1      -0.469 -10.403  -3.160  0.00  0.00    +0.000 N 
ATOM     41  H   UNL     1       0.007 -11.300  -3.110  0.00  0.00    +0.000 HD
BRANCH  40  42
ATOM     42  C   UNL     1      -1.458 -10.253  -4.253  0.00  0.00    +0.000 C 
BRANCH  42  43
ATOM     43  C   UNL     1      -1.632 -11.598  -5.040  0.00  0.00    +0.000 C 
ATOM     44  O   UNL     1      -0.994 -12.608  -4.745  0.00  0.00    +0.000 OA
ATOM     45  N   UNL     1      -2.547 -11.583  -6.080  0.00  0.00    +0.000 N 
ATOM     46  H   UNL     1      -3.056 -10.736  -6.265  0.00  0.00    +0.000 HD
BRANCH  45  47
ATOM     47  C   UNL     1      -2.800 -12.754  -6.923  0.00  0.00    +0.000 C 
BRANCH  47  48
ATOM     48  C   UNL     1      -3.838 -12.577  -8.048  0.00  0.00    +0.000 C 
ATOM     49  N   UNL     1      -4.437 -11.357  -8.189  0.00  0.00    +0.000 N 
ATOM     50  O   UNL     1      -4.141 -13.485  -8.819  0.00  0.00    +0.000 OA
ATOM     51  H   UNL     1      -4.275 -10.548  -7.617  0.00  0.00    +0.000 HD
ATOM     52  H   UNL     1      -5.121 -11.263  -8.931  0.00  0.00    +0.000 HD
ENDBRANCH  47  48
ENDBRANCH  45  47
ENDBRANCH  42  43
BRANCH  42  53
ATOM     53  C   UNL     1      -1.017  -9.143  -5.232  0.00  0.00    +0.000 C 
BRANCH  53  54
ATOM     54  C   UNL     1      -0.821  -7.801  -4.538  0.00  0.00    +0.000 C 
BRANCH  54  55
ATOM     55  C   UNL     1      -0.381  -6.682  -5.434  0.00  0.00    +0.000 C 
BRANCH  55  56
ATOM     56  N   UNL     1      -0.234  -5.483  -4.609  0.00  0.00    +0.000 NA
ATOM     57  C   UNL     1       0.196  -4.433  -5.205  0.00  0.00    +0.000 C 
ATOM     58  N   UNL     1       0.499  -4.337  -6.510  0.00  0.00    +0.000 N 
ATOM     59  N   UNL     1       0.370  -3.290  -4.524  0.00  0.00    +0.000 N 
ATOM     60  H   UNL     1       0.411  -5.157  -7.092  0.00  0.00    +0.000 HD
ATOM     61  H   UNL     1       0.823  -3.493  -6.943  0.00  0.00    +0.000 HD
ATOM     62  H   UNL     1       0.188  -3.314  -3.529  0.00  0.00    +0.000 HD
ATOM     63  H   UNL     1       0.707  -2.435  -4.929  0.00  0.00    +0.000 HD
ENDBRANCH  55  56
ENDBRANCH  54  55
ENDBRANCH  53  54
ENDBRANCH  42  53
ENDBRANCH  40  42
ENDBRANCH  37  38
ENDBRANCH  18  31
BRANCH   5  64
ATOM     64  C   UNL     1       7.398  -0.441   5.369  0.00  0.00    +0.000 C 
BRANCH  64  65
ATOM     65  C   UNL     1       8.870  -0.314   5.508  0.00  0.00    +0.000 A 
ATOM     66  C   UNL     1       9.788  -0.571   4.473  0.00  0.00    +0.000 A 
ATOM     67  C   UNL     1      11.074  -0.953   4.745  0.00  0.00    +0.000 A 
ATOM     68  C   UNL     1      11.552  -0.637   5.993  0.00  0.00    +0.000 A 
ATOM     69  C   UNL     1      10.689  -0.189   7.001  0.00  0.00    +0.000 A 
ATOM     70  C   UNL     1       9.330  -0.104   6.787  0.00  0.00    +0.000 A 
ENDBRANCH  64  65
ENDBRANCH   5  64
BRANCH   9  71
ATOM     71  C   UNL     1       5.277  -4.619   6.255  0.00  0.00    +0.000 C 
BRANCH  71  72
ATOM     72  C   UNL     1       5.768  -5.188   4.979  0.00  0.00    +0.000 A 
ATOM     73  C   UNL     1       6.337  -4.269   4.219  0.00  0.00    +0.000 A 
ATOM     74  C   UNL     1       7.043  -4.564   3.102  0.00  0.00    +0.000 A 
ATOM     75  C   UNL     1       7.389  -5.801   2.696  0.00  0.00    +0.000 A 
ATOM     76  C   UNL     1       6.509  -6.681   3.203  0.00  0.00    +0.000 A 
ATOM     77  C   UNL     1       5.727  -6.410   4.349  0.00  0.00    +0.000 A 
BRANCH  75  78
ATOM     78  O   UNL     1       7.985  -6.252   1.554  0.00  0.00    +0.000 OA
ATOM     79  H   UNL     1       8.512  -5.597   1.036  0.00  0.00    +0.000 HD
ENDBRANCH  75  78
ENDBRANCH  71  72
ENDBRANCH   9  71
BRANCH   1  80
ATOM     80  C   UNL     1       7.109  -1.215  -0.291  0.00  0.00    +0.000 C 
BRANCH  80  81
ATOM     81  C   UNL     1       7.262   0.036   0.456  0.00  0.00    +0.000 C 
BRANCH  81  82
ATOM     82  C   UNL     1       7.127   1.077  -0.588  0.00  0.00    +0.000 C 
BRANCH  82  83
ATOM     83  C   UNL     1       7.578   2.324   0.090  0.00  0.00    +0.000 C 
BRANCH  83  84
ATOM     84  N   UNL     1       7.572   3.346  -0.919  0.00  0.00    +0.000 NA
ATOM     85  H   UNL     1       7.836   4.221  -0.482  0.00  0.00    +0.000 HD
ATOM     86  H   UNL     1       6.620   3.445  -1.269  0.00  0.00    +0.000 HD
ENDBRANCH  83  84
ENDBRANCH  82  83
ENDBRANCH  81  82
ENDBRANCH  80  81
ENDBRANCH   1  80
BRANCH  22  87
ATOM     87  C   UNL     1       3.960  -3.500   2.155  0.00  0.00    +0.000 C 
BRANCH  87  88
ATOM     88  C   UNL     1       4.332  -2.066   1.957  0.00  0.00    +0.000 C 
ATOM     89  N   UNL     1       5.567  -2.201   1.524  0.00  0.00    +0.000 N 
ATOM     90  O   UNL     1       3.974  -1.010   2.296  0.00  0.00    +0.000 OA
ATOM     91  H   UNL     1       5.691  -2.974   0.905  0.00  0.00    +0.000 HD
ATOM     92  H   UNL     1       6.269  -1.572   1.807  0.00  0.00    +0.000 HD
ENDBRANCH  87  88
ENDBRANCH  22  87
TORSDOF 22
