REMARK  Name = CHEMBL198780
REMARK  12 active torsions:
REMARK  status: ('A' for Active; 'I' for Inactive)
REMARK    1  A    between atoms: C_1  and  O_2
REMARK    2  A    between atoms: O_2  and  C_3
REMARK    3  A    between atoms: C_6  and  S_7
REMARK    4  A    between atoms: S_7  and  N_10
REMARK    5  A    between atoms: N_10  and  C_11
REMARK    6  A    between atoms: N_10  and  C_23
REMARK    7  A    between atoms: C_11  and  C_12
REMARK    8  A    between atoms: N_14  and  C_15
REMARK    9  A    between atoms: C_21  and  C_22
REMARK   10  A    between atoms: C_26  and  C_27
REMARK   11  A    between atoms: C_31  and  O_32
REMARK   12  A    between atoms: O_32  and  C_33
REMARK                            x       y       z     vdW  Elec       q    Type
REMARK                         _______ _______ _______ _____ _____    ______ ____
ROOT
ATOM      1  N   UNL     1       4.777   0.781   6.408  0.00  0.00    +0.000 N 
ENDROOT
BRANCH   1   2
ATOM      2  C   UNL     1       5.381   1.177   7.660  0.00  0.00    +0.000 A 
ATOM      3  C   UNL     1       5.333   0.231   8.691  0.00  0.00    +0.000 A 
ATOM      4  C   UNL     1       5.591   0.588  10.003  0.00  0.00    +0.000 A 
ATOM      5  C   UNL     1       6.058   1.870  10.281  0.00  0.00    +0.000 A 
ATOM      6  C   UNL     1       6.570   2.193  11.644  0.00  0.00    +0.000 C 
ATOM      7  C   UNL     1       6.124   2.825   9.261  0.00  0.00    +0.000 A 
ATOM      8  C   UNL     1       5.762   2.483   7.958  0.00  0.00    +0.000 A 
ENDBRANCH   1   2
BRANCH   1   9
ATOM      9  S   UNL     1       5.541   1.551   4.811  0.00  0.00    +0.000 S 
ATOM     10  O   UNL     1       6.814   0.850   4.672  0.00  0.00    +0.000 OA
ATOM     11  O   UNL     1       5.592   2.994   5.013  0.00  0.00    +0.000 OA
BRANCH   9  15
ATOM     12  C   UNL     1       3.157   1.189   0.637  0.00  0.00    +0.000 A 
ATOM     13  C   UNL     1       4.539   1.477   0.660  0.00  0.00    +0.000 A 
ATOM     14  C   UNL     1       5.348   1.640   1.872  0.00  0.00    +0.000 A 
ATOM     15  C   UNL     1       4.771   1.449   3.101  0.00  0.00    +0.000 A 
ATOM     16  C   UNL     1       3.443   1.207   2.912  0.00  0.00    +0.000 A 
ATOM     17  C   UNL     1       2.580   1.264   1.866  0.00  0.00    +0.000 A 
BRANCH  12  19
ATOM     18  C   UNL     1       1.182   0.816  -0.756  0.00  0.00    +0.000 C 
ATOM     19  O   UNL     1       2.604   0.828  -0.574  0.00  0.00    +0.000 OA
ENDBRANCH  12  19
BRANCH  17  20
ATOM     20  O   UNL     1       1.372   0.989   2.424  0.00  0.00    +0.000 OA
ATOM     21  C   UNL     1       0.862   0.103   1.565  0.00  0.00    +0.000 C 
ENDBRANCH  17  20
ENDBRANCH   9  15
ENDBRANCH   1   9
BRANCH   1  22
ATOM     22  C   UNL     1       3.274  -0.042   6.690  0.00  0.00    +0.000 C 
BRANCH  22  23
ATOM     23  C   UNL     1       2.638  -0.423   5.426  0.00  0.00    +0.000 C 
ATOM     24  O   UNL     1       3.296   0.423   4.771  0.00  0.00    +0.000 OA
ATOM     25  N   UNL     1       1.625  -1.195   4.948  0.00  0.00    +0.000 N 
ATOM     26  H   UNL     1       0.821  -1.174   5.569  0.00  0.00    +0.000 HD
BRANCH  25  27
ATOM     27  C   UNL     1       1.298  -1.846   3.531  0.00  0.00    +0.000 A 
ATOM     28  C   UNL     1      -0.270  -1.782   3.028  0.00  0.00    +0.000 A 
ATOM     29  C   UNL     1      -0.655  -2.075   1.477  0.00  0.00    +0.000 A 
ATOM     30  C   UNL     1       0.450  -2.454   0.479  0.00  0.00    +0.000 A 
ATOM     31  C   UNL     1       1.908  -2.578   0.944  0.00  0.00    +0.000 A 
ATOM     32 CL   UNL     1       3.147  -2.464  -0.412  0.00  0.00    +0.000 Cl
ATOM     33  C   UNL     1       2.387  -2.241   2.419  0.00  0.00    +0.000 A 
ATOM     34  C   UNL     1       3.971  -2.015   2.586  0.00  0.00    +0.000 C 
ENDBRANCH  25  27
ENDBRANCH  22  23
ENDBRANCH   1  22
TORSDOF 8
