REMARK  Name = CHEMBL2035015
REMARK  12 active torsions:
REMARK  status: ('A' for Active; 'I' for Inactive)
REMARK    1  A    between atoms: CD1_1  and  CG_2
REMARK    2  A    between atoms: CG_2  and  CD2_3
REMARK    3  A    between atoms: CG_2  and  CB_4
REMARK    4  A    between atoms: CB_4  and  CA_5
REMARK    5  A    between atoms: C_9  and  C_10
REMARK    6  A    between atoms: N_21  and  C_22
REMARK    7  A    between atoms: C_22  and  C_23
REMARK    8  A    between atoms: C_22  and  C_29
REMARK    9  A    between atoms: N_25  and  C_26
REMARK   10  A    between atoms: C_26  and  C_27
REMARK   11  A    between atoms: C_26  and  C_28
REMARK   12  A    between atoms: C_34  and  C_35
REMARK                            x       y       z     vdW  Elec       q    Type
REMARK                         _______ _______ _______ _____ _____    ______ ____
ROOT
ATOM      1  CA  LEU A   2       4.579  -1.004   1.054  0.00  0.00    +0.000 C 
ATOM      2  C   LEU A   2       5.019  -2.009   2.175  0.00  0.00    +0.000 C 
ATOM      3  O   LEU A   2       4.353  -2.902   2.642  0.00  0.00    +0.000 OA
ATOM      4  N   UNK A   1       6.318  -1.842   2.584  0.00  0.00    +0.000 N 
ATOM      5  C   UNK A   1       7.200  -0.851   2.006  0.00  0.00    +0.000 C 
ATOM      6  C   UNK A   1       6.412   0.433   1.952  0.00  0.00    +0.000 C 
ATOM      7  O   UNK A   1       6.956   1.475   2.292  0.00  0.00    +0.000 OA
ATOM      8  N   LEU A   2       5.092   0.343   1.534  0.00  0.00    +0.000 N 
ATOM      9  H   UNK A   1       6.604  -2.440   3.348  0.00  0.00    +0.000 HD
ENDROOT
BRANCH   5  10
ATOM     10  C   UNK A   1       8.415  -0.462   2.884  0.00  0.00    +0.000 C 
ATOM     11  C   UNK A   1       9.292  -1.668   3.189  0.00  0.00    +0.000 C 
ATOM     12  C   UNK A   1       8.656  -2.145   4.458  0.00  0.00    +0.000 A 
ATOM     13  C   UNK A   1       8.651  -3.424   4.962  0.00  0.00    +0.000 A 
ATOM     14  C   UNK A   1       7.868  -3.681   6.089  0.00  0.00    +0.000 A 
ATOM     15  C   UNK A   1       7.090  -2.672   6.683  0.00  0.00    +0.000 A 
ATOM     16  C   UNK A   1       7.086  -1.384   6.162  0.00  0.00    +0.000 A 
ATOM     17  C   UNK A   1       7.889  -1.140   5.064  0.00  0.00    +0.000 A 
ATOM     18  C   UNK A   1       7.962   0.114   4.271  0.00  0.00    +0.000 C 
ENDBRANCH   5  10
BRANCH   1  19
ATOM     19  CB  LEU A   2       3.076  -1.272   0.775  0.00  0.00    +0.000 C 
BRANCH  19  21
ATOM     20  CD1 LEU A   2       0.795  -0.344  -0.240  0.00  0.00    +0.000 C 
ATOM     21  CG  LEU A   2       2.310  -0.395  -0.306  0.00  0.00    +0.000 C 
ATOM     22  CD2 LEU A   2       2.619   1.070  -0.388  0.00  0.00    +0.000 C 
ENDBRANCH  19  21
ENDBRANCH   1  19
BRANCH   8  23
ATOM     23  C   UNK A   0       4.344   1.587   1.801  0.00  0.00    +0.000 C 
BRANCH  23  24
ATOM     24  C   UNK A   0       5.079   2.944   1.582  0.00  0.00    +0.000 A 
ATOM     25  C   UNK A   0       4.718   3.981   2.448  0.00  0.00    +0.000 A 
ATOM     26  C   UNK A   0       5.275   5.230   2.364  0.00  0.00    +0.000 A 
ATOM     27  C   UNK A   0       6.310   5.438   1.476  0.00  0.00    +0.000 A 
ATOM     28  C   UNK A   0       6.674   4.451   0.551  0.00  0.00    +0.000 A 
ATOM     29  C   UNK A   0       6.032   3.201   0.514  0.00  0.00    +0.000 A 
BRANCH  29  30
ATOM     30  C   UNK A   0       6.538   2.193  -0.493  0.00  0.00    +0.000 A 
ATOM     31  C   UNK A   0       7.855   1.696  -0.386  0.00  0.00    +0.000 A 
ATOM     32  C   UNK A   0       8.344   0.668  -1.202  0.00  0.00    +0.000 A 
ATOM     33  C   UNK A   0       7.517   0.091  -2.156  0.00  0.00    +0.000 A 
ATOM     34  C   UNK A   0       6.231   0.592  -2.331  0.00  0.00    +0.000 A 
ATOM     35  C   UNK A   0       5.770   1.659  -1.537  0.00  0.00    +0.000 A 
ENDBRANCH  29  30
ENDBRANCH  23  24
BRANCH  23  36
ATOM     36  C   UNK A   0       3.100   1.493   2.862  0.00  0.00    +0.000 C 
ATOM     37  O   UNK A   0       2.806   2.342   3.700  0.00  0.00    +0.000 OA
ATOM     38  N   UNK A   0       2.184   0.473   2.702  0.00  0.00    +0.000 N 
ATOM     39  H   UNK A   0       2.027   0.248   1.755  0.00  0.00    +0.000 HD
BRANCH  38  40
ATOM     40  C   UNK A   0       0.930   0.272   3.424  0.00  0.00    +0.000 C 
ATOM     41  C   UNK A   0      -0.033   1.415   3.107  0.00  0.00    +0.000 C 
ATOM     42  C   UNK A   0       0.256  -1.078   3.065  0.00  0.00    +0.000 C 
ENDBRANCH  38  40
ENDBRANCH  23  36
ENDBRANCH   8  23
TORSDOF 8
