REMARK  Name = CHEMBL31665
REMARK  4 active torsions:
REMARK  status: ('A' for Active; 'I' for Inactive)
REMARK    1  A    between atoms: C_1  and  C_2
REMARK    2  A    between atoms: C_4  and  C_5
REMARK    3  A    between atoms: C_12  and  C_13
REMARK    4  A    between atoms: C_18  and  N_19
REMARK                            x       y       z     vdW  Elec       q    Type
REMARK                         _______ _______ _______ _____ _____    ______ ____
ROOT
ATOM      1  C   UNL     1      -0.932  -2.615  -0.012  0.00  0.00    +0.000 C 
ATOM      2  O   UNL     1      -0.202  -3.595   0.133  0.00  0.00    +0.000 OA
ATOM      3  N   UNL     1      -2.311  -2.771  -0.075  0.00  0.00    +0.000 N 
ATOM      4  C   UNL     1      -3.014  -3.464   1.002  0.00  0.00    +0.000 C 
ATOM      5  C   UNL     1      -3.903  -4.564   0.451  0.00  0.00    +0.000 C 
ATOM      6  C   UNL     1      -4.855  -4.036  -0.645  0.00  0.00    +0.000 C 
ATOM      7  C   UNL     1      -4.038  -3.389  -1.769  0.00  0.00    +0.000 C 
ATOM      8  C   UNL     1      -3.101  -2.346  -1.224  0.00  0.00    +0.000 C 
ENDROOT
BRANCH   6   9
ATOM      9  N   UNL     1      -5.997  -3.224  -0.082  0.00  0.00    +0.000 N 
ATOM     10  C   UNL     1      -5.861  -2.059   0.674  0.00  0.00    +0.000 C 
ATOM     11  O   UNL     1      -5.199  -1.060   0.415  0.00  0.00    +0.000 OA
ATOM     12  O   UNL     1      -6.527  -2.105   1.854  0.00  0.00    +0.000 OA
ATOM     13  C   UNL     1      -7.918  -2.051   1.618  0.00  0.00    +0.000 C 
ATOM     14  C   UNL     1      -8.319  -3.077   0.605  0.00  0.00    +0.000 A 
ATOM     15  C   UNL     1      -9.669  -3.407   0.475  0.00  0.00    +0.000 A 
ATOM     16  C   UNL     1     -10.061  -4.336  -0.477  0.00  0.00    +0.000 A 
ATOM     17  C   UNL     1      -9.109  -4.927  -1.305  0.00  0.00    +0.000 A 
ATOM     18  C   UNL     1      -7.757  -4.600  -1.180  0.00  0.00    +0.000 A 
ATOM     19  C   UNL     1      -7.346  -3.676  -0.218  0.00  0.00    +0.000 A 
ENDBRANCH   6   9
BRANCH   1  26
ATOM     20  C   UNL     1      -2.441   0.172   0.086  0.00  0.00    +0.000 C 
ATOM     21  C   UNL     1      -0.972  -0.013   0.053  0.00  0.00    +0.000 A 
ATOM     22  N   UNL     1      -0.328   1.178   0.067  0.00  0.00    +0.000 NA
ATOM     23  C   UNL     1       1.004   1.154   0.039  0.00  0.00    +0.000 A 
ATOM     24  N   UNL     1       1.752   0.043  -0.023  0.00  0.00    +0.000 NA
ATOM     25  C   UNL     1       1.064  -1.131  -0.027  0.00  0.00    +0.000 A 
ATOM     26  C   UNL     1      -0.322  -1.241  -0.027  0.00  0.00    +0.000 A 
BRANCH  23  27
ATOM     27  C   UNL     1       1.659   2.444  -0.097  0.00  0.00    +0.000 A 
ATOM     28  C   UNL     1       2.473   2.878  -1.124  0.00  0.00    +0.000 A 
ATOM     29  C   UNL     1       2.939   4.209  -0.930  0.00  0.00    +0.000 A 
ATOM     30  C   UNL     1       2.460   4.756   0.239  0.00  0.00    +0.000 A 
ATOM     31  S   UNL     1       1.429   3.675   1.076  0.00  0.00    +0.000 S 
ENDBRANCH  23  27
ENDBRANCH   1  26
TORSDOF 3
