REMARK  Name = CHEMBL4458988
REMARK  26 active torsions:
REMARK  status: ('A' for Active; 'I' for Inactive)
REMARK    1  A    between atoms: C_1  and  C_2
REMARK    2  A    between atoms: C_2  and  C_3
REMARK    3  A    between atoms: C_3  and  C_4
REMARK    4  A    between atoms: C_3  and  C_5
REMARK    5  A    between atoms: C_9  and  C_10
REMARK    6  A    between atoms: C_10  and  C_11
REMARK    7  A    between atoms: C_14  and  O_15
REMARK    8  A    between atoms: C_21  and  N_22
REMARK    9  A    between atoms: C_27  and  C_28
REMARK   10  A    between atoms: N_30  and  C_31
REMARK   11  A    between atoms: N_30  and  C_47
REMARK   12  A    between atoms: C_31  and  C_32
REMARK   13  A    between atoms: N_34  and  C_35
REMARK   14  A    between atoms: C_35  and  C_36
REMARK   15  A    between atoms: C_35  and  C_40
REMARK   16  A    between atoms: C_36  and  C_37
REMARK   17  A    between atoms: C_37  and  C_38
REMARK   18  A    between atoms: C_37  and  C_39
REMARK   19  A    between atoms: N_42  and  C_43
REMARK   20  A    between atoms: C_43  and  C_44
REMARK   21  A    between atoms: C_47  and  C_48
REMARK   22  A    between atoms: C_58  and  C_59
REMARK   23  A    between atoms: C_59  and  C_60
REMARK   24  A    between atoms: C_66  and  C_67
REMARK   25  A    between atoms: C_67  and  C_68
REMARK   26  A    between atoms: C_68  and  C_69
REMARK                            x       y       z     vdW  Elec       q    Type
REMARK                         _______ _______ _______ _____ _____    ______ ____
ROOT
ATOM      1  C   UNL     1       4.708   0.545  -4.979  0.00  0.00    +0.000 C 
ATOM      2  N   UNL     1       5.114   1.309  -6.938  0.00  0.00    +0.000 N 
ATOM      3  C   UNL     1       5.468   1.812  -8.924  0.00  0.00    +0.000 C 
ATOM      4  O   UNL     1       5.696   1.204 -10.265  0.00  0.00    +0.000 OA
ATOM      5  C   UNL     1       4.569   3.192 -10.237  0.00  0.00    +0.000 C 
ATOM      6  N   UNL     1       3.011   3.327 -10.863  0.00  0.00    +0.000 N 
ATOM      7  C   UNL     1       2.119   2.333 -10.697  0.00  0.00    +0.000 C 
ATOM      8  O   UNL     1       0.916   2.371 -10.904  0.00  0.00    +0.000 OA
ATOM      9  C   UNL     1       2.567   1.139 -10.057  0.00  0.00    +0.000 C 
ATOM     10  C   UNL     1       2.554   1.328  -8.658  0.00  0.00    +0.000 C 
ATOM     11  C   UNL     1       1.006   0.556  -8.638  0.00  0.00    +0.000 C 
ATOM     12  S   UNL     1       0.015  -0.488  -6.531  0.00  0.00    +0.000 S 
ATOM     13  C   UNL     1      -1.823  -0.525  -6.537  0.00  0.00    +0.000 C 
ATOM     14  C   UNL     1      -2.410  -0.360  -5.250  0.00  0.00    +0.000 C 
ATOM     15  N   UNL     1      -1.710  -1.290  -4.547  0.00  0.00    +0.000 N 
ATOM     16  C   UNL     1      -0.397  -1.186  -4.375  0.00  0.00    +0.000 C 
ATOM     17  O   UNL     1       0.132  -2.305  -4.207  0.00  0.00    +0.000 OA
ATOM     18  C   UNL     1       0.562   0.484  -4.727  0.00  0.00    +0.000 C 
ATOM     19  N   UNL     1       1.253   1.367  -3.955  0.00  0.00    +0.000 N 
ATOM     20  C   UNL     1       2.546   0.901  -3.682  0.00  0.00    +0.000 C 
ATOM     21  O   UNL     1       2.742   1.999  -2.779  0.00  0.00    +0.000 OA
ATOM     22  C   UNL     1       3.098  -1.263  -3.437  0.00  0.00    +0.000 C 
ATOM     23  N   UNL     1       4.354  -1.774  -3.831  0.00  0.00    +0.000 N 
ATOM     24  C   UNL     1       5.313  -0.826  -3.914  0.00  0.00    +0.000 C 
ATOM     25  O   UNL     1       6.192  -0.910  -3.051  0.00  0.00    +0.000 OA
ATOM     26  H   UNL     1       5.865   1.043  -8.045  0.00  0.00    +0.000 HD
ATOM     27  H   UNL     1       2.551   4.111 -11.418  0.00  0.00    +0.000 HD
ATOM     28  H   UNL     1      -2.131  -2.178  -4.516  0.00  0.00    +0.000 HD
ATOM     29  H   UNL     1       0.906   2.269  -3.691  0.00  0.00    +0.000 HD
ATOM     30  H   UNL     1       4.262  -1.905  -4.787  0.00  0.00    +0.000 HD
ENDROOT
BRANCH   9  31
ATOM     31  N   UNL     1       3.804   1.029  -9.662  0.00  0.00    +0.000 NA
ATOM     32  H   UNL     1       3.921   1.925  -9.197  0.00  0.00    +0.000 HD
ATOM     33  H   UNL     1       4.290   1.171 -10.517  0.00  0.00    +0.000 HD
ENDBRANCH   9  31
BRANCH  14  34
ATOM     34  C   UNL     1      -3.899  -0.509  -5.588  0.00  0.00    +0.000 C 
ATOM     35  O   UNL     1      -4.347  -1.599  -5.246  0.00  0.00    +0.000 OA
ATOM     36  N   UNL     1      -4.664   0.483  -6.314  0.00  0.00    +0.000 N 
BRANCH  36  37
ATOM     37  C   UNL     1      -4.119   1.775  -6.994  0.00  0.00    +0.000 C 
BRANCH  37  38
ATOM     38  C   UNL     1      -2.888   2.448  -6.443  0.00  0.00    +0.000 C 
ATOM     39  O   UNL     1      -2.330   1.966  -5.481  0.00  0.00    +0.000 OA
ATOM     40  N   UNL     1      -2.153   3.366  -7.087  0.00  0.00    +0.000 N 
ATOM     41  H   UNL     1      -2.484   3.871  -7.871  0.00  0.00    +0.000 HD
BRANCH  40  42
ATOM     42  C   UNL     1      -0.737   3.485  -6.878  0.00  0.00    +0.000 C 
BRANCH  42  43
ATOM     43  C   UNL     1      -0.025   4.685  -7.501  0.00  0.00    +0.000 C 
ATOM     44  O   UNL     1      -0.742   5.352  -8.233  0.00  0.00    +0.000 OA
ATOM     45  N   UNL     1       1.375   4.886  -7.387  0.00  0.00    +0.000 N 
ATOM     46  H   UNL     1       2.024   4.252  -6.915  0.00  0.00    +0.000 HD
BRANCH  45  47
ATOM     47  C   UNL     1       1.981   6.031  -7.982  0.00  0.00    +0.000 C 
BRANCH  47  48
ATOM     48  C   UNL     1       3.473   6.188  -7.669  0.00  0.00    +0.000 C 
ATOM     49  N   UNL     1       4.077   5.211  -6.891  0.00  0.00    +0.000 N 
ATOM     50  O   UNL     1       4.125   7.119  -8.131  0.00  0.00    +0.000 OA
ATOM     51  H   UNL     1       3.700   4.299  -6.666  0.00  0.00    +0.000 HD
ATOM     52  H   UNL     1       5.093   5.241  -6.824  0.00  0.00    +0.000 HD
ENDBRANCH  47  48
ENDBRANCH  45  47
ENDBRANCH  42  43
BRANCH  42  53
ATOM     53  C   UNL     1      -0.172   2.579  -7.876  0.00  0.00    +0.000 C 
BRANCH  53  54
ATOM     54  C   UNL     1      -0.698   0.897  -7.825  0.00  0.00    +0.000 C 
ATOM     55  C   UNL     1      -2.000   0.584  -8.331  0.00  0.00    +0.000 C 
ATOM     56  C   UNL     1      -0.012  -1.032  -8.419  0.00  0.00    +0.000 C 
ENDBRANCH  53  54
ENDBRANCH  42  53
ENDBRANCH  40  42
ENDBRANCH  37  38
ENDBRANCH  36  37
BRANCH  36  57
ATOM     57  C   UNL     1      -6.083   0.144  -6.561  0.00  0.00    +0.000 C 
BRANCH  57  58
ATOM     58  C   UNL     1      -6.831   1.213  -7.320  0.00  0.00    +0.000 A 
ATOM     59  C   UNL     1      -7.774   0.980  -8.297  0.00  0.00    +0.000 A 
ATOM     60  C   UNL     1      -8.302   2.048  -9.028  0.00  0.00    +0.000 A 
ATOM     61  C   UNL     1      -7.876   3.343  -8.791  0.00  0.00    +0.000 A 
ATOM     62  F   UNL     1      -8.378   4.362  -9.484  0.00  0.00    +0.000 F 
ATOM     63  C   UNL     1      -6.967   3.605  -7.817  0.00  0.00    +0.000 A 
ATOM     64  C   UNL     1      -6.580   2.549  -7.040  0.00  0.00    +0.000 A 
ENDBRANCH  57  58
ENDBRANCH  36  57
ENDBRANCH  14  34
BRANCH   1  65
ATOM     65  C   UNL     1       4.084   0.267  -2.731  0.00  0.00    +0.000 C 
ATOM     66  C   UNL     1       3.146   0.242  -0.805  0.00  0.00    +0.000 C 
BRANCH  65  68
ATOM     67  C   UNL     1       1.355  -0.608  -3.097  0.00  0.00    +0.000 C 
ATOM     68  C   UNL     1       2.281   0.055  -2.055  0.00  0.00    +0.000 C 
ENDBRANCH  65  68
ENDBRANCH   1  65
BRANCH  18  69
ATOM     69  C   UNL     1       2.064  -0.321  -5.811  0.00  0.00    +0.000 C 
BRANCH  69  70
ATOM     70  C   UNL     1       2.211   0.321  -6.933  0.00  0.00    +0.000 C 
ATOM     71  N   UNL     1       1.563   1.654  -6.801  0.00  0.00    +0.000 N 
ATOM     72  O   UNL     1       2.660  -0.493  -7.829  0.00  0.00    +0.000 OA
ATOM     73  H   UNL     1       0.678   1.825  -6.272  0.00  0.00    +0.000 HD
ATOM     74  H   UNL     1       1.347   1.995  -7.904  0.00  0.00    +0.000 HD
ENDBRANCH  69  70
ENDBRANCH  18  69
BRANCH   5  75
ATOM     75  C   UNL     1       4.675   3.856  -9.023  0.00  0.00    +0.000 C 
BRANCH  75  76
ATOM     76  C   UNL     1       6.154   3.950  -8.912  0.00  0.00    +0.000 A 
ATOM     77  C   UNL     1       7.046   3.865 -10.009  0.00  0.00    +0.000 A 
ATOM     78  C   UNL     1       8.401   3.874  -9.786  0.00  0.00    +0.000 A 
ATOM     79  C   UNL     1       8.845   3.892  -8.479  0.00  0.00    +0.000 A 
ATOM     80  C   UNL     1       7.966   3.776  -7.418  0.00  0.00    +0.000 A 
ATOM     81  C   UNL     1       6.628   3.746  -7.637  0.00  0.00    +0.000 A 
BRANCH  79  82
ATOM     82  O   UNL     1      10.150   4.018  -8.131  0.00  0.00    +0.000 OA
ATOM     83  H   UNL     1      10.729   4.110  -8.903  0.00  0.00    +0.000 HD
ENDBRANCH  79  82
ENDBRANCH  75  76
ENDBRANCH   5  75
BRANCH  22  84
ATOM     84  C   UNL     1       2.272  -2.350  -2.158  0.00  0.00    +0.000 C 
BRANCH  84  85
ATOM     85  C   UNL     1       3.419  -3.100  -1.683  0.00  0.00    +0.000 C 
BRANCH  85  86
ATOM     86  C   UNL     1       3.034  -3.906  -0.521  0.00  0.00    +0.000 C 
ATOM     87  N   UNL     1       1.743  -3.822  -0.062  0.00  0.00    +0.000 N 
ATOM     88  O   UNL     1       3.885  -4.616  -0.002  0.00  0.00    +0.000 OA
ATOM     89  H   UNL     1       1.007  -3.247  -0.459  0.00  0.00    +0.000 HD
ATOM     90  H   UNL     1       1.460  -4.384   0.722  0.00  0.00    +0.000 HD
ENDBRANCH  85  86
ENDBRANCH  84  85
ENDBRANCH  22  84
TORSDOF 22
