REMARK  Name = CHEMBL200403
REMARK  11 active torsions:
REMARK  status: ('A' for Active; 'I' for Inactive)
REMARK    1  A    between atoms: C_1  and  C_2
REMARK    2  A    between atoms: C_2  and  O_3
REMARK    3  A    between atoms: O_3  and  C_4
REMARK    4  A    between atoms: C_7  and  S_8
REMARK    5  A    between atoms: S_8  and  N_11
REMARK    6  A    between atoms: N_11  and  C_12
REMARK    7  A    between atoms: N_11  and  C_27
REMARK    8  A    between atoms: C_12  and  C_13
REMARK    9  A    between atoms: C_13  and  N_15
REMARK   10  A    between atoms: N_16  and  C_17
REMARK   11  A    between atoms: C_18  and  O_19
REMARK                            x       y       z     vdW  Elec       q    Type
REMARK                         _______ _______ _______ _____ _____    ______ ____
ROOT
ATOM      1  N   UNL     1       9.352   1.800   0.854  0.00  0.00    +0.000 N 
ENDROOT
BRANCH   1   2
ATOM      2  C   UNL     1      10.901   1.850   0.872  0.00  0.00    +0.000 A 
ATOM      3  C   UNL     1      11.561   2.961   0.315  0.00  0.00    +0.000 A 
ATOM      4  C   UNL     1      12.967   3.020   0.144  0.00  0.00    +0.000 A 
ATOM      5  C   UNL     1      13.785   2.004   0.622  0.00  0.00    +0.000 A 
ATOM      6  C   UNL     1      13.185   0.901   1.219  0.00  0.00    +0.000 A 
ATOM      7  C   UNL     1      11.764   0.819   1.331  0.00  0.00    +0.000 A 
ENDBRANCH   1   2
BRANCH   1   8
ATOM      8  S   UNL     1       8.610   1.121   2.314  0.00  0.00    +0.000 S 
ATOM      9  O   UNL     1       8.944   2.010   3.390  0.00  0.00    +0.000 OA
ATOM     10  O   UNL     1       9.067  -0.277   2.401  0.00  0.00    +0.000 OA
BRANCH   8  14
ATOM     11  C   UNL     1       4.173  -0.006   1.779  0.00  0.00    +0.000 A 
ATOM     12  C   UNL     1       4.756  -0.201   3.018  0.00  0.00    +0.000 A 
ATOM     13  C   UNL     1       6.109   0.195   3.260  0.00  0.00    +0.000 A 
ATOM     14  C   UNL     1       6.791   1.000   2.346  0.00  0.00    +0.000 A 
ATOM     15  C   UNL     1       5.981   1.543   1.402  0.00  0.00    +0.000 A 
ATOM     16  C   UNL     1       4.899   0.769   0.931  0.00  0.00    +0.000 A 
BRANCH  11  17
ATOM     17  O   UNL     1       2.879  -0.377   1.558  0.00  0.00    +0.000 OA
BRANCH  17  19
ATOM     18  C   UNL     1       0.911  -0.561   0.119  0.00  0.00    +0.000 C 
ATOM     19  C   UNL     1       2.443  -0.838   0.257  0.00  0.00    +0.000 C 
ENDBRANCH  17  19
ENDBRANCH  11  17
ENDBRANCH   8  14
ENDBRANCH   1   8
BRANCH   1  20
ATOM     20  C   UNL     1       8.604   2.198  -0.547  0.00  0.00    +0.000 C 
BRANCH  20  21
ATOM     21  C   UNL     1       7.038   1.702  -0.936  0.00  0.00    +0.000 C 
ATOM     22  O   UNL     1       7.011   0.462  -0.700  0.00  0.00    +0.000 OA
BRANCH  21  23
ATOM     23  N   UNL     1       5.738   2.482  -1.634  0.00  0.00    +0.000 NA
ATOM     24  N   UNL     1       4.441   2.838  -0.995  0.00  0.00    +0.000 NA
BRANCH  24  25
ATOM     25  C   UNL     1       2.887   2.964  -1.817  0.00  0.00    +0.000 A 
ATOM     26  C   UNL     1       2.647   1.623  -1.619  0.00  0.00    +0.000 A 
ATOM     27  N   UNL     1       2.141   1.433  -2.934  0.00  0.00    +0.000 N 
ATOM     28  C   UNL     1       0.826   1.797  -2.869  0.00  0.00    +0.000 A 
ATOM     29  C   UNL     1      -0.285   1.170  -3.538  0.00  0.00    +0.000 A 
ATOM     30  C   UNL     1      -1.579   1.252  -3.079  0.00  0.00    +0.000 A 
ATOM     31  C   UNL     1      -1.669   1.806  -1.821  0.00  0.00    +0.000 A 
ATOM     32  C   UNL     1      -0.442   2.507  -1.154  0.00  0.00    +0.000 A 
ATOM     33  C   UNL     1       0.993   2.767  -1.847  0.00  0.00    +0.000 A 
ATOM     34  H   UNL     1       2.558   1.899  -3.713  0.00  0.00    +0.000 HD
BRANCH  26  35
ATOM     35  O   UNL     1       2.199   1.382  -0.414  0.00  0.00    +0.000 OA
ATOM     36  H   UNL     1       2.833   1.670   0.286  0.00  0.00    +0.000 HD
ENDBRANCH  26  35
ENDBRANCH  24  25
ENDBRANCH  21  23
ENDBRANCH  20  21
ENDBRANCH   1  20
TORSDOF 10
