REMARK  Name = CHEMBL2037497
REMARK  10 active torsions:
REMARK  status: ('A' for Active; 'I' for Inactive)
REMARK    1  A    between atoms: C_1  and  C_2
REMARK    2  A    between atoms: C_5  and  C_6
REMARK    3  A    between atoms: C_6  and  C_7
REMARK    4  A    between atoms: C_6  and  N_15
REMARK    5  A    between atoms: CA_18  and  C_19
REMARK    6  A    between atoms: CA_31  and  C_32
REMARK    7  A    between atoms: C_32  and  C_33
REMARK    8  A    between atoms: C_33  and  C_34
REMARK    9  A    between atoms: C_33  and  C_35
REMARK   10  A    between atoms: C_33  and  C_36
REMARK                            x       y       z     vdW  Elec       q    Type
REMARK                         _______ _______ _______ _____ _____    ______ ____
ROOT
ATOM      1  N   UNL     1      -4.031  -1.173  -0.136  0.00  0.00    +0.000 N 
ATOM      2  C   UNL     1      -3.991  -1.971   1.020  0.00  0.00    +0.000 C 
ATOM      3  O   UNL     1      -3.444  -1.557   2.050  0.00  0.00    +0.000 OA
ATOM      4  CA  UNL     1      -4.449  -3.478   0.837  0.00  0.00    +0.000 C 
ATOM      5  N   UNL     1      -5.699  -3.508   0.209  0.00  0.00    +0.000 N 
ATOM      6  C   UNL     1      -5.963  -2.751  -0.844  0.00  0.00    +0.000 C 
ATOM      7  O   UNL     1      -7.099  -2.947  -1.201  0.00  0.00    +0.000 OA
ATOM      8  CA  UNL     1      -4.804  -1.760  -1.323  0.00  0.00    +0.000 C 
ATOM      9  H   UNL     1      -6.544  -3.939   0.574  0.00  0.00    +0.000 HD
ENDROOT
BRANCH   4  10
ATOM     10  C   UNL     1      -4.685  -4.278   2.084  0.00  0.00    +0.000 C 
ATOM     11  C   UNL     1      -3.407  -4.684   2.771  0.00  0.00    +0.000 C 
ATOM     12  C   UNL     1      -3.806  -4.690   4.182  0.00  0.00    +0.000 A 
ATOM     13  C   UNL     1      -3.022  -5.118   5.226  0.00  0.00    +0.000 A 
ATOM     14  C   UNL     1      -3.545  -4.960   6.496  0.00  0.00    +0.000 A 
ATOM     15  C   UNL     1      -4.787  -4.324   6.687  0.00  0.00    +0.000 A 
ATOM     16  C   UNL     1      -5.512  -3.801   5.618  0.00  0.00    +0.000 A 
ATOM     17  C   UNL     1      -5.006  -4.000   4.363  0.00  0.00    +0.000 A 
ATOM     18  C   UNL     1      -5.535  -3.468   3.084  0.00  0.00    +0.000 C 
ENDBRANCH   4  10
BRANCH   1  19
ATOM     19  C   UNL     1      -3.202   0.179  -0.107  0.00  0.00    +0.000 C 
BRANCH  19  20
ATOM     20  C   UNL     1      -1.620   0.041   0.037  0.00  0.00    +0.000 C 
ATOM     21  O   UNL     1      -0.931   1.073  -0.010  0.00  0.00    +0.000 OA
ATOM     22  N   UNL     1      -0.971  -1.137   0.345  0.00  0.00    +0.000 N 
ATOM     23  C   UNL     1      -1.275  -2.498  -0.083  0.00  0.00    +0.000 C 
ATOM     24  C   UNL     1      -1.100  -3.399   1.128  0.00  0.00    +0.000 C 
ATOM     25  O   UNL     1       0.211  -3.376   1.683  0.00  0.00    +0.000 OA
ATOM     26  C   UNL     1       0.441  -2.039   2.176  0.00  0.00    +0.000 C 
ATOM     27  C   UNL     1       0.343  -1.056   0.999  0.00  0.00    +0.000 C 
ENDBRANCH  19  20
BRANCH  19  32
ATOM     28  C   UNL     1      -4.799   3.604  -4.570  0.00  0.00    +0.000 C 
ATOM     29  C   UNL     1      -4.300   2.849  -3.373  0.00  0.00    +0.000 A 
ATOM     30  C   UNL     1      -5.154   2.721  -2.305  0.00  0.00    +0.000 A 
ATOM     31  C   UNL     1      -4.737   2.065  -1.139  0.00  0.00    +0.000 A 
ATOM     32  C   UNL     1      -3.516   1.360  -1.129  0.00  0.00    +0.000 A 
ATOM     33  C   UNL     1      -2.678   1.675  -2.202  0.00  0.00    +0.000 A 
ATOM     34  N   UNL     1      -3.034   2.402  -3.307  0.00  0.00    +0.000 NA
ENDBRANCH  19  32
ENDBRANCH   1  19
BRANCH   8  35
ATOM     35  C   UNL     1      -5.433  -0.611  -2.073  0.00  0.00    +0.000 C 
BRANCH  35  36
ATOM     36  C   UNL     1      -6.942  -0.426  -2.044  0.00  0.00    +0.000 C 
ATOM     37  C   UNL     1      -7.365  -1.443  -3.111  0.00  0.00    +0.000 C 
ATOM     38  C   UNL     1      -7.410  -0.358  -0.518  0.00  0.00    +0.000 C 
ATOM     39  C   UNL     1      -7.526   0.878  -2.583  0.00  0.00    +0.000 C 
ENDBRANCH  35  36
ENDBRANCH   8  35
TORSDOF 6
