REMARK  Name = CHEMBL372554
REMARK  14 active torsions:
REMARK  status: ('A' for Active; 'I' for Inactive)
REMARK    1  A    between atoms: C_1  and  C_2
REMARK    2  A    between atoms: N_4  and  C_5
REMARK    3  A    between atoms: C_8  and  C_9
REMARK    4  A    between atoms: C_9  and  C_10
REMARK    5  A    between atoms: C_9  and  N_17
REMARK    6  A    between atoms: N_12  and  C_13
REMARK    7  A    between atoms: C_13  and  C_14
REMARK    8  A    between atoms: C_13  and  C_15
REMARK    9  A    between atoms: C_13  and  C_16
REMARK   10  A    between atoms: C_20  and  C_21
REMARK   11  A    between atoms: CA_33  and  CB_34
REMARK   12  A    between atoms: CB_34  and  CG_35
REMARK   13  A    between atoms: CG_35  and  CD1_36
REMARK   14  A    between atoms: CG_35  and  CD2_37
REMARK                            x       y       z     vdW  Elec       q    Type
REMARK                         _______ _______ _______ _____ _____    ______ ____
ROOT
ATOM      1  N   LEU A   1       9.654   0.947   0.533  0.00  0.00    +0.000 N 
ATOM      2  C   UNK A   2       9.277   2.280   0.782  0.00  0.00    +0.000 C 
ATOM      3  O   UNK A   2       8.597   2.533   1.808  0.00  0.00    +0.000 OA
ATOM      4  C   UNK A   2       9.700   3.429  -0.231  0.00  0.00    +0.000 C 
ATOM      5  N   UNK A   2      11.074   3.178  -0.565  0.00  0.00    +0.000 N 
ATOM      6  C   LEU A   1      11.417   1.971  -1.030  0.00  0.00    +0.000 C 
ATOM      7  O   LEU A   1      12.522   1.878  -1.625  0.00  0.00    +0.000 OA
ATOM      8  CA  LEU A   1      10.399   0.840  -0.865  0.00  0.00    +0.000 C 
ATOM      9  H   UNK A   2      11.752   3.900  -0.768  0.00  0.00    +0.000 HD
ENDROOT
BRANCH   4  10
ATOM     10  C   UNK A   2       9.544   4.731   0.548  0.00  0.00    +0.000 C 
ATOM     11  C   UNK A   2       8.036   5.004   0.738  0.00  0.00    +0.000 C 
ATOM     12  C   UNK A   2       8.047   6.411   1.188  0.00  0.00    +0.000 A 
ATOM     13  C   UNK A   2       6.984   7.276   1.207  0.00  0.00    +0.000 A 
ATOM     14  C   UNK A   2       7.203   8.568   1.642  0.00  0.00    +0.000 A 
ATOM     15  C   UNK A   2       8.395   8.847   2.307  0.00  0.00    +0.000 A 
ATOM     16  C   UNK A   2       9.498   7.986   2.138  0.00  0.00    +0.000 A 
ATOM     17  C   UNK A   2       9.337   6.885   1.304  0.00  0.00    +0.000 A 
ATOM     18  C   UNK A   2      10.063   6.124   0.167  0.00  0.00    +0.000 C 
ENDBRANCH   4  10
BRANCH   1  19
ATOM     19  C   UNK A   0       8.982  -0.163   1.687  0.00  0.00    +0.000 C 
BRANCH  19  23
ATOM     20  C   UNK A   0       9.903  -4.505   0.332  0.00  0.00    +0.000 A 
ATOM     21  C   UNK A   0      10.846  -3.773   1.124  0.00  0.00    +0.000 A 
ATOM     22  C   UNK A   0      10.461  -2.577   2.094  0.00  0.00    +0.000 A 
ATOM     23  C   UNK A   0       9.143  -1.949   1.974  0.00  0.00    +0.000 A 
ATOM     24  C   UNK A   0       8.153  -2.856   1.304  0.00  0.00    +0.000 A 
ATOM     25  C   UNK A   0       8.552  -4.071   0.469  0.00  0.00    +0.000 A 
BRANCH  20  29
ATOM     26  C   UNK A   0      10.294  -7.157  -2.344  0.00  0.00    +0.000 C 
ATOM     27  C   UNK A   0       9.801  -5.802  -1.862  0.00  0.00    +0.000 C 
ATOM     28  O   UNK A   0       8.915  -5.212  -2.457  0.00  0.00    +0.000 OA
ATOM     29  N   UNK A   0      10.433  -5.377  -0.695  0.00  0.00    +0.000 N 
ATOM     30  H   UNK A   0      11.377  -5.729  -0.553  0.00  0.00    +0.000 HD
ENDBRANCH  20  29
ENDBRANCH  19  23
BRANCH  19  31
ATOM     31  C   UNK A   0       7.473   0.065   1.416  0.00  0.00    +0.000 C 
ATOM     32  O   UNK A   0       6.965  -0.246   0.343  0.00  0.00    +0.000 OA
ATOM     33  N   UNK A   0       6.761   0.649   2.444  0.00  0.00    +0.000 N 
ATOM     34  H   UNK A   0       7.276   1.276   3.059  0.00  0.00    +0.000 HD
BRANCH  33  35
ATOM     35  C   UNK A   0       5.305   0.707   2.418  0.00  0.00    +0.000 C 
ATOM     36  C   UNK A   0       4.760   1.350   1.130  0.00  0.00    +0.000 C 
ATOM     37  C   UNK A   0       4.784  -0.730   2.565  0.00  0.00    +0.000 C 
ATOM     38  C   UNK A   0       4.827   1.540   3.613  0.00  0.00    +0.000 C 
ENDBRANCH  33  35
ENDBRANCH  19  31
ENDBRANCH   1  19
BRANCH   8  39
ATOM     39  CB  LEU A   1      11.359  -0.331  -1.162  0.00  0.00    +0.000 C 
BRANCH  39  40
ATOM     40  CG  LEU A   1      11.431  -1.078   0.092  0.00  0.00    +0.000 C 
ATOM     41  CD1 LEU A   1      10.066  -1.679  -0.436  0.00  0.00    +0.000 C 
ATOM     42  CD2 LEU A   1      12.874  -1.740   0.524  0.00  0.00    +0.000 C 
ENDBRANCH  39  40
ENDBRANCH   8  39
TORSDOF 8
