REMARK  Name = CHEMBL288774
REMARK  4 active torsions:
REMARK  status: ('A' for Active; 'I' for Inactive)
REMARK    1  A    between atoms: C_1  and  C_2
REMARK    2  A    between atoms: C_8  and  C_9
REMARK    3  A    between atoms: C_13  and  C_14
REMARK    4  A    between atoms: C_19  and  N_20
REMARK                            x       y       z     vdW  Elec       q    Type
REMARK                         _______ _______ _______ _____ _____    ______ ____
ROOT
ATOM      1  C   UNL     1       2.860  -9.542  -4.809  0.00  0.00    +0.000 C 
ATOM      2  O   UNL     1       3.396  -9.336  -5.896  0.00  0.00    +0.000 OA
ATOM      3  N   UNL     1       2.294 -10.775  -4.517  0.00  0.00    +0.000 N 
ATOM      4  C   UNL     1       3.168 -11.922  -4.283  0.00  0.00    +0.000 C 
ATOM      5  C   UNL     1       2.579 -13.186  -4.889  0.00  0.00    +0.000 C 
ATOM      6  C   UNL     1       1.127 -13.418  -4.412  0.00  0.00    +0.000 C 
ATOM      7  C   UNL     1       0.276 -12.175  -4.717  0.00  0.00    +0.000 C 
ATOM      8  C   UNL     1       0.886 -10.900  -4.165  0.00  0.00    +0.000 C 
ENDROOT
BRANCH   6   9
ATOM      9  N   UNL     1       1.061 -13.933  -3.003  0.00  0.00    +0.000 N 
ATOM     10  C   UNL     1       1.554 -13.242  -1.896  0.00  0.00    +0.000 C 
ATOM     11  O   UNL     1       1.352 -12.076  -1.579  0.00  0.00    +0.000 OA
ATOM     12  O   UNL     1       2.406 -13.979  -1.144  0.00  0.00    +0.000 OA
ATOM     13  C   UNL     1       1.689 -14.989  -0.471  0.00  0.00    +0.000 C 
ATOM     14  C   UNL     1       0.847 -15.768  -1.433  0.00  0.00    +0.000 A 
ATOM     15  C   UNL     1       0.326 -16.998  -1.028  0.00  0.00    +0.000 A 
ATOM     16  C   UNL     1      -0.479 -17.722  -1.894  0.00  0.00    +0.000 A 
ATOM     17  C   UNL     1      -0.770 -17.213  -3.158  0.00  0.00    +0.000 A 
ATOM     18  C   UNL     1      -0.250 -15.980  -3.569  0.00  0.00    +0.000 A 
ATOM     19  C   UNL     1       0.567 -15.243  -2.710  0.00  0.00    +0.000 A 
ENDBRANCH   6   9
BRANCH   1  24
ATOM     20  C   UNL     1       3.672  -4.410  -1.773  0.00  0.00    +0.000 A 
ATOM     21  C   UNL     1       3.855  -4.845  -3.069  0.00  0.00    +0.000 A 
ATOM     22  C   UNL     1       3.399  -6.186  -3.117  0.00  0.00    +0.000 A 
ATOM     23  C   UNL     1       3.352  -7.197  -4.098  0.00  0.00    +0.000 A 
ATOM     24  C   UNL     1       2.847  -8.468  -3.758  0.00  0.00    +0.000 A 
ATOM     25  C   UNL     1       2.421  -8.706  -2.442  0.00  0.00    +0.000 A 
ATOM     26  C   UNL     1       2.421  -7.705  -1.462  0.00  0.00    +0.000 A 
ATOM     27  C   UNL     1       2.931  -6.470  -1.840  0.00  0.00    +0.000 A 
ATOM     28  O   UNL     1       3.076  -5.386  -1.028  0.00  0.00    +0.000 OA
BRANCH  20  36
ATOM     29  C   UNL     1       1.131   0.026  -0.053  0.00  0.00    +0.000 C 
ATOM     30  C   UNL     1       2.644   0.011   0.017  0.00  0.00    +0.000 C 
ATOM     31  O   UNL     1       3.292   1.055   0.011  0.00  0.00    +0.000 OA
ATOM     32  N   UNL     1       3.220  -1.231   0.227  0.00  0.00    +0.000 N 
ATOM     33  C   UNL     1       4.211  -1.430   1.278  0.00  0.00    +0.000 C 
ATOM     34  C   UNL     1       5.462  -2.137   0.766  0.00  0.00    +0.000 C 
ATOM     35  C   UNL     1       5.113  -3.413  -0.003  0.00  0.00    +0.000 C 
ATOM     36  C   UNL     1       4.048  -3.146  -1.080  0.00  0.00    +0.000 C 
ATOM     37  C   UNL     1       2.819  -2.431  -0.494  0.00  0.00    +0.000 C 
ENDBRANCH  20  36
ENDBRANCH   1  24
TORSDOF 3
