REMARK  Name = CHEMBL281081
REMARK  7 active torsions:
REMARK  status: ('A' for Active; 'I' for Inactive)
REMARK    1  A    between atoms: C_2  and  C_3
REMARK    2  A    between atoms: C_3  and  N_4
REMARK    3  A    between atoms: C_6  and  C_7
REMARK    4  A    between atoms: N_15  and  C_16
REMARK    5  A    between atoms: C_16  and  C_17
REMARK    6  A    between atoms: C_22  and  C_23
REMARK    7  A    between atoms: C_28  and  N_29
REMARK                            x       y       z     vdW  Elec       q    Type
REMARK                         _______ _______ _______ _____ _____    ______ ____
ROOT
ATOM      1  C   UNL     1       5.251   1.829   2.082  0.00  0.00    +0.000 A 
ATOM      2  N   UNL     1       6.410   1.427   2.584  0.00  0.00    +0.000 NA
ATOM      3  C   UNL     1       6.683   2.256   3.649  0.00  0.00    +0.000 A 
ATOM      4  C   UNL     1       6.185   2.269   4.974  0.00  0.00    +0.000 A 
ATOM      5  C   UNL     1       6.409   3.401   5.820  0.00  0.00    +0.000 A 
ATOM      6  C   UNL     1       7.316   4.426   5.488  0.00  0.00    +0.000 A 
ATOM      7  C   UNL     1       7.729   4.417   4.148  0.00  0.00    +0.000 A 
ATOM      8  C   UNL     1       7.026   3.538   3.204  0.00  0.00    +0.000 A 
ATOM      9  S   UNL     1       5.067   3.594   2.512  0.00  0.00    +0.000 S 
ENDROOT
BRANCH   6  10
ATOM     10  C   UNL     1       7.847   5.330   6.622  0.00  0.00    +0.000 C 
ATOM     11  O   UNL     1       7.218   5.302   7.686  0.00  0.00    +0.000 OA
ATOM     12  N   UNL     1       9.071   6.052   6.546  0.00  0.00    +0.000 N 
ATOM     13  C   UNL     1      10.079   5.834   7.594  0.00  0.00    +0.000 C 
ATOM     14  C   UNL     1      10.654   7.102   8.205  0.00  0.00    +0.000 C 
ATOM     15  C   UNL     1      11.639   7.888   6.993  0.00  0.00    +0.000 C 
ATOM     16  C   UNL     1      10.181   8.255   6.091  0.00  0.00    +0.000 C 
ATOM     17  C   UNL     1       9.472   7.015   5.510  0.00  0.00    +0.000 C 
BRANCH  15  18
ATOM     18  N   UNL     1      13.355   7.184   6.772  0.00  0.00    +0.000 N 
ATOM     19  C   UNL     1      13.558   7.949   7.995  0.00  0.00    +0.000 C 
ATOM     20  O   UNL     1      12.906   7.923   9.071  0.00  0.00    +0.000 OA
ATOM     21  O   UNL     1      14.441   8.928   7.926  0.00  0.00    +0.000 OA
ATOM     22  C   UNL     1      15.493   8.223   8.469  0.00  0.00    +0.000 C 
ATOM     23  C   UNL     1      16.010   7.987   7.133  0.00  0.00    +0.000 A 
ATOM     24  C   UNL     1      17.257   8.686   6.785  0.00  0.00    +0.000 A 
ATOM     25  C   UNL     1      18.106   8.372   5.752  0.00  0.00    +0.000 A 
ATOM     26  C   UNL     1      17.819   7.119   5.284  0.00  0.00    +0.000 A 
ATOM     27  C   UNL     1      16.386   6.454   5.626  0.00  0.00    +0.000 A 
ATOM     28  C   UNL     1      15.173   7.182   6.343  0.00  0.00    +0.000 A 
ENDBRANCH  15  18
ENDBRANCH   6  10
BRANCH   1  29
ATOM     29  C   UNL     1       4.450   0.932   1.071  0.00  0.00    +0.000 C 
BRANCH  29  32
ATOM     30  O   UNL     1       0.996   0.053   0.288  0.00  0.00    +0.000 OA
ATOM     31  C   UNL     1       2.224   0.039   0.169  0.00  0.00    +0.000 C 
ATOM     32  N   UNL     1       2.987   0.820   1.043  0.00  0.00    +0.000 N 
ATOM     33  H   UNL     1       2.412   1.340   1.696  0.00  0.00    +0.000 HD
BRANCH  31  34
ATOM     34  C   UNL     1       2.919  -0.846  -0.903  0.00  0.00    +0.000 C 
BRANCH  34  35
ATOM     35  N   UNL     1       1.976  -1.602  -1.762  0.00  0.00    +0.000 N 
ATOM     36  C   UNL     1       2.034  -2.991  -1.811  0.00  0.00    +0.000 A 
ATOM     37  C   UNL     1       1.442  -3.691  -2.798  0.00  0.00    +0.000 A 
ATOM     38  C   UNL     1       0.571  -2.993  -3.726  0.00  0.00    +0.000 A 
ATOM     39  C   UNL     1       0.360  -1.677  -3.600  0.00  0.00    +0.000 A 
ATOM     40  C   UNL     1       1.202  -0.874  -2.669  0.00  0.00    +0.000 A 
ATOM     41  O   UNL     1       1.209   0.349  -2.771  0.00  0.00    +0.000 OA
BRANCH  37  42
ATOM     42  C   UNL     1       1.624  -5.169  -2.994  0.00  0.00    +0.000 C 
ATOM     43  F   UNL     1       0.450  -5.846  -2.938  0.00  0.00    +0.000 F 
ATOM     44  F   UNL     1       2.177  -5.442  -4.205  0.00  0.00    +0.000 F 
ATOM     45  F   UNL     1       2.444  -5.717  -2.061  0.00  0.00    +0.000 F 
ENDBRANCH  37  42
ENDBRANCH  34  35
ENDBRANCH  31  34
ENDBRANCH  29  32
ENDBRANCH   1  29
TORSDOF 7
