REMARK  Name = CHEMBL2369841
REMARK  19 active torsions:
REMARK  status: ('A' for Active; 'I' for Inactive)
REMARK    1  A    between atoms: N_1  and  C_2
REMARK    2  A    between atoms: C_2  and  C_3
REMARK    3  A    between atoms: C_7  and  C_8
REMARK    4  A    between atoms: C_8  and  C_9
REMARK    5  A    between atoms: C_18  and  C_19
REMARK    6  A    between atoms: C_19  and  C_20
REMARK    7  A    between atoms: C_23  and  O_24
REMARK    8  A    between atoms: C_35  and  C_36
REMARK    9  A    between atoms: C_42  and  C_43
REMARK   10  A    between atoms: N_45  and  C_46
REMARK   11  A    between atoms: C_46  and  C_47
REMARK   12  A    between atoms: C_46  and  C_54
REMARK   13  A    between atoms: C_47  and  C_48
REMARK   14  A    between atoms: C_48  and  C_49
REMARK   15  A    between atoms: C_49  and  N_50
REMARK   16  A    between atoms: N_56  and  C_57
REMARK   17  A    between atoms: C_57  and  C_58
REMARK   18  A    between atoms: C_64  and  C_65
REMARK   19  A    between atoms: C_65  and  C_66
REMARK                            x       y       z     vdW  Elec       q    Type
REMARK                         _______ _______ _______ _____ _____    ______ ____
ROOT
ATOM      1  C   UNL     1       2.984   2.161  -0.516  0.00  0.00    +0.000 C 
ATOM      2  N   UNL     1       3.508   3.281   0.538  0.00  0.00    +0.000 N 
ATOM      3  C   UNL     1       3.705   3.112   2.008  0.00  0.00    +0.000 C 
ATOM      4  O   UNL     1       4.854   3.255   2.495  0.00  0.00    +0.000 OA
ATOM      5  C   UNL     1       2.499   2.732   2.887  0.00  0.00    +0.000 C 
ATOM      6  N   UNL     1       2.053   1.424   3.417  0.00  0.00    +0.000 N 
ATOM      7  C   UNL     1       2.664   0.577   4.377  0.00  0.00    +0.000 C 
ATOM      8  O   UNL     1       1.953  -0.407   4.661  0.00  0.00    +0.000 OA
ATOM      9  C   UNL     1       4.434   0.774   4.882  0.00  0.00    +0.000 C 
ATOM     10  N   UNL     1       4.237   0.636   6.282  0.00  0.00    +0.000 N 
ATOM     11  C   UNL     1       4.013  -0.579   6.843  0.00  0.00    +0.000 C 
ATOM     12  O   UNL     1       3.821  -0.587   8.063  0.00  0.00    +0.000 OA
ATOM     13  C   UNL     1       4.012  -1.923   6.026  0.00  0.00    +0.000 C 
ATOM     14  C   UNL     1       4.194  -2.087   4.504  0.00  0.00    +0.000 C 
ATOM     15  S   UNL     1       4.073  -3.719   3.707  0.00  0.00    +0.000 S 
ATOM     16  S   UNL     1       5.212  -3.290   2.012  0.00  0.00    +0.000 S 
ATOM     17  C   UNL     1       4.500  -4.203   0.616  0.00  0.00    +0.000 C 
ATOM     18  C   UNL     1       4.824  -3.884  -0.856  0.00  0.00    +0.000 C 
ATOM     19  N   UNL     1       3.735  -3.057  -1.512  0.00  0.00    +0.000 N 
ATOM     20  C   UNL     1       3.260  -1.807  -1.242  0.00  0.00    +0.000 C 
ATOM     21  O   UNL     1       2.274  -1.284  -1.750  0.00  0.00    +0.000 OA
ATOM     22  C   UNL     1       4.079  -0.996  -0.353  0.00  0.00    +0.000 C 
ATOM     23  N   UNL     1       4.525   0.232  -1.234  0.00  0.00    +0.000 N 
ATOM     24  C   UNL     1       4.170   1.569  -1.359  0.00  0.00    +0.000 C 
ATOM     25  O   UNL     1       5.165   2.291  -1.581  0.00  0.00    +0.000 OA
ATOM     26  H   UNL     1       4.444   3.573   0.211  0.00  0.00    +0.000 HD
ATOM     27  H   UNL     1       1.476   0.871   2.791  0.00  0.00    +0.000 HD
ATOM     28  H   UNL     1       4.205   1.470   6.856  0.00  0.00    +0.000 HD
ATOM     29  H   UNL     1       3.294  -3.472  -2.329  0.00  0.00    +0.000 HD
ATOM     30  H   UNL     1       5.498   0.399  -1.091  0.00  0.00    +0.000 HD
ENDROOT
BRANCH  18  31
ATOM     31  C   UNL     1       4.989  -5.191  -1.722  0.00  0.00    +0.000 C 
ATOM     32  O   UNL     1       4.367  -5.256  -2.789  0.00  0.00    +0.000 OA
ATOM     33  N   UNL     1       5.981  -6.115  -1.397  0.00  0.00    +0.000 N 
ATOM     34  C   UNL     1       6.292  -6.716  -0.108  0.00  0.00    +0.000 C 
ATOM     35  C   UNL     1       7.746  -7.056  -0.258  0.00  0.00    +0.000 C 
ATOM     36  C   UNL     1       7.786  -7.662  -1.643  0.00  0.00    +0.000 C 
ATOM     37  C   UNL     1       6.660  -6.950  -2.428  0.00  0.00    +0.000 C 
BRANCH  37  38
ATOM     38  C   UNL     1       5.792  -8.102  -2.961  0.00  0.00    +0.000 C 
ATOM     39  O   UNL     1       4.786  -8.454  -2.343  0.00  0.00    +0.000 OA
ATOM     40  N   UNL     1       6.251  -8.782  -4.086  0.00  0.00    +0.000 N 
ATOM     41  H   UNL     1       7.219  -8.706  -4.386  0.00  0.00    +0.000 HD
BRANCH  40  42
ATOM     42  C   UNL     1       5.423  -9.776  -4.809  0.00  0.00    +0.000 C 
BRANCH  42  43
ATOM     43  C   UNL     1       6.289 -10.587  -5.834  0.00  0.00    +0.000 C 
ATOM     44  O   UNL     1       7.492 -10.372  -5.977  0.00  0.00    +0.000 OA
ATOM     45  N   UNL     1       5.625 -11.561  -6.561  0.00  0.00    +0.000 N 
ATOM     46  H   UNL     1       4.645 -11.710  -6.392  0.00  0.00    +0.000 HD
BRANCH  45  47
ATOM     47  C   UNL     1       6.295 -12.383  -7.573  0.00  0.00    +0.000 C 
BRANCH  47  48
ATOM     48  C   UNL     1       5.417 -13.416  -8.306  0.00  0.00    +0.000 C 
ATOM     49  N   UNL     1       4.093 -13.488  -7.975  0.00  0.00    +0.000 N 
ATOM     50  O   UNL     1       5.860 -14.167  -9.172  0.00  0.00    +0.000 OA
ATOM     51  H   UNL     1       3.624 -12.932  -7.283  0.00  0.00    +0.000 HD
ATOM     52  H   UNL     1       3.532 -14.176  -8.464  0.00  0.00    +0.000 HD
ENDBRANCH  47  48
ENDBRANCH  45  47
ENDBRANCH  42  43
BRANCH  42  53
ATOM     53  C   UNL     1       4.270  -9.074  -5.561  0.00  0.00    +0.000 C 
BRANCH  53  54
ATOM     54  C   UNL     1       3.382  -8.258  -4.630  0.00  0.00    +0.000 C 
BRANCH  54  55
ATOM     55  C   UNL     1       2.250  -7.540  -5.300  0.00  0.00    +0.000 C 
BRANCH  55  56
ATOM     56  N   UNL     1       1.514  -6.804  -4.270  0.00  0.00    +0.000 NA
ATOM     57  C   UNL     1       0.538  -6.082  -4.679  0.00  0.00    +0.000 C 
ATOM     58  N   UNL     1       0.125  -5.966  -5.953  0.00  0.00    +0.000 N 
ATOM     59  N   UNL     1      -0.185  -5.362  -3.807  0.00  0.00    +0.000 N 
ATOM     60  H   UNL     1       0.629  -6.460  -6.673  0.00  0.00    +0.000 HD
ATOM     61  H   UNL     1      -0.652  -5.398  -6.236  0.00  0.00    +0.000 HD
ATOM     62  H   UNL     1       0.095  -5.399  -2.835  0.00  0.00    +0.000 HD
ATOM     63  H   UNL     1      -0.967  -4.784  -4.059  0.00  0.00    +0.000 HD
ENDBRANCH  55  56
ENDBRANCH  54  55
ENDBRANCH  53  54
ENDBRANCH  42  53
ENDBRANCH  40  42
ENDBRANCH  37  38
ENDBRANCH  18  31
BRANCH  22  64
ATOM     64  C   UNL     1       3.369  -0.754   0.951  0.00  0.00    +0.000 C 
BRANCH  64  65
ATOM     65  C   UNL     1       3.927   0.439   1.527  0.00  0.00    +0.000 C 
ATOM     66  N   UNL     1       4.669   1.417   0.999  0.00  0.00    +0.000 N 
ATOM     67  O   UNL     1       3.957   0.470   2.762  0.00  0.00    +0.000 OA
ATOM     68  H   UNL     1       5.242   1.570   0.184  0.00  0.00    +0.000 HD
ATOM     69  H   UNL     1       5.187   2.090   1.573  0.00  0.00    +0.000 HD
ENDBRANCH  64  65
ENDBRANCH  22  64
BRANCH   9  70
ATOM     70  C   UNL     1       6.096   0.046   4.631  0.00  0.00    +0.000 C 
BRANCH  70  71
ATOM     71  C   UNL     1       6.842  -0.283   3.300  0.00  0.00    +0.000 A 
ATOM     72  C   UNL     1       6.529   0.577   2.371  0.00  0.00    +0.000 A 
ATOM     73  C   UNL     1       6.591   0.191   1.002  0.00  0.00    +0.000 A 
ATOM     74  C   UNL     1       7.457  -0.473   0.279  0.00  0.00    +0.000 A 
ATOM     75  C   UNL     1       8.150  -1.139   1.216  0.00  0.00    +0.000 A 
ATOM     76  C   UNL     1       7.832  -1.081   2.721  0.00  0.00    +0.000 A 
BRANCH  74  77
ATOM     77  O   UNL     1       7.408  -0.614  -1.062  0.00  0.00    +0.000 OA
ATOM     78  H   UNL     1       6.780  -0.158  -1.669  0.00  0.00    +0.000 HD
ENDBRANCH  74  77
ENDBRANCH  70  71
ENDBRANCH   9  70
BRANCH   5  79
ATOM     79  C   UNL     1       2.615   3.627   4.091  0.00  0.00    +0.000 C 
BRANCH  79  80
ATOM     80  C   UNL     1       3.101   5.019   3.802  0.00  0.00    +0.000 A 
ATOM     81  C   UNL     1       3.436   5.537   2.528  0.00  0.00    +0.000 A 
ATOM     82  C   UNL     1       4.315   6.570   2.343  0.00  0.00    +0.000 A 
ATOM     83  C   UNL     1       4.470   7.392   3.421  0.00  0.00    +0.000 A 
ATOM     84  C   UNL     1       3.998   7.007   4.686  0.00  0.00    +0.000 A 
ATOM     85  C   UNL     1       3.401   5.778   4.900  0.00  0.00    +0.000 A 
ENDBRANCH  79  80
ENDBRANCH   5  79
BRANCH   1  86
ATOM     86  C   UNL     1       1.594   2.195  -1.123  0.00  0.00    +0.000 C 
BRANCH  86  87
ATOM     87  N   UNL     1       0.427   1.992  -1.962  0.00  0.00    +0.000 NA
ATOM     88  H   UNL     1      -0.348   2.464  -1.508  0.00  0.00    +0.000 HD
ATOM     89  H   UNL     1       0.184   0.990  -1.977  0.00  0.00    +0.000 HD
ENDBRANCH  86  87
ENDBRANCH   1  86
TORSDOF 19
