REMARK  Name = CHEMBL2037501
REMARK  9 active torsions:
REMARK  status: ('A' for Active; 'I' for Inactive)
REMARK    1  A    between atoms: CD1_1  and  CG1_2
REMARK    2  A    between atoms: CG1_2  and  CB_3
REMARK    3  A    between atoms: CB_3  and  CG2_4
REMARK    4  A    between atoms: CB_3  and  CA_5
REMARK    5  A    between atoms: C_9  and  C_10
REMARK    6  A    between atoms: N_21  and  C_22
REMARK    7  A    between atoms: C_22  and  C_23
REMARK    8  A    between atoms: C_22  and  C_31
REMARK    9  A    between atoms: C_34  and  C_35
REMARK                            x       y       z     vdW  Elec       q    Type
REMARK                         _______ _______ _______ _____ _____    ______ ____
ROOT
ATOM      1  CA  ILE A   2       4.803   0.149   1.190  0.00  0.00    +0.000 C 
ATOM      2  C   ILE A   2       5.334  -0.443   2.492  0.00  0.00    +0.000 C 
ATOM      3  O   ILE A   2       5.100  -1.501   3.121  0.00  0.00    +0.000 OA
ATOM      4  N   UNK A   1       6.378   0.157   2.982  0.00  0.00    +0.000 N 
ATOM      5  C   UNK A   1       7.239   0.839   2.078  0.00  0.00    +0.000 C 
ATOM      6  C   UNK A   1       6.415   1.975   1.494  0.00  0.00    +0.000 C 
ATOM      7  O   UNK A   1       7.007   3.038   1.304  0.00  0.00    +0.000 OA
ATOM      8  N   ILE A   2       5.069   1.671   1.205  0.00  0.00    +0.000 N 
ATOM      9  H   UNK A   1       6.710  -0.394   3.764  0.00  0.00    +0.000 HD
ENDROOT
BRANCH   5  10
ATOM     10  C   UNK A   1       8.394   1.423   2.877  0.00  0.00    +0.000 C 
ATOM     11  C   UNK A   1       9.240   0.297   3.493  0.00  0.00    +0.000 C 
ATOM     12  C   UNK A   1       8.589   0.119   4.836  0.00  0.00    +0.000 A 
ATOM     13  C   UNK A   1       8.590  -1.016   5.627  0.00  0.00    +0.000 A 
ATOM     14  C   UNK A   1       7.785  -1.029   6.768  0.00  0.00    +0.000 A 
ATOM     15  C   UNK A   1       6.971   0.070   7.088  0.00  0.00    +0.000 A 
ATOM     16  C   UNK A   1       6.951   1.203   6.272  0.00  0.00    +0.000 A 
ATOM     17  C   UNK A   1       7.781   1.222   5.161  0.00  0.00    +0.000 A 
ATOM     18  C   UNK A   1       7.838   2.259   4.074  0.00  0.00    +0.000 C 
ENDBRANCH   5  10
BRANCH   1  19
ATOM     19  CB  ILE A   2       3.378  -0.262   1.001  0.00  0.00    +0.000 C 
ATOM     20  CG2 ILE A   2       2.916  -0.218  -0.546  0.00  0.00    +0.000 C 
BRANCH  19  22
ATOM     21  CD1 ILE A   2       2.789  -0.584   4.107  0.00  0.00    +0.000 C 
ATOM     22  CG1 ILE A   2       2.837  -1.234   2.469  0.00  0.00    +0.000 C 
ENDBRANCH  19  22
ENDBRANCH   1  19
BRANCH   8  23
ATOM     23  C   UNK A   0       4.020   2.807   0.899  0.00  0.00    +0.000 C 
BRANCH  23  24
ATOM     24  C   UNK A   0       2.596   3.002   1.866  0.00  0.00    +0.000 C 
ATOM     25  O   UNK A   0       2.409   3.992   2.577  0.00  0.00    +0.000 OA
ATOM     26  N   UNK A   0       1.487   2.127   1.724  0.00  0.00    +0.000 N 
ATOM     27  C   UNK A   0       1.439   0.803   2.273  0.00  0.00    +0.000 C 
ATOM     28  C   UNK A   0       0.634  -0.260   1.397  0.00  0.00    +0.000 C 
ATOM     29  O   UNK A   0      -0.674   0.232   1.261  0.00  0.00    +0.000 OA
ATOM     30  C   UNK A   0      -0.644   1.629   0.949  0.00  0.00    +0.000 C 
ATOM     31  C   UNK A   0       0.132   2.539   1.931  0.00  0.00    +0.000 C 
ENDBRANCH  23  24
BRANCH  23  32
ATOM     32  C   UNK A   0       4.716   4.197   0.603  0.00  0.00    +0.000 A 
ATOM     33  C   UNK A   0       5.732   4.350  -0.374  0.00  0.00    +0.000 A 
ATOM     34  C   UNK A   0       6.529   5.510  -0.408  0.00  0.00    +0.000 A 
ATOM     35  C   UNK A   0       6.203   6.567   0.426  0.00  0.00    +0.000 A 
ATOM     36  C   UNK A   0       6.933   7.866   0.428  0.00  0.00    +0.000 C 
ATOM     37  N   UNK A   0       5.177   6.503   1.286  0.00  0.00    +0.000 NA
ATOM     38  C   UNK A   0       4.503   5.334   1.377  0.00  0.00    +0.000 A 
ENDBRANCH  23  32
ENDBRANCH   8  23
TORSDOF 6
