REMARK  Name = CHEMBL422044
REMARK  9 active torsions:
REMARK  status: ('A' for Active; 'I' for Inactive)
REMARK    1  A    between atoms: C_1  and  C_2
REMARK    2  A    between atoms: N_4  and  C_5
REMARK    3  A    between atoms: C_7  and  C_8
REMARK    4  A    between atoms: N_20  and  C_21
REMARK    5  A    between atoms: C_21  and  C_22
REMARK    6  A    between atoms: N_24  and  C_25
REMARK    7  A    between atoms: C_25  and  C_26
REMARK    8  A    between atoms: C_25  and  C_35
REMARK    9  A    between atoms: C_26  and  C_27
REMARK                            x       y       z     vdW  Elec       q    Type
REMARK                         _______ _______ _______ _____ _____    ______ ____
ROOT
ATOM      1  C   UNL     1      10.951  -1.630  -0.944  0.00  0.00    +0.000 C 
ATOM      2  N   UNL     1      12.250  -2.064  -1.384  0.00  0.00    +0.000 NA
ATOM      3  C   UNL     1      12.753  -1.748  -2.517  0.00  0.00    +0.000 C 
ATOM      4  C   UNL     1      12.040  -1.063  -3.593  0.00  0.00    +0.000 A 
ATOM      5  C   UNL     1      12.223  -1.490  -4.916  0.00  0.00    +0.000 A 
ATOM      6  C   UNL     1      11.572  -0.848  -5.962  0.00  0.00    +0.000 A 
ATOM      7  C   UNL     1      10.669   0.160  -5.675  0.00  0.00    +0.000 A 
ATOM      8  C   UNL     1      10.497   0.576  -4.350  0.00  0.00    +0.000 A 
ATOM      9  C   UNL     1      11.273   0.048  -3.295  0.00  0.00    +0.000 A 
ATOM     10  N   UNL     1      11.412   0.658  -1.988  0.00  0.00    +0.000 N 
ATOM     11  C   UNL     1      11.056  -0.074  -0.806  0.00  0.00    +0.000 C 
ATOM     12  O   UNL     1      10.698   0.501   0.231  0.00  0.00    +0.000 OA
ENDROOT
BRANCH   3  13
ATOM     13  C   UNL     1      14.161  -2.076  -2.733  0.00  0.00    +0.000 A 
ATOM     14  C   UNL     1      14.554  -3.394  -2.539  0.00  0.00    +0.000 A 
ATOM     15  C   UNL     1      15.897  -3.711  -2.655  0.00  0.00    +0.000 A 
ATOM     16  C   UNL     1      16.811  -2.730  -3.049  0.00  0.00    +0.000 A 
ATOM     17  C   UNL     1      16.389  -1.426  -3.319  0.00  0.00    +0.000 A 
ATOM     18  C   UNL     1      15.063  -1.075  -3.103  0.00  0.00    +0.000 A 
ENDBRANCH   3  13
BRANCH   1  22
ATOM     19  C   UNL     1      10.990  -3.405   2.455  0.00  0.00    +0.000 C 
ATOM     20  C   UNL     1      11.492  -2.972   1.108  0.00  0.00    +0.000 C 
ATOM     21  O   UNL     1      12.624  -3.317   0.778  0.00  0.00    +0.000 OA
ATOM     22  N   UNL     1      10.602  -2.249   0.341  0.00  0.00    +0.000 N 
ATOM     23  H   UNL     1       9.772  -1.883   0.793  0.00  0.00    +0.000 HD
ENDBRANCH   1  22
BRANCH  10  24
ATOM     24  C   UNL     1      11.642   2.126  -1.852  0.00  0.00    +0.000 C 
BRANCH  24  25
ATOM     25  C   UNL     1      11.678   3.057  -3.175  0.00  0.00    +0.000 C 
ATOM     26  O   UNL     1      12.178   2.659  -4.254  0.00  0.00    +0.000 OA
ATOM     27  N   UNL     1      11.085   4.295  -3.260  0.00  0.00    +0.000 N 
ATOM     28  H   UNL     1      11.231   4.717  -4.178  0.00  0.00    +0.000 HD
BRANCH  27  29
ATOM     29  C   UNL     1      10.394   5.132  -2.241  0.00  0.00    +0.000 C 
BRANCH  29  30
ATOM     30  C   UNL     1      10.883   6.596  -2.491  0.00  0.00    +0.000 C 
ATOM     31  N   UNL     1       9.950   7.588  -2.548  0.00  0.00    +0.000 N 
ATOM     32  O   UNL     1      12.069   6.890  -2.653  0.00  0.00    +0.000 OA
ATOM     33  H   UNL     1       8.952   7.451  -2.492  0.00  0.00    +0.000 HD
ATOM     34  H   UNL     1      10.272   8.530  -2.734  0.00  0.00    +0.000 HD
ENDBRANCH  29  30
BRANCH  29  35
ATOM     35  C   UNL     1       8.766   5.035  -2.196  0.00  0.00    +0.000 C 
BRANCH  35  36
ATOM     36  C   UNL     1       8.018   3.704  -2.094  0.00  0.00    +0.000 A 
ATOM     37  C   UNL     1       8.795   2.607  -2.131  0.00  0.00    +0.000 A 
ATOM     38  C   UNL     1       8.451   1.278  -2.020  0.00  0.00    +0.000 A 
ATOM     39  C   UNL     1       7.161   0.920  -2.085  0.00  0.00    +0.000 A 
ATOM     40 CL   UNL     1       6.877  -0.773  -2.192  0.00  0.00    +0.000 Cl
ATOM     41  C   UNL     1       6.259   1.970  -2.070  0.00  0.00    +0.000 A 
ATOM     42 CL   UNL     1       4.589   1.606  -2.196  0.00  0.00    +0.000 Cl
ATOM     43  C   UNL     1       6.685   3.354  -1.984  0.00  0.00    +0.000 A 
ENDBRANCH  35  36
ENDBRANCH  29  35
ENDBRANCH  27  29
ENDBRANCH  24  25
ENDBRANCH  10  24
TORSDOF 8
