REMARK  Name = CHEMBL1779418
REMARK  13 active torsions:
REMARK  status: ('A' for Active; 'I' for Inactive)
REMARK    1  A    between atoms: C_1  and  O_2
REMARK    2  A    between atoms: O_2  and  C_3
REMARK    3  A    between atoms: C_6  and  S_7
REMARK    4  A    between atoms: S_7  and  N_10
REMARK    5  A    between atoms: C_13  and  C_14
REMARK    6  A    between atoms: C_13  and  N_26
REMARK    7  A    between atoms: C_16  and  C_17
REMARK    8  A    between atoms: C_17  and  N_18
REMARK    9  A    between atoms: N_18  and  C_19
REMARK   10  A    between atoms: N_18  and  C_20
REMARK   11  A    between atoms: C_23  and  O_24
REMARK   12  A    between atoms: O_24  and  C_25
REMARK   13  A    between atoms: C_30  and  C_31
REMARK                            x       y       z     vdW  Elec       q    Type
REMARK                         _______ _______ _______ _____ _____    ______ ____
ROOT
ATOM      1  N   UNL     1       4.968   6.084   5.030  0.00  0.00    +0.000 N 
ATOM      2  C   UNL     1       5.480   5.091   5.943  0.00  0.00    +0.000 C 
ATOM      3  O   UNL     1       6.707   4.924   6.024  0.00  0.00    +0.000 OA
ATOM      4  C   UNL     1       4.491   5.150   7.153  0.00  0.00    +0.000 C 
ATOM      5  C   UNL     1       5.360   6.254   7.613  0.00  0.00    +0.000 A 
ATOM      6  C   UNL     1       5.917   6.236   8.942  0.00  0.00    +0.000 A 
ATOM      7  C   UNL     1       6.408   7.313   9.556  0.00  0.00    +0.000 A 
ATOM      8 CL   UNL     1       6.935   7.150  11.186  0.00  0.00    +0.000 Cl
ATOM      9  C   UNL     1       6.163   8.411   8.777  0.00  0.00    +0.000 A 
ATOM     10  C   UNL     1       5.705   8.312   7.241  0.00  0.00    +0.000 A 
ATOM     11  C   UNL     1       5.589   7.080   6.477  0.00  0.00    +0.000 A 
ENDROOT
BRANCH   4  12
ATOM     12  C   UNL     1       2.964   5.816   6.742  0.00  0.00    +0.000 A 
ATOM     13  C   UNL     1       2.650   7.214   6.724  0.00  0.00    +0.000 A 
ATOM     14  C   UNL     1       1.365   7.737   6.449  0.00  0.00    +0.000 A 
ATOM     15  C   UNL     1       0.354   6.866   6.085  0.00  0.00    +0.000 A 
ATOM     16  C   UNL     1       0.581   5.531   6.153  0.00  0.00    +0.000 A 
ATOM     17  C   UNL     1       1.888   5.072   6.239  0.00  0.00    +0.000 A 
BRANCH  17  18
ATOM     18  O   UNL     1       1.877   3.910   5.552  0.00  0.00    +0.000 OA
ATOM     19  C   UNL     1       3.093   3.376   5.243  0.00  0.00    +0.000 C 
ENDBRANCH  17  18
BRANCH  14  20
ATOM     20  C   UNL     1       1.068   9.198   6.720  0.00  0.00    +0.000 C 
BRANCH  20  21
ATOM     21  N   UNL     1      -0.379   9.471   6.796  0.00  0.00    +0.000 NA
ATOM     22  C   UNL     1      -1.031   8.733   7.893  0.00  0.00    +0.000 C 
ATOM     23  C   UNL     1      -0.613  10.896   6.986  0.00  0.00    +0.000 C 
ENDBRANCH  20  21
ENDBRANCH  14  20
ENDBRANCH   4  12
BRANCH   4  24
ATOM     24  N   UNL     1       4.553   3.976   8.183  0.00  0.00    +0.000 NA
ATOM     25  C   UNL     1       5.900   3.343   8.261  0.00  0.00    +0.000 C 
ATOM     26  C   UNL     1       6.046   2.425   7.085  0.00  0.00    +0.000 C 
ATOM     27  C   UNL     1       4.676   1.816   6.999  0.00  0.00    +0.000 C 
ATOM     28  C   UNL     1       3.743   2.811   7.772  0.00  0.00    +0.000 C 
BRANCH  28  29
ATOM     29  C   UNL     1       2.573   2.174   8.417  0.00  0.00    +0.000 A 
ATOM     30  N   UNL     1       2.494   1.404   9.467  0.00  0.00    +0.000 NA
ATOM     31  C   UNL     1       1.163   1.084   9.519  0.00  0.00    +0.000 A 
ATOM     32  C   UNL     1       0.472   1.612   8.460  0.00  0.00    +0.000 A 
ATOM     33  O   UNL     1       1.372   2.296   7.719  0.00  0.00    +0.000 OA
ENDBRANCH  28  29
ENDBRANCH   4  24
BRANCH   1  34
ATOM     34  S   UNL     1       5.585   4.771   3.406  0.00  0.00    +0.000 S 
ATOM     35  O   UNL     1       6.669   3.931   3.841  0.00  0.00    +0.000 OA
ATOM     36  O   UNL     1       5.747   5.697   2.272  0.00  0.00    +0.000 OA
BRANCH  34  40
ATOM     37  C   UNL     1       3.077   1.057   0.674  0.00  0.00    +0.000 A 
ATOM     38  C   UNL     1       4.288   1.654   0.307  0.00  0.00    +0.000 A 
ATOM     39  C   UNL     1       5.001   2.649   1.151  0.00  0.00    +0.000 A 
ATOM     40  C   UNL     1       4.466   3.180   2.368  0.00  0.00    +0.000 A 
ATOM     41  C   UNL     1       3.304   2.425   2.696  0.00  0.00    +0.000 A 
ATOM     42  C   UNL     1       2.633   1.416   1.913  0.00  0.00    +0.000 A 
BRANCH  37  44
ATOM     43  C   UNL     1       1.037  -0.001  -0.045  0.00  0.00    +0.000 C 
ATOM     44  O   UNL     1       2.472   0.121  -0.124  0.00  0.00    +0.000 OA
ENDBRANCH  37  44
ENDBRANCH  34  40
ENDBRANCH   1  34
TORSDOF 9
