REMARK  Name = CHEMBL3416758
REMARK  25 active torsions:
REMARK  status: ('A' for Active; 'I' for Inactive)
REMARK    1  A    between atoms: C_1  and  O_2
REMARK    2  A    between atoms: O_2  and  C_3
REMARK    3  A    between atoms: C_6  and  C_7
REMARK    4  A    between atoms: C_7  and  C_8
REMARK    5  A    between atoms: C_12  and  N_13
REMARK    6  A    between atoms: C_23  and  C_24
REMARK    7  A    between atoms: C_30  and  C_31
REMARK    8  A    between atoms: N_33  and  C_34
REMARK    9  A    between atoms: C_34  and  C_35
REMARK   10  A    between atoms: C_34  and  C_39
REMARK   11  A    between atoms: C_35  and  C_36
REMARK   12  A    between atoms: C_36  and  C_37
REMARK   13  A    between atoms: C_37  and  N_38
REMARK   14  A    between atoms: N_41  and  C_42
REMARK   15  A    between atoms: C_42  and  C_43
REMARK   16  A    between atoms: C_42  and  C_51
REMARK   17  A    between atoms: C_43  and  C_44
REMARK   18  A    between atoms: C_47  and  O_48
REMARK   19  A    between atoms: C_57  and  C_58
REMARK   20  A    between atoms: C_58  and  C_59
REMARK   21  A    between atoms: C_65  and  C_66
REMARK   22  A    between atoms: C_66  and  C_67
REMARK   23  A    between atoms: C_66  and  O_68
REMARK   24  A    between atoms: C_72  and  C_73
REMARK   25  A    between atoms: C_73  and  C_74
REMARK                            x       y       z     vdW  Elec       q    Type
REMARK                         _______ _______ _______ _____ _____    ______ ____
ROOT
ATOM      1  C   UNL     1       5.306   2.796   3.599  0.00  0.00    +0.000 C 
ATOM      2  N   UNL     1       5.319   4.366   2.173  0.00  0.00    +0.000 N 
ATOM      3  C   UNL     1       5.574   5.887   0.895  0.00  0.00    +0.000 C 
ATOM      4  O   UNL     1       6.200   7.015  -0.011  0.00  0.00    +0.000 OA
ATOM      5  C   UNL     1       5.448   7.465   1.118  0.00  0.00    +0.000 C 
ATOM      6  C   UNL     1       7.293   6.978   1.344  0.00  0.00    +0.000 C 
ATOM      7  C   UNL     1       7.591   5.989  -0.357  0.00  0.00    +0.000 C 
ATOM      8  C   UNL     1       8.420   4.914  -0.122  0.00  0.00    +0.000 C 
ATOM      9  C   UNL     1       7.592   4.263   0.851  0.00  0.00    +0.000 C 
ATOM     10  C   UNL     1       7.583   5.036   2.111  0.00  0.00    +0.000 C 
ATOM     11  C   UNL     1       6.690   6.290   2.483  0.00  0.00    +0.000 C 
ATOM     12  S   UNL     1       8.294   8.488   1.693  0.00  0.00    +0.000 S 
ATOM     13  S   UNL     1       9.851   7.675   2.613  0.00  0.00    +0.000 S 
ATOM     14  C   UNL     1      10.637   8.571   3.898  0.00  0.00    +0.000 C 
ATOM     15  C   UNL     1      11.516   7.824   4.878  0.00  0.00    +0.000 C 
ATOM     16  N   UNL     1      10.711   7.277   5.961  0.00  0.00    +0.000 N 
ATOM     17  C   UNL     1       9.749   6.380   5.869  0.00  0.00    +0.000 C 
ATOM     18  O   UNL     1       9.043   6.198   6.850  0.00  0.00    +0.000 OA
ATOM     19  C   UNL     1       9.502   5.657   4.632  0.00  0.00    +0.000 C 
ATOM     20  N   UNL     1       9.869   4.249   4.743  0.00  0.00    +0.000 N 
ATOM     21  C   UNL     1       9.385   3.361   5.716  0.00  0.00    +0.000 C 
ATOM     22  O   UNL     1       9.783   2.183   5.683  0.00  0.00    +0.000 OA
ATOM     23  C   UNL     1       7.850   3.971   6.428  0.00  0.00    +0.000 C 
ATOM     24  N   UNL     1       6.442   3.788   6.169  0.00  0.00    +0.000 N 
ATOM     25  C   UNL     1       5.955   2.654   6.407  0.00  0.00    +0.000 C 
ATOM     26  O   UNL     1       4.729   2.910   6.142  0.00  0.00    +0.000 OA
ATOM     27  C   UNL     1       7.245   1.274   6.074  0.00  0.00    +0.000 C 
ATOM     28  N   UNL     1       6.231   0.726   6.625  0.00  0.00    +0.000 N 
ATOM     29  C   UNL     1       5.238   1.317   5.245  0.00  0.00    +0.000 C 
ATOM     30  O   UNL     1       4.495   0.548   5.975  0.00  0.00    +0.000 OA
ATOM     31  H   UNL     1       5.142   4.623   1.003  0.00  0.00    +0.000 HD
ATOM     32  H   UNL     1      10.807   7.639   6.905  0.00  0.00    +0.000 HD
ATOM     33  H   UNL     1      10.357   3.837   3.926  0.00  0.00    +0.000 HD
ATOM     34  H   UNL     1       5.681   4.205   5.527  0.00  0.00    +0.000 HD
ATOM     35  H   UNL     1       6.718   0.658   7.631  0.00  0.00    +0.000 HD
ENDROOT
BRANCH  15  36
ATOM     36  C   UNL     1      12.559   8.829   5.427  0.00  0.00    +0.000 C 
ATOM     37  O   UNL     1      12.587   9.015   6.645  0.00  0.00    +0.000 OA
ATOM     38  N   UNL     1      13.492   9.362   4.523  0.00  0.00    +0.000 N 
ATOM     39  C   UNL     1      13.249   9.981   3.222  0.00  0.00    +0.000 C 
ATOM     40  C   UNL     1      14.522   9.702   2.474  0.00  0.00    +0.000 C 
ATOM     41  C   UNL     1      15.572  10.017   3.525  0.00  0.00    +0.000 C 
ATOM     42  C   UNL     1      14.923   9.636   4.873  0.00  0.00    +0.000 C 
BRANCH  42  43
ATOM     43  C   UNL     1      15.070  10.853   5.768  0.00  0.00    +0.000 C 
ATOM     44  O   UNL     1      14.063  11.547   5.924  0.00  0.00    +0.000 OA
ATOM     45  N   UNL     1      16.314  11.193   6.291  0.00  0.00    +0.000 N 
ATOM     46  H   UNL     1      17.178  10.724   6.010  0.00  0.00    +0.000 HD
BRANCH  45  47
ATOM     47  C   UNL     1      16.483  12.290   7.301  0.00  0.00    +0.000 C 
BRANCH  47  48
ATOM     48  C   UNL     1      17.948  12.462   7.701  0.00  0.00    +0.000 C 
ATOM     49  O   UNL     1      18.704  11.568   7.341  0.00  0.00    +0.000 OA
ATOM     50  N   UNL     1      18.351  13.511   8.504  0.00  0.00    +0.000 N 
ATOM     51  H   UNL     1      17.664  14.089   8.944  0.00  0.00    +0.000 HD
BRANCH  50  52
ATOM     52  C   UNL     1      19.774  13.782   8.828  0.00  0.00    +0.000 C 
BRANCH  52  53
ATOM     53  C   UNL     1      19.955  14.929   9.873  0.00  0.00    +0.000 C 
ATOM     54  N   UNL     1      18.823  15.562  10.336  0.00  0.00    +0.000 N 
ATOM     55  O   UNL     1      21.064  15.285  10.268  0.00  0.00    +0.000 OA
ATOM     56  H   UNL     1      17.878  15.347  10.079  0.00  0.00    +0.000 HD
ATOM     57  H   UNL     1      18.908  16.318  11.008  0.00  0.00    +0.000 HD
ENDBRANCH  52  53
BRANCH  52  58
ATOM     58  C   UNL     1      20.563  14.166   7.550  0.00  0.00    +0.000 C 
BRANCH  58  59
ATOM     59  C   UNL     1      20.553  13.111   6.468  0.00  0.00    +0.000 A 
ATOM     60  C   UNL     1      19.613  13.085   5.422  0.00  0.00    +0.000 A 
ATOM     61  C   UNL     1      19.396  11.887   4.705  0.00  0.00    +0.000 A 
ATOM     62  C   UNL     1      20.255  10.810   4.857  0.00  0.00    +0.000 A 
ATOM     63  C   UNL     1      21.204  10.850   5.867  0.00  0.00    +0.000 A 
ATOM     64  C   UNL     1      21.347  11.982   6.671  0.00  0.00    +0.000 A 
BRANCH  62  65
ATOM     65  O   UNL     1      20.226   9.725   4.029  0.00  0.00    +0.000 OA
ATOM     66  H   UNL     1      19.582   9.826   3.308  0.00  0.00    +0.000 HD
ENDBRANCH  62  65
ENDBRANCH  58  59
ENDBRANCH  52  58
ENDBRANCH  50  52
ENDBRANCH  47  48
BRANCH  47  67
ATOM     67  C   UNL     1      15.780  11.938   8.601  0.00  0.00    +0.000 C 
BRANCH  67  68
ATOM     68  C   UNL     1      14.309  11.723   8.382  0.00  0.00    +0.000 C 
BRANCH  68  69
ATOM     69  C   UNL     1      13.556  11.354   9.607  0.00  0.00    +0.000 C 
BRANCH  69  70
ATOM     70  N   UNL     1      12.163  11.135   9.272  0.00  0.00    +0.000 NA
ATOM     71  H   UNL     1      11.757  11.971   8.858  0.00  0.00    +0.000 HD
ATOM     72  H   UNL     1      11.647  10.896  10.109  0.00  0.00    +0.000 HD
ENDBRANCH  69  70
ENDBRANCH  68  69
ENDBRANCH  67  68
ENDBRANCH  47  67
ENDBRANCH  45  47
ENDBRANCH  42  43
ENDBRANCH  15  36
BRANCH   5  73
ATOM     73  N   UNL     1       4.381   7.234  -0.142  0.00  0.00    +0.000 NA
ATOM     74  H   UNL     1       5.063   6.786  -0.879  0.00  0.00    +0.000 HD
ATOM     75  H   UNL     1       4.218   8.098  -0.591  0.00  0.00    +0.000 HD
ENDBRANCH   5  73
BRANCH  23  76
ATOM     76  C   UNL     1       8.005   3.688   7.814  0.00  0.00    +0.000 C 
ATOM     77  C   UNL     1       6.844   4.334   8.495  0.00  0.00    +0.000 C 
BRANCH  76  78
ATOM     78  O   UNL     1       9.264   4.183   8.127  0.00  0.00    +0.000 OA
ATOM     79  H   UNL     1       9.228   5.125   7.831  0.00  0.00    +0.000 HD
ENDBRANCH  76  78
ENDBRANCH  23  76
BRANCH   1  80
ATOM     80  C   UNL     1       5.474   0.948   3.906  0.00  0.00    +0.000 C 
BRANCH  80  84
ATOM     81  C   UNL     1       3.099   0.087   1.181  0.00  0.00    +0.000 A 
ATOM     82  C   UNL     1       4.214   0.883   1.150  0.00  0.00    +0.000 A 
ATOM     83  C   UNL     1       5.145   0.610   2.029  0.00  0.00    +0.000 A 
ATOM     84  C   UNL     1       4.691   0.031   3.152  0.00  0.00    +0.000 A 
ATOM     85  C   UNL     1       3.555  -0.704   3.406  0.00  0.00    +0.000 A 
ATOM     86  C   UNL     1       2.758  -0.692   2.302  0.00  0.00    +0.000 A 
BRANCH  81  88
ATOM     87  C   UNL     1       1.076  -0.054   0.055  0.00  0.00    +0.000 C 
ATOM     88  O   UNL     1       2.483  -0.008  -0.020  0.00  0.00    +0.000 OA
ENDBRANCH  81  88
ENDBRANCH  80  84
ENDBRANCH   1  80
BRANCH  19  89
ATOM     89  C   UNL     1       8.043   6.208   4.385  0.00  0.00    +0.000 C 
BRANCH  89  90
ATOM     90  C   UNL     1       6.825   5.318   4.461  0.00  0.00    +0.000 C 
ATOM     91  N   UNL     1       7.376   4.163   4.317  0.00  0.00    +0.000 N 
ATOM     92  O   UNL     1       5.614   5.257   4.401  0.00  0.00    +0.000 OA
ATOM     93  H   UNL     1       8.350   4.194   4.183  0.00  0.00    +0.000 HD
ATOM     94  H   UNL     1       6.857   3.375   4.596  0.00  0.00    +0.000 HD
ENDBRANCH  89  90
ENDBRANCH  19  89
BRANCH  27  95
ATOM     95  C   UNL     1       7.773   0.035   5.125  0.00  0.00    +0.000 C 
BRANCH  95  96
ATOM     96  C   UNL     1       8.262   0.647   3.874  0.00  0.00    +0.000 A 
ATOM     97  C   UNL     1       8.289   1.955   3.793  0.00  0.00    +0.000 A 
ATOM     98  C   UNL     1       8.793   2.662   2.792  0.00  0.00    +0.000 A 
ATOM     99  C   UNL     1       9.318   2.121   1.734  0.00  0.00    +0.000 A 
ATOM    100  C   UNL     1       8.900   0.874   1.596  0.00  0.00    +0.000 A 
ATOM    101  C   UNL     1       8.460   0.130   2.675  0.00  0.00    +0.000 A 
ENDBRANCH  95  96
ENDBRANCH  27  95
TORSDOF 23
