REMARK  Name = CHEMBL200329
REMARK  12 active torsions:
REMARK  status: ('A' for Active; 'I' for Inactive)
REMARK    1  A    between atoms: C_1  and  C_2
REMARK    2  A    between atoms: C_2  and  O_3
REMARK    3  A    between atoms: O_3  and  C_4
REMARK    4  A    between atoms: C_7  and  S_8
REMARK    5  A    between atoms: S_8  and  N_11
REMARK    6  A    between atoms: N_11  and  C_12
REMARK    7  A    between atoms: N_11  and  C_25
REMARK    8  A    between atoms: C_12  and  C_13
REMARK    9  A    between atoms: N_15  and  N_16
REMARK   10  A    between atoms: C_17  and  C_18
REMARK   11  A    between atoms: C_23  and  O_24
REMARK   12  A    between atoms: C_28  and  C_29
REMARK                            x       y       z     vdW  Elec       q    Type
REMARK                         _______ _______ _______ _____ _____    ______ ____
ROOT
ATOM      1  N   UNL     1       9.563   1.677  -1.405  0.00  0.00    +0.000 N 
ENDROOT
BRANCH   1   2
ATOM      2  C   UNL     1      11.068   1.716  -1.436  0.00  0.00    +0.000 A 
ATOM      3  C   UNL     1      11.708   1.585  -2.683  0.00  0.00    +0.000 A 
ATOM      4  C   UNL     1      13.103   1.438  -2.810  0.00  0.00    +0.000 A 
ATOM      5  C   UNL     1      13.929   1.501  -1.690  0.00  0.00    +0.000 A 
ATOM      6  C   UNL     1      15.425   1.531  -1.841  0.00  0.00    +0.000 C 
ATOM      7  C   UNL     1      13.320   1.606  -0.434  0.00  0.00    +0.000 A 
ATOM      8  C   UNL     1      11.908   1.689  -0.308  0.00  0.00    +0.000 A 
ENDBRANCH   1   2
BRANCH   1   9
ATOM      9  S   UNL     1       8.775   2.700  -0.190  0.00  0.00    +0.000 S 
ATOM     10  O   UNL     1       9.092   4.061  -0.592  0.00  0.00    +0.000 OA
ATOM     11  O   UNL     1       9.227   2.239   1.113  0.00  0.00    +0.000 OA
BRANCH   9  15
ATOM     12  C   UNL     1       4.279   1.908   0.607  0.00  0.00    +0.000 A 
ATOM     13  C   UNL     1       4.891   2.931   1.300  0.00  0.00    +0.000 A 
ATOM     14  C   UNL     1       6.260   3.260   1.038  0.00  0.00    +0.000 A 
ATOM     15  C   UNL     1       6.952   2.706  -0.059  0.00  0.00    +0.000 A 
ATOM     16  C   UNL     1       6.165   2.024  -0.928  0.00  0.00    +0.000 A 
ATOM     17  C   UNL     1       4.999   1.414  -0.436  0.00  0.00    +0.000 A 
BRANCH  12  18
ATOM     18  O   UNL     1       2.987   1.546   0.853  0.00  0.00    +0.000 OA
BRANCH  18  20
ATOM     19  C   UNL     1       1.100   0.096   0.653  0.00  0.00    +0.000 C 
ATOM     20  C   UNL     1       2.616   0.173   0.632  0.00  0.00    +0.000 C 
ENDBRANCH  18  20
ENDBRANCH  12  18
ENDBRANCH   9  15
ENDBRANCH   1   9
BRANCH   1  21
ATOM     21  C   UNL     1       8.995   0.457  -2.127  0.00  0.00    +0.000 C 
BRANCH  21  22
ATOM     22  C   UNL     1       7.672  -0.157  -1.709  0.00  0.00    +0.000 C 
ATOM     23  O   UNL     1       7.454  -0.265  -0.490  0.00  0.00    +0.000 OA
ATOM     24  N   UNL     1       6.738  -0.567  -2.709  0.00  0.00    +0.000 N 
ATOM     25  H   UNL     1       7.023  -1.154  -3.482  0.00  0.00    +0.000 HD
BRANCH  24  26
ATOM     26  N   UNL     1       5.375  -0.225  -2.609  0.00  0.00    +0.000 NA
ATOM     27  C   UNL     1       4.372  -0.981  -2.960  0.00  0.00    +0.000 C 
BRANCH  27  28
ATOM     28  C   UNL     1       2.864  -0.661  -2.744  0.00  0.00    +0.000 A 
ATOM     29  C   UNL     1       2.019  -1.756  -2.431  0.00  0.00    +0.000 A 
ATOM     30  C   UNL     1       0.629  -1.610  -2.206  0.00  0.00    +0.000 A 
ATOM     31  C   UNL     1       0.043  -0.350  -2.236  0.00  0.00    +0.000 A 
ATOM     32  C   UNL     1       0.860   0.763  -2.453  0.00  0.00    +0.000 A 
ATOM     33  C   UNL     1       2.252   0.611  -2.681  0.00  0.00    +0.000 A 
BRANCH  33  34
ATOM     34  O   UNL     1       2.994   1.760  -2.704  0.00  0.00    +0.000 OA
ATOM     35  H   UNL     1       2.586   2.401  -2.087  0.00  0.00    +0.000 HD
ENDBRANCH  33  34
ENDBRANCH  27  28
ENDBRANCH  24  26
ENDBRANCH  21  22
ENDBRANCH   1  21
TORSDOF 10
