REMARK  Name = CHEMBL2017868
REMARK  10 active torsions:
REMARK  status: ('A' for Active; 'I' for Inactive)
REMARK    1  A    between atoms: C_1  and  S_2
REMARK    2  A    between atoms: S_2  and  N_5
REMARK    3  A    between atoms: C_8  and  O_9
REMARK    4  A    between atoms: O_9  and  C_10
REMARK    5  A    between atoms: C_13  and  C_14
REMARK    6  A    between atoms: C_14  and  C_15
REMARK    7  A    between atoms: C_20  and  N_21
REMARK    8  A    between atoms: C_34  and  O_35
REMARK    9  A    between atoms: O_35  and  C_36
REMARK   10  A    between atoms: C_36  and  C_37
REMARK                            x       y       z     vdW  Elec       q    Type
REMARK                         _______ _______ _______ _____ _____    ______ ____
ROOT
ATOM      1  C   UNL     1       0.850  -5.126  -1.562  0.00  0.00    +0.000 A 
ATOM      2  C   UNL     1      -0.108  -5.953  -2.119  0.00  0.00    +0.000 A 
ATOM      3  C   UNL     1      -0.849  -6.834  -1.285  0.00  0.00    +0.000 A 
ATOM      4  C   UNL     1      -0.529  -7.023   0.086  0.00  0.00    +0.000 A 
ATOM      5  C   UNL     1       0.412  -6.150   0.605  0.00  0.00    +0.000 A 
ATOM      6  C   UNL     1       1.051  -5.250  -0.210  0.00  0.00    +0.000 A 
ENDROOT
BRANCH   1   7
ATOM      7  O   UNL     1       1.372  -4.060  -2.239  0.00  0.00    +0.000 OA
BRANCH   7  11
ATOM      8  N   UNL     1       3.239  -1.302  -0.764  0.00  0.00    +0.000 NA
ATOM      9  C   UNL     1       2.936  -2.550  -0.036  0.00  0.00    +0.000 C 
ATOM     10  C   UNL     1       3.470  -3.763  -0.804  0.00  0.00    +0.000 C 
ATOM     11  C   UNL     1       2.810  -3.877  -2.183  0.00  0.00    +0.000 C 
ATOM     12  C   UNL     1       3.140  -2.575  -2.925  0.00  0.00    +0.000 C 
ATOM     13  C   UNL     1       2.694  -1.340  -2.147  0.00  0.00    +0.000 C 
BRANCH   8  15
ATOM     14  C   UNL     1       0.994   0.065   0.081  0.00  0.00    +0.000 C 
ATOM     15  S   UNL     1       2.797   0.124   0.109  0.00  0.00    +0.000 S 
ATOM     16  O   UNL     1       3.219   1.265  -0.674  0.00  0.00    +0.000 OA
ATOM     17  O   UNL     1       3.233  -0.039   1.480  0.00  0.00    +0.000 OA
ENDBRANCH   8  15
ENDBRANCH   7  11
ENDBRANCH   1   7
BRANCH   4  18
ATOM     18  C   UNL     1      -1.194  -8.147   0.918  0.00  0.00    +0.000 C 
BRANCH  18  19
ATOM     19  C   UNL     1      -0.735  -8.390   2.422  0.00  0.00    +0.000 C 
ATOM     20  O   UNL     1       0.209  -7.842   2.979  0.00  0.00    +0.000 OA
ATOM     21  N   UNL     1      -1.368  -9.295   3.274  0.00  0.00    +0.000 N 
ATOM     22  C   UNL     1      -1.583  -8.942   4.678  0.00  0.00    +0.000 C 
ATOM     23  C   UNL     1      -0.944  -9.888   5.787  0.00  0.00    +0.000 C 
ATOM     24  C   UNL     1      -1.564 -11.726   5.912  0.00  0.00    +0.000 C 
ATOM     25  C   UNL     1      -0.890 -11.718   4.123  0.00  0.00    +0.000 C 
ATOM     26  C   UNL     1      -1.505 -10.705   3.007  0.00  0.00    +0.000 C 
BRANCH  24  27
ATOM     27  N   UNL     1      -2.633 -12.710   7.228  0.00  0.00    +0.000 N 
ATOM     28  C   UNL     1      -2.564 -11.307   7.527  0.00  0.00    +0.000 C 
ATOM     29  O   UNL     1      -1.705 -10.699   8.136  0.00  0.00    +0.000 OA
ATOM     30  C   UNL     1      -3.948 -11.229   7.204  0.00  0.00    +0.000 C 
ATOM     31  C   UNL     1      -3.881 -11.108   8.817  0.00  0.00    +0.000 C 
ATOM     32  C   UNL     1      -5.027 -11.898   8.827  0.00  0.00    +0.000 A 
ATOM     33  C   UNL     1      -6.262 -11.171   9.593  0.00  0.00    +0.000 A 
ATOM     34  C   UNL     1      -7.332 -11.772  10.166  0.00  0.00    +0.000 A 
ATOM     35  C   UNL     1      -7.115 -13.104   9.930  0.00  0.00    +0.000 A 
ATOM     36  C   UNL     1      -5.683 -13.742   9.086  0.00  0.00    +0.000 A 
ATOM     37  C   UNL     1      -4.356 -13.073   8.281  0.00  0.00    +0.000 A 
ENDBRANCH  24  27
ENDBRANCH  18  19
ENDBRANCH   4  18
BRANCH   5  38
ATOM     38  O   UNL     1       0.562  -6.010   1.941  0.00  0.00    +0.000 OA
BRANCH  38  39
ATOM     39  C   UNL     1       1.674  -5.354   2.528  0.00  0.00    +0.000 C 
BRANCH  39  40
ATOM     40  C   UNL     1       1.778  -5.633   4.002  0.00  0.00    +0.000 C 
ATOM     41  C   UNL     1       2.642  -4.982   4.793  0.00  0.00    +0.000 C 
ATOM     42  I   UNL     1       3.941  -3.536   4.098  0.00  0.00    +0.000 I 
ENDBRANCH  39  40
ENDBRANCH  38  39
ENDBRANCH   5  38
TORSDOF 9
