REMARK  Name = CHEMBL1790723
REMARK  31 active torsions:
REMARK  status: ('A' for Active; 'I' for Inactive)
REMARK    1  A    between atoms: C_1  and  C_2
REMARK    2  A    between atoms: C_2  and  C_3
REMARK    3  A    between atoms: C_3  and  C_4
REMARK    4  A    between atoms: C_3  and  C_5
REMARK    5  A    between atoms: C_9  and  C_10
REMARK    6  A    between atoms: C_13  and  O_14
REMARK    7  A    between atoms: C_20  and  O_21
REMARK    8  A    between atoms: C_26  and  C_27
REMARK    9  A    between atoms: C_33  and  C_34
REMARK   10  A    between atoms: N_36  and  C_37
REMARK   11  A    between atoms: C_37  and  C_38
REMARK   12  A    between atoms: C_37  and  C_73
REMARK   13  A    between atoms: C_38  and  C_39
REMARK   14  A    between atoms: C_39  and  C_40
REMARK   15  A    between atoms: C_40  and  N_41
REMARK   16  A    between atoms: C_42  and  C_44
REMARK   17  A    between atoms: C_47  and  C_48
REMARK   18  A    between atoms: C_52  and  N_53
REMARK   19  A    between atoms: N_53  and  C_54
REMARK   20  A    between atoms: N_53  and  C_55
REMARK   21  A    between atoms: N_62  and  C_63
REMARK   22  A    between atoms: N_62  and  C_64
REMARK   23  A    between atoms: C_68  and  C_69
REMARK   24  A    between atoms: C_69  and  O_71
REMARK   25  A    between atoms: N_75  and  C_76
REMARK   26  A    between atoms: C_76  and  N_77
REMARK   27  A    between atoms: C_81  and  C_82
REMARK   28  A    between atoms: C_82  and  C_83
REMARK   29  A    between atoms: C_89  and  C_90
REMARK   30  A    between atoms: C_90  and  C_91
REMARK   31  A    between atoms: C_91  and  C_92
REMARK                            x       y       z     vdW  Elec       q    Type
REMARK                         _______ _______ _______ _____ _____    ______ ____
ROOT
ATOM      1  C   UNL     1       5.360  -0.636  -4.614  0.00  0.00    +0.000 C 
ATOM      2  N   UNL     1       5.438  -0.840  -6.829  0.00  0.00    +0.000 N 
ATOM      3  C   UNL     1       5.673  -0.770  -8.939  0.00  0.00    +0.000 C 
ATOM      4  O   UNL     1       5.835  -1.744 -10.152  0.00  0.00    +0.000 OA
ATOM      5  C   UNL     1       4.986   0.072 -10.820  0.00  0.00    +0.000 C 
ATOM      6  N   UNL     1       3.401   0.039 -11.605  0.00  0.00    +0.000 N 
ATOM      7  C   UNL     1       2.499  -0.839 -11.084  0.00  0.00    +0.000 C 
ATOM      8  O   UNL     1       1.305  -0.854 -11.348  0.00  0.00    +0.000 OA
ATOM      9  C   UNL     1       2.941  -1.765  -9.991  0.00  0.00    +0.000 C 
ATOM     10  C   UNL     1       2.564  -1.464  -8.611  0.00  0.00    +0.000 C 
ATOM     11  S   UNL     1       1.021  -1.992  -9.022  0.00  0.00    +0.000 S 
ATOM     12  S   UNL     1       0.823  -2.077  -7.114  0.00  0.00    +0.000 S 
ATOM     13  C   UNL     1      -1.734  -2.146  -6.329  0.00  0.00    +0.000 C 
ATOM     14  C   UNL     1      -2.440  -1.634  -5.143  0.00  0.00    +0.000 C 
ATOM     15  N   UNL     1      -1.939  -2.176  -4.004  0.00  0.00    +0.000 N 
ATOM     16  C   UNL     1      -0.685  -1.893  -3.730  0.00  0.00    +0.000 C 
ATOM     17  O   UNL     1      -0.368  -2.112  -2.536  0.00  0.00    +0.000 OA
ATOM     18  C   UNL     1       0.561  -1.504  -5.023  0.00  0.00    +0.000 C 
ATOM     19  N   UNL     1       2.007  -0.577  -4.341  0.00  0.00    +0.000 N 
ATOM     20  C   UNL     1       2.589  -1.002  -3.093  0.00  0.00    +0.000 C 
ATOM     21  O   UNL     1       2.918  -0.238  -2.197  0.00  0.00    +0.000 OA
ATOM     22  C   UNL     1       2.757  -2.423  -2.869  0.00  0.00    +0.000 C 
ATOM     23  N   UNL     1       4.192  -2.599  -3.075  0.00  0.00    +0.000 N 
ATOM     24  C   UNL     1       5.324  -1.842  -3.285  0.00  0.00    +0.000 C 
ATOM     25  O   UNL     1       6.274  -2.021  -2.504  0.00  0.00    +0.000 OA
ATOM     26  H   UNL     1       6.165  -1.116  -7.999  0.00  0.00    +0.000 HD
ATOM     27  H   UNL     1       2.935   0.680 -12.356  0.00  0.00    +0.000 HD
ATOM     28  H   UNL     1      -2.153  -3.151  -3.800  0.00  0.00    +0.000 HD
ATOM     29  H   UNL     1       1.866   0.509  -4.307  0.00  0.00    +0.000 HD
ATOM     30  H   UNL     1       4.305  -3.066  -3.933  0.00  0.00    +0.000 HD
ENDROOT
BRANCH  14  31
ATOM     31  C   UNL     1      -2.474  -0.109  -4.712  0.00  0.00    +0.000 C 
ATOM     32  O   UNL     1      -3.178   0.660  -5.367  0.00  0.00    +0.000 OA
ATOM     33  N   UNL     1      -1.338   0.393  -3.926  0.00  0.00    +0.000 N 
ATOM     34  C   UNL     1       0.012   0.489  -4.151  0.00  0.00    +0.000 C 
ATOM     35  C   UNL     1       0.637   0.252  -2.816  0.00  0.00    +0.000 C 
ATOM     36  C   UNL     1       0.140   1.426  -2.261  0.00  0.00    +0.000 C 
ATOM     37  C   UNL     1      -1.210   1.397  -2.956  0.00  0.00    +0.000 C 
BRANCH  37  38
ATOM     38  C   UNL     1      -2.151   1.007  -1.952  0.00  0.00    +0.000 C 
ATOM     39  O   UNL     1      -2.921   1.937  -1.736  0.00  0.00    +0.000 OA
ATOM     40  N   UNL     1      -2.121  -0.246  -1.358  0.00  0.00    +0.000 N 
ATOM     41  H   UNL     1      -1.350  -0.919  -1.505  0.00  0.00    +0.000 HD
BRANCH  40  42
ATOM     42  C   UNL     1      -3.184  -0.692  -0.435  0.00  0.00    +0.000 C 
BRANCH  42  43
ATOM     43  C   UNL     1      -2.875  -2.095   0.192  0.00  0.00    +0.000 C 
ATOM     44  O   UNL     1      -1.841  -2.682  -0.136  0.00  0.00    +0.000 OA
ATOM     45  N   UNL     1      -3.777  -2.644   1.114  0.00  0.00    +0.000 N 
ATOM     46  H   UNL     1      -4.632  -2.171   1.378  0.00  0.00    +0.000 HD
BRANCH  45  47
ATOM     47  C   UNL     1      -3.528  -3.946   1.705  0.00  0.00    +0.000 C 
BRANCH  47  48
ATOM     48  N   UNL     1      -4.612  -4.303   2.602  0.00  0.00    +0.000 NA
ATOM     49  H   UNL     1      -4.656  -3.653   3.383  0.00  0.00    +0.000 HD
ATOM     50  H   UNL     1      -4.406  -5.220   3.027  0.00  0.00    +0.000 HD
ENDBRANCH  47  48
ENDBRANCH  45  47
ENDBRANCH  42  43
BRANCH  42  51
ATOM     51  C   UNL     1      -4.510  -0.752  -1.183  0.00  0.00    +0.000 C 
BRANCH  51  52
ATOM     52  C   UNL     1      -4.891   0.579  -1.790  0.00  0.00    +0.000 C 
BRANCH  52  53
ATOM     53  C   UNL     1      -6.159   0.579  -2.562  0.00  0.00    +0.000 C 
BRANCH  53  54
ATOM     54  N   UNL     1      -6.455   1.884  -3.155  0.00  0.00    +0.000 N 
ATOM     55  C   UNL     1      -7.624   2.057  -3.881  0.00  0.00    +0.000 C 
ATOM     56  O   UNL     1      -8.435   1.158  -4.071  0.00  0.00    +0.000 OA
ATOM     57  H   UNL     1      -5.781   2.628  -3.001  0.00  0.00    +0.000 HD
BRANCH  55  58
ATOM     58  C   UNL     1      -7.922   3.399  -4.466  0.00  0.00    +0.000 A 
ATOM     59  C   UNL     1      -9.206   3.933  -4.499  0.00  0.00    +0.000 A 
ATOM     60  C   UNL     1      -9.535   5.122  -5.281  0.00  0.00    +0.000 A 
ATOM     61  C   UNL     1      -8.673   6.006  -5.919  0.00  0.00    +0.000 A 
ATOM     62  C   UNL     1      -7.264   5.280  -5.891  0.00  0.00    +0.000 A 
ATOM     63  C   UNL     1      -6.954   4.107  -5.131  0.00  0.00    +0.000 A 
BRANCH  61  64
ATOM     64  C   UNL     1      -9.389   7.612  -6.542  0.00  0.00    +0.000 C 
ATOM     65  C   UNL     1      -8.119   8.026  -7.010  0.00  0.00    +0.000 C 
ATOM     66  C   UNL     1      -6.651   7.950  -6.739  0.00  0.00    +0.000 C 
ATOM     67  C   UNL     1      -5.629   8.318  -7.544  0.00  0.00    +0.000 C 
ATOM     68  C   UNL     1      -5.856   9.492  -8.274  0.00  0.00    +0.000 C 
ATOM     69  C   UNL     1      -7.107   9.930  -8.177  0.00  0.00    +0.000 C 
ATOM     70  C   UNL     1      -8.237   9.301  -7.532  0.00  0.00    +0.000 C 
ATOM     71  O   UNL     1      -8.550  10.068  -6.349  0.00  0.00    +0.000 OA
ATOM     72  C   UNL     1      -9.384   9.567  -5.340  0.00  0.00    +0.000 C 
ATOM     73  C   UNL     1      -9.185   8.568  -4.454  0.00  0.00    +0.000 C 
ATOM     74  C   UNL     1     -10.305   7.736  -3.887  0.00  0.00    +0.000 C 
ATOM     75  N   UNL     1     -10.001   6.826  -3.052  0.00  0.00    +0.000 N 
ATOM     76  C   UNL     1     -11.026   6.242  -2.195  0.00  0.00    +0.000 C 
ATOM     77  C   UNL     1      -8.595   6.427  -2.880  0.00  0.00    +0.000 C 
ATOM     78  C   UNL     1     -11.689   8.068  -4.153  0.00  0.00    +0.000 C 
ATOM     79  C   UNL     1     -11.854   9.055  -4.983  0.00  0.00    +0.000 C 
ATOM     80  C   UNL     1     -10.612   9.158  -6.005  0.00  0.00    +0.000 C 
BRANCH  68  81
ATOM     81  N   UNL     1      -4.841  10.182  -8.864  0.00  0.00    +0.000 N 
ATOM     82  C   UNL     1      -3.480   9.682  -8.962  0.00  0.00    +0.000 C 
ATOM     83  C   UNL     1      -5.116  11.488  -9.431  0.00  0.00    +0.000 C 
ENDBRANCH  68  81
ENDBRANCH  61  64
BRANCH  62  84
ATOM     84  C   UNL     1      -6.048   5.460  -6.855  0.00  0.00    +0.000 C 
ATOM     85  O   UNL     1      -6.233   5.958  -7.945  0.00  0.00    +0.000 OA
BRANCH  84  86
ATOM     86  O   UNL     1      -4.751   5.352  -6.507  0.00  0.00    +0.000 OA
ATOM     87  H   UNL     1      -4.575   4.502  -6.106  0.00  0.00    +0.000 HD
ENDBRANCH  84  86
ENDBRANCH  62  84
ENDBRANCH  55  58
ENDBRANCH  53  54
ENDBRANCH  52  53
ENDBRANCH  51  52
ENDBRANCH  42  51
ENDBRANCH  40  42
ENDBRANCH  37  38
ENDBRANCH  14  31
BRANCH   5  88
ATOM     88  C   UNL     1       5.015   1.237 -10.031  0.00  0.00    +0.000 A 
ATOM     89  C   UNL     1       6.349   1.328  -9.657  0.00  0.00    +0.000 A 
ATOM     90  C   UNL     1       6.547   1.489  -8.309  0.00  0.00    +0.000 A 
ATOM     91  C   UNL     1       5.444   1.590  -7.453  0.00  0.00    +0.000 A 
ATOM     92  C   UNL     1       4.147   1.377  -7.894  0.00  0.00    +0.000 A 
ATOM     93  C   UNL     1       3.902   1.276  -9.222  0.00  0.00    +0.000 A 
BRANCH  91  94
ATOM     94  O   UNL     1       5.544   1.842  -6.125  0.00  0.00    +0.000 OA
ATOM     95  H   UNL     1       6.460   2.003  -5.861  0.00  0.00    +0.000 HD
ENDBRANCH  91  94
ENDBRANCH   5  88
BRANCH   1  96
ATOM     96  C   UNL     1       5.152  -0.087  -2.303  0.00  0.00    +0.000 C 
ATOM     97  C   UNL     1       6.162   0.311  -0.581  0.00  0.00    +0.000 C 
BRANCH  96  99
ATOM     98  C   UNL     1       3.661   1.751  -0.346  0.00  0.00    +0.000 C 
ATOM     99  C   UNL     1       4.069   0.279  -0.470  0.00  0.00    +0.000 C 
ENDBRANCH  96  99
ENDBRANCH   1  96
BRANCH   9 100
ATOM    100  O   UNL     1       4.094  -1.566  -9.482  0.00  0.00    +0.000 OA
ATOM    101  H   UNL     1       4.132  -0.612  -9.504  0.00  0.00    +0.000 HD
ENDBRANCH   9 100
BRANCH  18 102
ATOM    102  C   UNL     1      -0.414  -0.489  -6.303  0.00  0.00    +0.000 C 
BRANCH 102 103
ATOM    103  C   UNL     1      -0.956  -1.308  -7.657  0.00  0.00    +0.000 C 
ATOM    104  N   UNL     1      -0.699  -3.186  -7.209  0.00  0.00    +0.000 N 
ATOM    105  O   UNL     1      -1.600  -0.877  -8.551  0.00  0.00    +0.000 OA
ATOM    106  H   UNL     1       0.052  -3.279  -6.351  0.00  0.00    +0.000 HD
ATOM    107  H   UNL     1      -0.972  -3.976  -7.615  0.00  0.00    +0.000 HD
ENDBRANCH 102 103
ENDBRANCH  18 102
BRANCH  22 108
ATOM    108  C   UNL     1       2.083  -3.309  -3.899  0.00  0.00    +0.000 C 
BRANCH 108 109
ATOM    109  C   UNL     1       0.643  -3.557  -3.684  0.00  0.00    +0.000 C 
BRANCH 109 110
ATOM    110  C   UNL     1      -0.337  -4.211  -4.707  0.00  0.00    +0.000 C 
ATOM    111  N   UNL     1       0.373  -4.744  -5.696  0.00  0.00    +0.000 N 
ATOM    112  O   UNL     1      -1.565  -4.218  -4.793  0.00  0.00    +0.000 OA
ATOM    113  H   UNL     1       1.344  -4.505  -5.816  0.00  0.00    +0.000 HD
ATOM    114  H   UNL     1      -0.185  -5.044  -6.480  0.00  0.00    +0.000 HD
ENDBRANCH 109 110
ENDBRANCH 108 109
ENDBRANCH  22 108
TORSDOF 25
