REMARK  Name = CHEMBL32404
REMARK  7 active torsions:
REMARK  status: ('A' for Active; 'I' for Inactive)
REMARK    1  A    between atoms: C_2  and  C_3
REMARK    2  A    between atoms: C_3  and  N_4
REMARK    3  A    between atoms: C_7  and  C_8
REMARK    4  A    between atoms: N_15  and  C_16
REMARK    5  A    between atoms: C_16  and  C_17
REMARK    6  A    between atoms: C_21  and  C_22
REMARK    7  A    between atoms: C_27  and  N_28
REMARK                            x       y       z     vdW  Elec       q    Type
REMARK                         _______ _______ _______ _____ _____    ______ ____
ROOT
ATOM      1  C   UNL     1       5.300   2.005   2.001  0.00  0.00    +0.000 A 
ATOM      2  C   UNL     1       6.599   1.662   2.352  0.00  0.00    +0.000 A 
ATOM      3  C   UNL     1       6.879   2.486   3.462  0.00  0.00    +0.000 A 
ATOM      4  C   UNL     1       6.202   2.705   4.696  0.00  0.00    +0.000 A 
ATOM      5  C   UNL     1       6.371   3.840   5.505  0.00  0.00    +0.000 A 
ATOM      6  C   UNL     1       7.284   4.777   5.066  0.00  0.00    +0.000 A 
ATOM      7  C   UNL     1       7.615   4.732   3.682  0.00  0.00    +0.000 A 
ATOM      8  C   UNL     1       6.970   3.725   2.840  0.00  0.00    +0.000 A 
ATOM      9  O   UNL     1       5.441   3.524   2.238  0.00  0.00    +0.000 OA
ENDROOT
BRANCH   5  10
ATOM     10  C   UNL     1       5.466   4.126   6.661  0.00  0.00    +0.000 C 
ATOM     11  O   UNL     1       5.688   5.114   7.359  0.00  0.00    +0.000 OA
ATOM     12  N   UNL     1       4.284   3.367   6.766  0.00  0.00    +0.000 N 
ATOM     13  C   UNL     1       3.008   4.037   6.536  0.00  0.00    +0.000 C 
ATOM     14  C   UNL     1       1.955   3.590   7.527  0.00  0.00    +0.000 C 
ATOM     15  C   UNL     1       1.505   1.969   7.117  0.00  0.00    +0.000 C 
ATOM     16  C   UNL     1       3.087   1.403   7.642  0.00  0.00    +0.000 C 
ATOM     17  C   UNL     1       4.218   1.901   6.770  0.00  0.00    +0.000 C 
BRANCH  15  18
ATOM     18  N   UNL     1       0.271   1.878   5.726  0.00  0.00    +0.000 N 
ATOM     19  C   UNL     1      -0.636   2.171   6.829  0.00  0.00    +0.000 C 
ATOM     20  O   UNL     1      -0.596   3.135   7.642  0.00  0.00    +0.000 OA
ATOM     21  O   UNL     1      -1.499   1.214   7.144  0.00  0.00    +0.000 OA
ATOM     22  C   UNL     1      -2.545   1.690   6.384  0.00  0.00    +0.000 C 
ATOM     23  C   UNL     1      -2.213   0.793   5.294  0.00  0.00    +0.000 A 
ATOM     24  C   UNL     1      -2.700  -0.523   5.090  0.00  0.00    +0.000 A 
ATOM     25  C   UNL     1      -2.743  -1.165   3.854  0.00  0.00    +0.000 A 
ATOM     26  C   UNL     1      -2.486  -0.328   2.813  0.00  0.00    +0.000 A 
ATOM     27  C   UNL     1      -1.659   0.916   3.201  0.00  0.00    +0.000 A 
ATOM     28  C   UNL     1      -1.054   1.118   4.666  0.00  0.00    +0.000 A 
ENDBRANCH  15  18
ENDBRANCH   5  10
BRANCH   1  29
ATOM     29  C   UNL     1       4.447   1.127   0.985  0.00  0.00    +0.000 C 
BRANCH  29  32
ATOM     30  O   UNL     1       1.013   0.045   0.288  0.00  0.00    +0.000 OA
ATOM     31  C   UNL     1       2.243   0.047   0.177  0.00  0.00    +0.000 C 
ATOM     32  N   UNL     1       2.990   0.927   0.981  0.00  0.00    +0.000 N 
ATOM     33  H   UNL     1       2.398   1.504   1.568  0.00  0.00    +0.000 HD
BRANCH  31  34
ATOM     34  C   UNL     1       2.935  -0.939  -0.817  0.00  0.00    +0.000 C 
BRANCH  34  35
ATOM     35  N   UNL     1       1.985  -1.775  -1.597  0.00  0.00    +0.000 N 
ATOM     36  C   UNL     1       2.050  -3.148  -1.597  0.00  0.00    +0.000 A 
ATOM     37  N   UNL     1       1.456  -3.932  -2.440  0.00  0.00    +0.000 NA
ATOM     38  C   UNL     1       0.605  -3.349  -3.364  0.00  0.00    +0.000 A 
ATOM     39  C   UNL     1       0.320  -2.039  -3.331  0.00  0.00    +0.000 A 
ATOM     40  C   UNL     1       1.160  -1.154  -2.507  0.00  0.00    +0.000 A 
ATOM     41  O   UNL     1       1.130   0.055  -2.715  0.00  0.00    +0.000 OA
BRANCH  38  42
ATOM     42  C   UNL     1      -0.038  -4.229  -4.431  0.00  0.00    +0.000 C 
ATOM     43  F   UNL     1       0.889  -4.799  -5.248  0.00  0.00    +0.000 F 
ATOM     44  F   UNL     1      -0.780  -5.236  -3.905  0.00  0.00    +0.000 F 
ATOM     45  F   UNL     1      -0.871  -3.524  -5.248  0.00  0.00    +0.000 F 
ENDBRANCH  38  42
ENDBRANCH  34  35
ENDBRANCH  31  34
ENDBRANCH  29  32
ENDBRANCH   1  29
TORSDOF 7
