REMARK  Name = CHEMBL4583231
REMARK  28 active torsions:
REMARK  status: ('A' for Active; 'I' for Inactive)
REMARK    1  A    between atoms: C_1  and  C_2
REMARK    2  A    between atoms: C_2  and  C_3
REMARK    3  A    between atoms: C_3  and  C_4
REMARK    4  A    between atoms: C_3  and  C_5
REMARK    5  A    between atoms: C_9  and  C_10
REMARK    6  A    between atoms: C_10  and  C_11
REMARK    7  A    between atoms: C_14  and  O_15
REMARK    8  A    between atoms: C_21  and  N_22
REMARK    9  A    between atoms: C_27  and  C_28
REMARK   10  A    between atoms: N_30  and  C_31
REMARK   11  A    between atoms: N_30  and  C_35
REMARK   12  A    between atoms: C_31  and  C_32
REMARK   13  A    between atoms: C_32  and  C_33
REMARK   14  A    between atoms: C_33  and  O_34
REMARK   15  A    between atoms: C_35  and  C_36
REMARK   16  A    between atoms: N_38  and  C_39
REMARK   17  A    between atoms: C_39  and  C_40
REMARK   18  A    between atoms: C_39  and  C_44
REMARK   19  A    between atoms: C_40  and  C_41
REMARK   20  A    between atoms: C_41  and  C_42
REMARK   21  A    between atoms: C_41  and  C_43
REMARK   22  A    between atoms: N_46  and  C_47
REMARK   23  A    between atoms: C_47  and  C_48
REMARK   24  A    between atoms: C_54  and  C_55
REMARK   25  A    between atoms: C_55  and  C_56
REMARK   26  A    between atoms: C_62  and  C_63
REMARK   27  A    between atoms: C_63  and  C_64
REMARK   28  A    between atoms: C_64  and  C_65
REMARK                            x       y       z     vdW  Elec       q    Type
REMARK                         _______ _______ _______ _____ _____    ______ ____
ROOT
ATOM      1  C   UNL     1       5.070  -3.250  -3.452  0.00  0.00    +0.000 C 
ATOM      2  N   UNL     1       5.281  -4.556  -5.370  0.00  0.00    +0.000 N 
ATOM      3  C   UNL     1       5.713  -5.489  -6.983  0.00  0.00    +0.000 C 
ATOM      4  O   UNL     1       6.236  -6.806  -7.295  0.00  0.00    +0.000 OA
ATOM      5  C   UNL     1       4.971  -5.765  -8.963  0.00  0.00    +0.000 C 
ATOM      6  N   UNL     1       3.478  -6.275  -9.530  0.00  0.00    +0.000 N 
ATOM      7  C   UNL     1       2.508  -6.754  -8.693  0.00  0.00    +0.000 C 
ATOM      8  O   UNL     1       1.347  -6.940  -9.037  0.00  0.00    +0.000 OA
ATOM      9  C   UNL     1       2.831  -7.026  -7.255  0.00  0.00    +0.000 C 
ATOM     10  C   UNL     1       2.505  -5.936  -6.306  0.00  0.00    +0.000 C 
ATOM     11  S   UNL     1       0.865  -6.695  -6.206  0.00  0.00    +0.000 S 
ATOM     12  S   UNL     1      -0.195  -5.360  -5.356  0.00  0.00    +0.000 S 
ATOM     13  C   UNL     1      -1.657  -5.733  -4.385  0.00  0.00    +0.000 C 
ATOM     14  C   UNL     1      -2.230  -4.541  -3.423  0.00  0.00    +0.000 C 
ATOM     15  N   UNL     1      -1.558  -4.535  -2.182  0.00  0.00    +0.000 N 
ATOM     16  C   UNL     1      -0.266  -4.278  -2.108  0.00  0.00    +0.000 C 
ATOM     17  O   UNL     1       0.224  -4.409  -1.004  0.00  0.00    +0.000 OA
ATOM     18  C   UNL     1       0.428  -3.774  -3.359  0.00  0.00    +0.000 C 
ATOM     19  N   UNL     1       0.777  -2.337  -3.204  0.00  0.00    +0.000 N 
ATOM     20  C   UNL     1       1.872  -2.171  -2.484  0.00  0.00    +0.000 C 
ATOM     21  O   UNL     1       2.945  -1.757  -3.231  0.00  0.00    +0.000 OA
ATOM     22  C   UNL     1       2.464  -3.481  -1.022  0.00  0.00    +0.000 C 
ATOM     23  N   UNL     1       4.180  -4.127  -0.992  0.00  0.00    +0.000 N 
ATOM     24  C   UNL     1       5.397  -3.624  -1.765  0.00  0.00    +0.000 C 
ATOM     25  O   UNL     1       6.322  -3.045  -1.146  0.00  0.00    +0.000 OA
ATOM     26  H   UNL     1       6.126  -5.394  -5.608  0.00  0.00    +0.000 HD
ATOM     27  H   UNL     1       3.078  -6.212 -10.524  0.00  0.00    +0.000 HD
ATOM     28  H   UNL     1      -2.031  -4.781  -1.326  0.00  0.00    +0.000 HD
ATOM     29  H   UNL     1       0.828  -1.688  -4.018  0.00  0.00    +0.000 HD
ATOM     30  H   UNL     1       4.213  -4.968  -1.523  0.00  0.00    +0.000 HD
ENDROOT
BRANCH   9  31
ATOM     31  N   UNL     1       4.150  -6.872  -7.054  0.00  0.00    +0.000 NA
ATOM     32  H   UNL     1       4.128  -5.941  -7.447  0.00  0.00    +0.000 HD
ATOM     33  H   UNL     1       4.680  -7.412  -7.741  0.00  0.00    +0.000 HD
ENDBRANCH   9  31
BRANCH  14  34
ATOM     34  C   UNL     1      -3.735  -4.731  -3.246  0.00  0.00    +0.000 C 
ATOM     35  O   UNL     1      -4.174  -5.024  -2.133  0.00  0.00    +0.000 OA
ATOM     36  N   UNL     1      -4.557  -4.562  -4.357  0.00  0.00    +0.000 N 
BRANCH  36  37
ATOM     37  C   UNL     1      -6.042  -4.833  -4.201  0.00  0.00    +0.000 C 
BRANCH  37  38
ATOM     38  C   UNL     1      -6.978  -4.292  -5.367  0.00  0.00    +0.000 C 
ATOM     39  O   UNL     1      -6.503  -3.647  -6.311  0.00  0.00    +0.000 OA
ATOM     40  N   UNL     1      -8.226  -4.904  -5.562  0.00  0.00    +0.000 N 
ATOM     41  H   UNL     1      -8.719  -5.370  -4.809  0.00  0.00    +0.000 HD
BRANCH  40  42
ATOM     42  C   UNL     1      -8.907  -4.923  -6.911  0.00  0.00    +0.000 C 
BRANCH  42  43
ATOM     43  C   UNL     1     -10.411  -5.273  -6.724  0.00  0.00    +0.000 C 
ATOM     44  O   UNL     1     -10.833  -5.598  -5.614  0.00  0.00    +0.000 OA
ATOM     45  N   UNL     1     -11.238  -5.215  -7.829  0.00  0.00    +0.000 N 
ATOM     46  H   UNL     1     -10.877  -4.956  -8.729  0.00  0.00    +0.000 HD
BRANCH  45  47
ATOM     47  C   UNL     1     -12.670  -5.515  -7.744  0.00  0.00    +0.000 C 
BRANCH  47  48
ATOM     48  C   UNL     1     -13.436  -5.387  -9.077  0.00  0.00    +0.000 C 
ATOM     49  N   UNL     1     -12.722  -5.017 -10.192  0.00  0.00    +0.000 N 
ATOM     50  O   UNL     1     -14.643  -5.607  -9.155  0.00  0.00    +0.000 OA
ATOM     51  H   UNL     1     -11.739  -4.818 -10.226  0.00  0.00    +0.000 HD
ATOM     52  H   UNL     1     -13.200  -4.925 -11.081  0.00  0.00    +0.000 HD
ENDBRANCH  47  48
ENDBRANCH  45  47
ENDBRANCH  42  43
BRANCH  42  53
ATOM     53  C   UNL     1      -8.306  -5.914  -7.949  0.00  0.00    +0.000 C 
BRANCH  53  54
ATOM     54  C   UNL     1      -6.841  -5.681  -8.242  0.00  0.00    +0.000 C 
ATOM     55  C   UNL     1      -6.028  -6.161  -7.101  0.00  0.00    +0.000 C 
ATOM     56  C   UNL     1      -6.226  -6.581  -9.250  0.00  0.00    +0.000 C 
ENDBRANCH  53  54
ENDBRANCH  42  53
ENDBRANCH  40  42
ENDBRANCH  37  38
ENDBRANCH  36  37
BRANCH  36  57
ATOM     57  C   UNL     1      -4.061  -4.152  -5.682  0.00  0.00    +0.000 C 
BRANCH  57  58
ATOM     58  C   UNL     1      -2.721  -3.583  -5.849  0.00  0.00    +0.000 C 
BRANCH  58  59
ATOM     59  C   UNL     1      -2.111  -3.489  -7.187  0.00  0.00    +0.000 C 
BRANCH  59  60
ATOM     60  O   UNL     1      -0.710  -3.251  -7.061  0.00  0.00    +0.000 OA
ATOM     61  H   UNL     1      -0.545  -2.603  -6.358  0.00  0.00    +0.000 HD
ENDBRANCH  59  60
ENDBRANCH  58  59
ENDBRANCH  57  58
ENDBRANCH  36  57
ENDBRANCH  14  34
BRANCH   1  62
ATOM     62  C   UNL     1       4.394  -1.941  -1.865  0.00  0.00    +0.000 C 
ATOM     63  C   UNL     1       3.555  -0.319  -0.702  0.00  0.00    +0.000 C 
BRANCH  62  65
ATOM     64  C   UNL     1       2.653   0.086  -3.163  0.00  0.00    +0.000 C 
ATOM     65  C   UNL     1       2.863  -0.861  -1.582  0.00  0.00    +0.000 C 
ENDBRANCH  62  65
ENDBRANCH   1  62
BRANCH  18  66
ATOM     66  C   UNL     1       1.662  -5.071  -3.577  0.00  0.00    +0.000 C 
BRANCH  66  67
ATOM     67  C   UNL     1       3.023  -4.814  -3.281  0.00  0.00    +0.000 C 
ATOM     68  N   UNL     1       2.760  -3.617  -3.409  0.00  0.00    +0.000 N 
ATOM     69  O   UNL     1       4.041  -5.338  -2.998  0.00  0.00    +0.000 OA
ATOM     70  H   UNL     1       1.946  -3.630  -2.689  0.00  0.00    +0.000 HD
ATOM     71  H   UNL     1       3.355  -2.792  -3.420  0.00  0.00    +0.000 HD
ENDBRANCH  66  67
ENDBRANCH  18  66
BRANCH   5  72
ATOM     72  C   UNL     1       5.078  -4.375  -8.889  0.00  0.00    +0.000 C 
BRANCH  72  73
ATOM     73  C   UNL     1       6.583  -4.302  -8.882  0.00  0.00    +0.000 A 
ATOM     74  C   UNL     1       7.495  -5.127  -9.603  0.00  0.00    +0.000 A 
ATOM     75  C   UNL     1       8.856  -4.937  -9.447  0.00  0.00    +0.000 A 
ATOM     76  C   UNL     1       9.284  -4.018  -8.504  0.00  0.00    +0.000 A 
ATOM     77  C   UNL     1       8.392  -3.385  -7.655  0.00  0.00    +0.000 A 
ATOM     78  C   UNL     1       7.050  -3.537  -7.830  0.00  0.00    +0.000 A 
BRANCH  76  79
ATOM     79  O   UNL     1      10.584  -3.658  -8.343  0.00  0.00    +0.000 OA
ATOM     80  H   UNL     1      11.155  -4.110  -8.981  0.00  0.00    +0.000 HD
ENDBRANCH  76  79
ENDBRANCH  72  73
ENDBRANCH   5  72
BRANCH  22  81
ATOM     81  C   UNL     1       2.127  -3.230   0.468  0.00  0.00    +0.000 C 
BRANCH  81  82
ATOM     82  C   UNL     1       2.096  -1.812   0.889  0.00  0.00    +0.000 C 
BRANCH  82  83
ATOM     83  C   UNL     1       1.852  -1.274   2.211  0.00  0.00    +0.000 C 
ATOM     84  N   UNL     1       1.718  -2.308   3.044  0.00  0.00    +0.000 N 
ATOM     85  O   UNL     1       1.859  -0.083   2.480  0.00  0.00    +0.000 OA
ATOM     86  H   UNL     1       1.780  -3.260   2.707  0.00  0.00    +0.000 HD
ATOM     87  H   UNL     1       1.569  -2.087   3.998  0.00  0.00    +0.000 HD
ENDBRANCH  82  83
ENDBRANCH  81  82
ENDBRANCH  22  81
TORSDOF 24
