REMARK  Name = CHEMBL358793
REMARK  5 active torsions:
REMARK  status: ('A' for Active; 'I' for Inactive)
REMARK    1  A    between atoms: C_1  and  C_2
REMARK    2  A    between atoms: C_7  and  O_8
REMARK    3  A    between atoms: O_8  and  C_9
REMARK    4  A    between atoms: C_12  and  C_13
REMARK    5  A    between atoms: C_18  and  N_19
REMARK                            x       y       z     vdW  Elec       q    Type
REMARK                         _______ _______ _______ _____ _____    ______ ____
ROOT
ATOM      1  C   UNL     1       8.022  -8.061   1.309  0.00  0.00    +0.000 C 
ATOM      2  O   UNL     1       8.268  -9.125   0.742  0.00  0.00    +0.000 OA
ATOM      3  N   UNL     1       8.729  -7.631   2.461  0.00  0.00    +0.000 N 
ATOM      4  C   UNL     1      10.193  -7.622   2.470  0.00  0.00    +0.000 C 
ATOM      5  C   UNL     1      10.777  -8.306   3.692  0.00  0.00    +0.000 C 
ATOM      6  C   UNL     1      10.429  -7.320   5.093  0.00  0.00    +0.000 C 
ATOM      7  C   UNL     1       8.754  -7.710   4.944  0.00  0.00    +0.000 C 
ATOM      8  C   UNL     1       8.104  -7.135   3.692  0.00  0.00    +0.000 C 
ENDROOT
BRANCH   6   9
ATOM      9  N   UNL     1      11.632  -5.931   5.313  0.00  0.00    +0.000 N 
ATOM     10  C   UNL     1      12.515  -6.980   5.759  0.00  0.00    +0.000 C 
ATOM     11  O   UNL     1      12.823  -8.067   5.203  0.00  0.00    +0.000 OA
ATOM     12  O   UNL     1      12.842  -6.923   7.031  0.00  0.00    +0.000 OA
ATOM     13  C   UNL     1      14.007  -6.221   6.858  0.00  0.00    +0.000 C 
ATOM     14  C   UNL     1      13.335  -4.987   7.262  0.00  0.00    +0.000 A 
ATOM     15  C   UNL     1      13.923  -4.381   8.464  0.00  0.00    +0.000 A 
ATOM     16  C   UNL     1      13.840  -3.059   8.780  0.00  0.00    +0.000 A 
ATOM     17  C   UNL     1      13.546  -2.345   7.651  0.00  0.00    +0.000 A 
ATOM     18  C   UNL     1      12.849  -3.075   6.398  0.00  0.00    +0.000 A 
ATOM     19  C   UNL     1      12.339  -4.561   6.345  0.00  0.00    +0.000 A 
ENDBRANCH   6   9
BRANCH   1  23
ATOM     20  C   UNL     1       5.514  -5.167  -0.774  0.00  0.00    +0.000 A 
ATOM     21  C   UNL     1       5.702  -6.437  -1.314  0.00  0.00    +0.000 A 
ATOM     22  C   UNL     1       6.418  -7.421  -0.585  0.00  0.00    +0.000 A 
ATOM     23  C   UNL     1       7.060  -7.109   0.634  0.00  0.00    +0.000 A 
ATOM     24  C   UNL     1       6.881  -5.829   1.128  0.00  0.00    +0.000 A 
ATOM     25  C   UNL     1       6.073  -4.908   0.470  0.00  0.00    +0.000 A 
BRANCH  20  26
ATOM     26  O   UNL     1       4.613  -4.321  -1.364  0.00  0.00    +0.000 OA
BRANCH  26  33
ATOM     27  C   UNL     1       1.130   0.076  -0.003  0.00  0.00    +0.000 C 
ATOM     28  C   UNL     1       2.654   0.013   0.028  0.00  0.00    +0.000 C 
ATOM     29  O   UNL     1       3.328   0.983   0.360  0.00  0.00    +0.000 OA
ATOM     30  N   UNL     1       3.186  -1.241  -0.250  0.00  0.00    +0.000 N 
ATOM     31  C   UNL     1       4.350  -1.818   0.425  0.00  0.00    +0.000 C 
ATOM     32  C   UNL     1       5.497  -2.086  -0.556  0.00  0.00    +0.000 C 
ATOM     33  C   UNL     1       5.037  -2.984  -1.717  0.00  0.00    +0.000 C 
ATOM     34  C   UNL     1       3.834  -2.282  -2.378  0.00  0.00    +0.000 C 
ATOM     35  C   UNL     1       2.707  -2.015  -1.377  0.00  0.00    +0.000 C 
ENDBRANCH  26  33
ENDBRANCH  20  26
ENDBRANCH   1  23
TORSDOF 4
