REMARK  Name = CHEMBL2037507
REMARK  12 active torsions:
REMARK  status: ('A' for Active; 'I' for Inactive)
REMARK    1  A    between atoms: CD1_1  and  CG1_2
REMARK    2  A    between atoms: CG1_2  and  CB_3
REMARK    3  A    between atoms: CB_3  and  CG2_4
REMARK    4  A    between atoms: CB_3  and  CA_5
REMARK    5  A    between atoms: C_9  and  C_10
REMARK    6  A    between atoms: N_21  and  C_22
REMARK    7  A    between atoms: C_22  and  C_23
REMARK    8  A    between atoms: C_22  and  C_28
REMARK    9  A    between atoms: N_25  and  C_26
REMARK   10  A    between atoms: N_25  and  C_27
REMARK   11  A    between atoms: C_31  and  C_32
REMARK   12  A    between atoms: C_34  and  C_35
REMARK                            x       y       z     vdW  Elec       q    Type
REMARK                         _______ _______ _______ _____ _____    ______ ____
ROOT
ATOM      1  CA  ILE A   2       4.760  -1.012   0.922  0.00  0.00    +0.000 C 
ATOM      2  C   ILE A   2       5.253   0.453   1.051  0.00  0.00    +0.000 C 
ATOM      3  O   ILE A   2       4.784   1.355   1.693  0.00  0.00    +0.000 OA
ATOM      4  N   UNK A   1       6.398   0.633   0.367  0.00  0.00    +0.000 N 
ATOM      5  C   UNK A   1       7.231  -0.506   0.106  0.00  0.00    +0.000 C 
ATOM      6  C   UNK A   1       6.448  -1.521  -0.722  0.00  0.00    +0.000 C 
ATOM      7  O   UNK A   1       7.031  -2.149  -1.588  0.00  0.00    +0.000 OA
ATOM      8  N   ILE A   2       5.119  -1.667  -0.349  0.00  0.00    +0.000 N 
ATOM      9  H   UNK A   1       6.710   1.594   0.380  0.00  0.00    +0.000 HD
ENDROOT
BRANCH   5  10
ATOM     10  C   UNK A   1       8.418  -0.152  -0.771  0.00  0.00    +0.000 C 
ATOM     11  C   UNK A   1       9.261   0.935  -0.114  0.00  0.00    +0.000 C 
ATOM     12  C   UNK A   1       8.623   2.168  -0.684  0.00  0.00    +0.000 A 
ATOM     13  C   UNK A   1       8.615   3.432  -0.134  0.00  0.00    +0.000 A 
ATOM     14  C   UNK A   1       7.830   4.410  -0.746  0.00  0.00    +0.000 A 
ATOM     15  C   UNK A   1       7.042   4.111  -1.871  0.00  0.00    +0.000 A 
ATOM     16  C   UNK A   1       7.026   2.824  -2.404  0.00  0.00    +0.000 A 
ATOM     17  C   UNK A   1       7.839   1.873  -1.811  0.00  0.00    +0.000 A 
ATOM     18  C   UNK A   1       7.905   0.417  -2.131  0.00  0.00    +0.000 C 
ENDBRANCH   5  10
BRANCH   1  19
ATOM     19  CB  ILE A   2       3.293  -0.950   1.056  0.00  0.00    +0.000 C 
ATOM     20  CG2 ILE A   2       2.904   0.432   0.001  0.00  0.00    +0.000 C 
BRANCH  19  22
ATOM     21  CD1 ILE A   2       1.722  -3.680   1.595  0.00  0.00    +0.000 C 
ATOM     22  CG1 ILE A   2       2.798  -2.724   1.024  0.00  0.00    +0.000 C 
ENDBRANCH  19  22
ENDBRANCH   1  19
BRANCH   8  23
ATOM     23  C   UNK A   0       4.151  -2.533  -1.124  0.00  0.00    +0.000 C 
BRANCH  23  24
ATOM     24  C   UNK A   0       4.853  -3.537  -2.062  0.00  0.00    +0.000 A 
ATOM     25  C   UNK A   0       4.508  -3.611  -3.398  0.00  0.00    +0.000 A 
ATOM     26  N   UNK A   0       5.114  -4.407  -4.286  0.00  0.00    +0.000 NA
ATOM     27  C   UNK A   0       6.147  -5.149  -3.848  0.00  0.00    +0.000 A 
ATOM     28  C   UNK A   0       6.819  -5.947  -4.907  0.00  0.00    +0.000 C 
ATOM     29  C   UNK A   0       6.560  -5.203  -2.522  0.00  0.00    +0.000 A 
ATOM     30  C   UNK A   0       5.875  -4.440  -1.575  0.00  0.00    +0.000 A 
ATOM     31  C   UNK A   0       6.336  -4.534  -0.122  0.00  0.00    +0.000 C 
ENDBRANCH  23  24
BRANCH  23  32
ATOM     32  C   UNK A   0       2.612  -1.801  -1.622  0.00  0.00    +0.000 C 
ATOM     33  O   UNK A   0       2.501  -1.619  -2.849  0.00  0.00    +0.000 OA
ATOM     34  N   UNK A   0       1.386  -1.322  -0.734  0.00  0.00    +0.000 N 
ATOM     35  C   UNK A   0       0.884  -1.073   0.910  0.00  0.00    +0.000 C 
ATOM     36  C   UNK A   0       0.504  -0.529  -1.572  0.00  0.00    +0.000 C 
ENDBRANCH  23  32
ENDBRANCH   8  23
TORSDOF 6
