REMARK  Name = CHEMBL1088767
REMARK  10 active torsions:
REMARK  status: ('A' for Active; 'I' for Inactive)
REMARK    1  A    between atoms: C_1  and  C_2
REMARK    2  A    between atoms: C_2  and  N_3
REMARK    3  A    between atoms: N_3  and  C_20
REMARK    4  A    between atoms: C_4  and  C_6
REMARK    5  A    between atoms: N_9  and  C_10
REMARK    6  A    between atoms: C_13  and  O_14
REMARK    7  A    between atoms: O_14  and  C_15
REMARK    8  A    between atoms: C_18  and  C_19
REMARK    9  A    between atoms: C_23  and  O_24
REMARK   10  A    between atoms: O_24  and  C_25
REMARK                            x       y       z     vdW  Elec       q    Type
REMARK                         _______ _______ _______ _____ _____    ______ ____
ROOT
ATOM      1  C   UNL     1       0.541   2.179   0.763  0.00  0.00    +0.000 A 
ATOM      2  C   UNL     1      -0.333   1.359   1.517  0.00  0.00    +0.000 A 
ATOM      3  N   UNL     1      -1.608   1.457   1.143  0.00  0.00    +0.000 NA
ATOM      4  N   UNL     1      -1.607   2.448   0.227  0.00  0.00    +0.000 N 
ATOM      5  C   UNL     1      -0.342   2.963   0.024  0.00  0.00    +0.000 A 
ATOM      6  C   UNL     1      -0.070   4.210  -0.732  0.00  0.00    +0.000 C 
ENDROOT
BRANCH   4   7
ATOM      7  C   UNL     1      -2.828   2.884  -0.327  0.00  0.00    +0.000 A 
ATOM      8  C   UNL     1      -3.905   3.105   0.533  0.00  0.00    +0.000 A 
ATOM      9  C   UNL     1      -5.123   3.532   0.008  0.00  0.00    +0.000 A 
ATOM     10  C   UNL     1      -5.255   3.780  -1.362  0.00  0.00    +0.000 A 
ATOM     11  C   UNL     1      -4.175   3.535  -2.215  0.00  0.00    +0.000 A 
ATOM     12  C   UNL     1      -2.956   3.090  -1.702  0.00  0.00    +0.000 A 
BRANCH  10  13
ATOM     13  O   UNL     1      -6.472   4.272  -1.754  0.00  0.00    +0.000 OA
ATOM     14  C   UNL     1      -6.587   4.641  -3.125  0.00  0.00    +0.000 C 
ENDBRANCH  10  13
ENDBRANCH   4   7
BRANCH   1  16
ATOM     15  N   UNL     1       2.885   1.287   0.380  0.00  0.00    +0.000 N 
ATOM     16  C   UNL     1       2.005   2.348   0.774  0.00  0.00    +0.000 C 
ATOM     17  O   UNL     1       2.433   3.467   1.021  0.00  0.00    +0.000 OA
BRANCH  15  18
ATOM     18  C   UNL     1       4.319   1.538   0.442  0.00  0.00    +0.000 A 
ATOM     19  C   UNL     1       5.196   1.044  -0.529  0.00  0.00    +0.000 A 
ATOM     20  C   UNL     1       6.566   1.315  -0.465  0.00  0.00    +0.000 A 
ATOM     21  C   UNL     1       7.063   2.058   0.592  0.00  0.00    +0.000 A 
ATOM     22  N   UNL     1       6.259   2.519   1.571  0.00  0.00    +0.000 NA
ATOM     23  C   UNL     1       4.922   2.266   1.468  0.00  0.00    +0.000 A 
BRANCH  21  24
ATOM     24  O   UNL     1       8.380   2.398   0.751  0.00  0.00    +0.000 OA
ATOM     25  C   UNL     1       9.274   1.972  -0.272  0.00  0.00    +0.000 C 
ENDBRANCH  21  24
ENDBRANCH  15  18
BRANCH  15  27
ATOM     26  C   UNL     1       1.083  -0.413  -0.257  0.00  0.00    +0.000 C 
ATOM     27  C   UNL     1       2.539  -0.081  -0.103  0.00  0.00    +0.000 C 
ENDBRANCH  15  27
ENDBRANCH   1  16
TORSDOF 6
