REMARK  Name = CHEMBL262035
REMARK  34 active torsions:
REMARK  status: ('A' for Active; 'I' for Inactive)
REMARK    1  A    between atoms: C_1  and  N_2
REMARK    2  A    between atoms: N_2  and  C_12
REMARK    3  A    between atoms: C_3  and  C_5
REMARK    4  A    between atoms: C_5  and  C_6
REMARK    5  A    between atoms: C_12  and  C_13
REMARK    6  A    between atoms: C_12  and  C_21
REMARK    7  A    between atoms: C_13  and  C_14
REMARK    8  A    between atoms: C_17  and  O_18
REMARK    9  A    between atoms: N_23  and  C_24
REMARK   10  A    between atoms: C_24  and  C_25
REMARK   11  A    between atoms: C_24  and  C_32
REMARK   12  A    between atoms: C_25  and  C_26
REMARK   13  A    between atoms: N_34  and  C_35
REMARK   14  A    between atoms: C_35  and  C_36
REMARK   15  A    between atoms: C_35  and  C_41
REMARK   16  A    between atoms: C_36  and  C_37
REMARK   17  A    between atoms: C_37  and  C_38
REMARK   18  A    between atoms: N_43  and  C_44
REMARK   19  A    between atoms: C_44  and  C_45
REMARK   20  A    between atoms: C_44  and  C_49
REMARK   21  A    between atoms: C_45  and  C_46
REMARK   22  A    between atoms: N_51  and  C_52
REMARK   23  A    between atoms: C_52  and  C_53
REMARK   24  A    between atoms: C_52  and  C_60
REMARK   25  A    between atoms: C_53  and  C_54
REMARK   26  A    between atoms: C_54  and  C_55
REMARK   27  A    between atoms: C_55  and  N_56
REMARK   28  A    between atoms: C_66  and  C_67
REMARK   29  A    between atoms: N_69  and  C_70
REMARK   30  A    between atoms: C_70  and  C_71
REMARK   31  A    between atoms: C_70  and  C_78
REMARK   32  A    between atoms: C_71  and  C_72
REMARK   33  A    between atoms: C_72  and  C_73
REMARK   34  A    between atoms: C_73  and  N_74
REMARK                            x       y       z     vdW  Elec       q    Type
REMARK                         _______ _______ _______ _____ _____    ______ ____
ROOT
ATOM      1  C   UNL     1      13.830   4.320  -2.232  0.00  0.00    +0.000 C 
ENDROOT
BRANCH   1   2
ATOM      2  C   UNL     1      14.610   5.431  -3.006  0.00  0.00    +0.000 C 
ATOM      3  O   UNL     1      13.968   6.127  -3.798  0.00  0.00    +0.000 OA
ATOM      4  N   UNL     1      15.988   5.588  -2.798  0.00  0.00    +0.000 N 
ATOM      5  H   UNL     1      16.547   4.852  -2.374  0.00  0.00    +0.000 HD
BRANCH   4   6
ATOM      6  C   UNL     1      16.795   6.756  -3.325  0.00  0.00    +0.000 C 
BRANCH   6   7
ATOM      7  C   UNL     1      18.380   6.533  -3.318  0.00  0.00    +0.000 C 
ATOM      8  O   UNL     1      18.809   5.413  -3.019  0.00  0.00    +0.000 OA
ATOM      9  N   UNL     1      19.227   7.513  -3.858  0.00  0.00    +0.000 N 
ATOM     10  C   UNL     1      19.259   8.943  -3.600  0.00  0.00    +0.000 C 
ATOM     11  C   UNL     1      19.805   9.492  -4.896  0.00  0.00    +0.000 C 
ATOM     12  C   UNL     1      20.942   8.535  -5.195  0.00  0.00    +0.000 C 
ATOM     13  C   UNL     1      20.503   7.191  -4.553  0.00  0.00    +0.000 C 
BRANCH  13  14
ATOM     14  C   UNL     1      21.674   6.848  -3.619  0.00  0.00    +0.000 C 
ATOM     15  O   UNL     1      21.654   7.161  -2.431  0.00  0.00    +0.000 OA
ATOM     16  N   UNL     1      22.791   6.295  -4.238  0.00  0.00    +0.000 N 
ATOM     17  H   UNL     1      22.864   6.355  -5.238  0.00  0.00    +0.000 HD
BRANCH  16  18
ATOM     18  C   UNL     1      23.918   5.728  -3.467  0.00  0.00    +0.000 C 
BRANCH  18  19
ATOM     19  C   UNL     1      25.208   5.452  -4.293  0.00  0.00    +0.000 C 
ATOM     20  N   UNL     1      25.199   5.714  -5.634  0.00  0.00    +0.000 N 
ATOM     21  O   UNL     1      26.234   4.988  -3.797  0.00  0.00    +0.000 OA
ATOM     22  H   UNL     1      24.433   6.089  -6.162  0.00  0.00    +0.000 HD
ATOM     23  H   UNL     1      26.051   5.502  -6.142  0.00  0.00    +0.000 HD
ENDBRANCH  18  19
BRANCH  18  24
ATOM     24  C   UNL     1      23.513   4.399  -2.783  0.00  0.00    +0.000 C 
BRANCH  24  25
ATOM     25  C   UNL     1      22.295   4.557  -1.880  0.00  0.00    +0.000 C 
BRANCH  25  26
ATOM     26  C   UNL     1      21.825   3.300  -1.206  0.00  0.00    +0.000 C 
BRANCH  26  27
ATOM     27  N   UNL     1      20.644   3.642  -0.408  0.00  0.00    +0.000 NA
ATOM     28  C   UNL     1      20.055   2.669   0.181  0.00  0.00    +0.000 C 
ATOM     29  N   UNL     1      20.429   1.380   0.150  0.00  0.00    +0.000 N 
ATOM     30  N   UNL     1      18.941   2.887   0.898  0.00  0.00    +0.000 N 
ATOM     31  H   UNL     1      21.253   1.125  -0.372  0.00  0.00    +0.000 HD
ATOM     32  H   UNL     1      19.965   0.656   0.668  0.00  0.00    +0.000 HD
ATOM     33  H   UNL     1      18.630   3.846   0.975  0.00  0.00    +0.000 HD
ATOM     34  H   UNL     1      18.483   2.180   1.445  0.00  0.00    +0.000 HD
ENDBRANCH  26  27
ENDBRANCH  25  26
ENDBRANCH  24  25
ENDBRANCH  18  24
ENDBRANCH  16  18
ENDBRANCH  13  14
ENDBRANCH   6   7
BRANCH   6  35
ATOM     35  C   UNL     1      16.392   8.010  -2.557  0.00  0.00    +0.000 C 
BRANCH  35  36
ATOM     36  C   UNL     1      14.925   8.351  -2.640  0.00  0.00    +0.000 C 
BRANCH  36  37
ATOM     37  C   UNL     1      14.591   9.647  -1.962  0.00  0.00    +0.000 C 
BRANCH  37  38
ATOM     38  N   UNL     1      13.151   9.827  -2.108  0.00  0.00    +0.000 NA
ATOM     39  C   UNL     1      12.652  10.844  -1.513  0.00  0.00    +0.000 C 
ATOM     40  N   UNL     1      13.323  11.749  -0.782  0.00  0.00    +0.000 N 
ATOM     41  N   UNL     1      11.327  11.051  -1.549  0.00  0.00    +0.000 N 
ATOM     42  H   UNL     1      14.324  11.665  -0.688  0.00  0.00    +0.000 HD
ATOM     43  H   UNL     1      12.890  12.560  -0.378  0.00  0.00    +0.000 HD
ATOM     44  H   UNL     1      10.793  10.452  -2.168  0.00  0.00    +0.000 HD
ATOM     45  H   UNL     1      10.896  11.902  -1.234  0.00  0.00    +0.000 HD
ENDBRANCH  37  38
ENDBRANCH  36  37
ENDBRANCH  35  36
ENDBRANCH   6  35
ENDBRANCH   4   6
ENDBRANCH   1   2
BRANCH   1  48
ATOM     46  C   UNL     1      11.300   3.751  -1.829  0.00  0.00    +0.000 C 
ATOM     47  O   UNL     1      11.496   2.847  -1.014  0.00  0.00    +0.000 OA
ATOM     48  N   UNL     1      12.316   4.540  -2.351  0.00  0.00    +0.000 N 
ATOM     49  H   UNL     1      12.084   5.414  -2.824  0.00  0.00    +0.000 HD
BRANCH  46  50
ATOM     50  C   UNL     1       9.813   4.035  -2.075  0.00  0.00    +0.000 C 
BRANCH  50  53
ATOM     51  C   UNL     1       7.660   2.693  -1.656  0.00  0.00    +0.000 C 
ATOM     52  O   UNL     1       6.974   3.440  -2.357  0.00  0.00    +0.000 OA
ATOM     53  N   UNL     1       9.027   2.871  -1.516  0.00  0.00    +0.000 N 
ATOM     54  H   UNL     1       9.597   2.179  -1.028  0.00  0.00    +0.000 HD
BRANCH  51  55
ATOM     55  C   UNL     1       6.962   1.541  -0.884  0.00  0.00    +0.000 C 
BRANCH  55  58
ATOM     56  C   UNL     1       4.424   0.889  -0.729  0.00  0.00    +0.000 C 
ATOM     57  O   UNL     1       4.547  -0.335  -0.920  0.00  0.00    +0.000 OA
ATOM     58  N   UNL     1       5.464   1.766  -0.957  0.00  0.00    +0.000 N 
ATOM     59  H   UNL     1       5.240   2.632  -1.436  0.00  0.00    +0.000 HD
BRANCH  56  60
ATOM     60  C   UNL     1       2.975   1.343  -0.491  0.00  0.00    +0.000 C 
BRANCH  60  62
ATOM     61  C   UNL     1       3.714   3.639   0.220  0.00  0.00    +0.000 C 
ATOM     62  N   UNL     1       2.780   2.552   0.387  0.00  0.00    +0.000 N 
ATOM     63  C   UNL     1       2.124   2.516   1.637  0.00  0.00    +0.000 C 
ATOM     64  O   UNL     1       2.120   1.515   2.346  0.00  0.00    +0.000 OA
BRANCH  63  65
ATOM     65  C   UNL     1       1.437   3.856   2.028  0.00  0.00    +0.000 C 
BRANCH  65  66
ATOM     66  C   UNL     1       0.126   3.854   2.813  0.00  0.00    +0.000 A 
ATOM     67  C   UNL     1      -0.860   4.846   2.604  0.00  0.00    +0.000 A 
ATOM     68  C   UNL     1      -2.078   4.822   3.308  0.00  0.00    +0.000 A 
ATOM     69  C   UNL     1      -2.367   3.767   4.167  0.00  0.00    +0.000 A 
ATOM     70  C   UNL     1      -1.401   2.795   4.398  0.00  0.00    +0.000 A 
ATOM     71  C   UNL     1      -0.167   2.852   3.742  0.00  0.00    +0.000 A 
ENDBRANCH  65  66
ENDBRANCH  63  65
ENDBRANCH  60  62
BRANCH  60  72
ATOM     72  C   UNL     1       2.167   0.024  -0.115  0.00  0.00    +0.000 C 
BRANCH  72  73
ATOM     73  C   UNL     1       0.726   0.159   0.297  0.00  0.00    +0.000 A 
ATOM     74  C   UNL     1       0.046   1.355   0.088  0.00  0.00    +0.000 A 
ATOM     75  C   UNL     1      -1.012   1.664   0.919  0.00  0.00    +0.000 A 
ATOM     76  C   UNL     1      -1.493   0.721   1.823  0.00  0.00    +0.000 A 
ATOM     77  C   UNL     1      -0.873  -0.502   1.986  0.00  0.00    +0.000 A 
ATOM     78  C   UNL     1       0.219  -0.805   1.189  0.00  0.00    +0.000 A 
BRANCH  76  79
ATOM     79  O   UNL     1      -2.559   0.997   2.621  0.00  0.00    +0.000 OA
ATOM     80  H   UNL     1      -2.699   1.958   2.554  0.00  0.00    +0.000 HD
ENDBRANCH  76  79
ENDBRANCH  72  73
ENDBRANCH  60  72
ENDBRANCH  56  60
ENDBRANCH  55  58
BRANCH  55  81
ATOM     81  C   UNL     1       7.467   0.237  -1.490  0.00  0.00    +0.000 C 
BRANCH  81  82
ATOM     82  C   UNL     1       7.072  -1.003  -0.725  0.00  0.00    +0.000 A 
ATOM     83  C   UNL     1       6.442  -0.940   0.537  0.00  0.00    +0.000 A 
ATOM     84  C   UNL     1       5.691  -2.013   1.004  0.00  0.00    +0.000 A 
ATOM     85  C   UNL     1       5.781  -3.233   0.358  0.00  0.00    +0.000 A 
ATOM     86  C   UNL     1       6.608  -3.363  -0.760  0.00  0.00    +0.000 A 
ATOM     87  C   UNL     1       7.193  -2.242  -1.348  0.00  0.00    +0.000 A 
ENDBRANCH  81  82
ENDBRANCH  55  81
ENDBRANCH  51  55
ENDBRANCH  50  53
BRANCH  50  88
ATOM     88  C   UNL     1       9.572   5.288  -1.246  0.00  0.00    +0.000 C 
BRANCH  88  89
ATOM     89  C   UNL     1       8.114   5.664  -1.235  0.00  0.00    +0.000 C 
BRANCH  89  90
ATOM     90  C   UNL     1       7.744   6.919  -0.524  0.00  0.00    +0.000 C 
ATOM     91  N   UNL     1       8.740   7.571   0.125  0.00  0.00    +0.000 N 
ATOM     92  O   UNL     1       6.581   7.303  -0.473  0.00  0.00    +0.000 OA
ATOM     93  H   UNL     1       9.703   7.268   0.146  0.00  0.00    +0.000 HD
ATOM     94  H   UNL     1       8.487   8.391   0.654  0.00  0.00    +0.000 HD
ENDBRANCH  89  90
ENDBRANCH  88  89
ENDBRANCH  50  88
ENDBRANCH  46  50
ENDBRANCH   1  48
BRANCH   1  95
ATOM     95  C   UNL     1      14.280   3.033  -2.907  0.00  0.00    +0.000 C 
BRANCH  95  96
ATOM     96  C   UNL     1      13.737   1.757  -2.335  0.00  0.00    +0.000 C 
ATOM     97  N   UNL     1      13.444   1.743  -1.007  0.00  0.00    +0.000 N 
ATOM     98  O   UNL     1      13.584   0.747  -3.013  0.00  0.00    +0.000 OA
ATOM     99  H   UNL     1      13.083   2.629  -0.649  0.00  0.00    +0.000 HD
ATOM    100  H   UNL     1      12.641   1.128  -0.874  0.00  0.00    +0.000 HD
ENDBRANCH  95  96
ENDBRANCH   1  95
TORSDOF 33
