REMARK  Name = CHEMBL194432
REMARK  13 active torsions:
REMARK  status: ('A' for Active; 'I' for Inactive)
REMARK    1  A    between atoms: C_2  and  C_3
REMARK    2  A    between atoms: C_3  and  N_4
REMARK    3  A    between atoms: CA_7  and  CB_8
REMARK    4  A    between atoms: CB_8  and  CG_9
REMARK    5  A    between atoms: CG_9  and  CD1_10
REMARK    6  A    between atoms: CG_9  and  CD2_11
REMARK    7  A    between atoms: N_12  and  C_13
REMARK    8  A    between atoms: C_13  and  C_14
REMARK    9  A    between atoms: C_13  and  C_20
REMARK   10  A    between atoms: N_16  and  C_17
REMARK   11  A    between atoms: C_17  and  C_18
REMARK   12  A    between atoms: C_17  and  C_19
REMARK   13  A    between atoms: C_28  and  C_29
REMARK                            x       y       z     vdW  Elec       q    Type
REMARK                         _______ _______ _______ _____ _____    ______ ____
ROOT
ATOM      1  N   UNK A   1       4.549   1.027  -0.038  0.00  0.00    +0.000 N 
ATOM      2  C   LEU A   2       5.390   1.896   0.652  0.00  0.00    +0.000 C 
ATOM      3  O   LEU A   2       4.941   2.707   1.436  0.00  0.00    +0.000 OA
ATOM      4  CA  LEU A   2       6.899   1.635   0.425  0.00  0.00    +0.000 C 
ATOM      5  N   LEU A   2       7.170   0.349   1.124  0.00  0.00    +0.000 N 
ATOM      6  C   UNK A   1       6.440  -0.718   0.582  0.00  0.00    +0.000 C 
ATOM      7  O   UNK A   1       6.640  -1.900   0.708  0.00  0.00    +0.000 OA
ATOM      8  C   UNK A   1       5.149  -0.362  -0.177  0.00  0.00    +0.000 C 
ENDROOT
BRANCH   8   9
ATOM      9  C   UNK A   1       4.200  -1.333   0.491  0.00  0.00    +0.000 C 
ATOM     10  C   UNK A   1       4.200  -0.843   1.984  0.00  0.00    +0.000 C 
ATOM     11  C   UNK A   1       3.470  -1.893   2.711  0.00  0.00    +0.000 A 
ATOM     12  C   UNK A   1       3.946  -3.052   3.326  0.00  0.00    +0.000 A 
ATOM     13  C   UNK A   1       2.998  -4.020   3.676  0.00  0.00    +0.000 A 
ATOM     14  C   UNK A   1       1.686  -3.633   3.588  0.00  0.00    +0.000 A 
ATOM     15  C   UNK A   1       1.449  -2.665   2.623  0.00  0.00    +0.000 A 
ATOM     16  C   UNK A   1       2.505  -2.238   1.841  0.00  0.00    +0.000 A 
ATOM     17  C   UNK A   1       3.594  -2.732   0.702  0.00  0.00    +0.000 C 
ENDBRANCH   8   9
BRANCH   1  18
ATOM     18  C   UNK A   1       3.076   1.408   0.131  0.00  0.00    +0.000 C 
BRANCH  18  20
ATOM     19  C   UNK A   1       0.686   0.374   0.036  0.00  0.00    +0.000 C 
ATOM     20  C   UNK A   1       2.010   0.390  -0.115  0.00  0.00    +0.000 C 
ENDBRANCH  18  20
ENDBRANCH   1  18
BRANCH   4  21
ATOM     21  CB  LEU A   2       7.678   2.831   0.913  0.00  0.00    +0.000 C 
BRANCH  21  22
ATOM     22  CG  LEU A   2       7.605   4.199   0.234  0.00  0.00    +0.000 C 
ATOM     23  CD1 LEU A   2       6.196   4.772   0.331  0.00  0.00    +0.000 C 
ATOM     24  CD2 LEU A   2       8.525   5.203   0.930  0.00  0.00    +0.000 C 
ENDBRANCH  21  22
ENDBRANCH   4  21
BRANCH   5  25
ATOM     25  C   UNK A   0       8.208   0.166   2.258  0.00  0.00    +0.000 C 
BRANCH  25  26
ATOM     26  C   UNK A   0       8.374  -1.312   2.768  0.00  0.00    +0.000 A 
ATOM     27  C   UNK A   0       8.149  -1.703   4.101  0.00  0.00    +0.000 A 
ATOM     28  C   UNK A   0       8.294  -3.009   4.554  0.00  0.00    +0.000 A 
ATOM     29  C   UNK A   0       8.475  -4.025   3.642  0.00  0.00    +0.000 A 
ATOM     30  C   UNK A   0       8.651  -3.705   2.304  0.00  0.00    +0.000 A 
ATOM     31  C   UNK A   0       8.720  -2.362   1.896  0.00  0.00    +0.000 A 
ENDBRANCH  25  26
BRANCH  25  32
ATOM     32  C   UNK A   0       8.014   1.170   3.522  0.00  0.00    +0.000 C 
ATOM     33  O   UNK A   0       7.492   0.851   4.591  0.00  0.00    +0.000 OA
ATOM     34  N   UNK A   0       8.390   2.493   3.447  0.00  0.00    +0.000 N 
ATOM     35  H   UNK A   0       9.056   2.834   2.773  0.00  0.00    +0.000 HD
BRANCH  34  36
ATOM     36  C   UNK A   0       8.012   3.405   4.521  0.00  0.00    +0.000 C 
ATOM     37  C   UNK A   0       9.109   3.275   5.543  0.00  0.00    +0.000 C 
ATOM     38  C   UNK A   0       7.921   4.851   4.083  0.00  0.00    +0.000 C 
ENDBRANCH  34  36
ENDBRANCH  25  32
ENDBRANCH   5  25
TORSDOF 9
