REMARK  Name = CHEMBL550244
REMARK  9 active torsions:
REMARK  status: ('A' for Active; 'I' for Inactive)
REMARK    1  A    between atoms: C_1  and  O_2
REMARK    2  A    between atoms: O_2  and  C_3
REMARK    3  A    between atoms: C_6  and  N_7
REMARK    4  A    between atoms: C_8  and  C_9
REMARK    5  A    between atoms: C_12  and  C_13
REMARK    6  A    between atoms: C_16  and  O_17
REMARK    7  A    between atoms: O_17  and  C_18
REMARK    8  A    between atoms: C_19  and  C_20
REMARK    9  A    between atoms: C_24  and  C_25
REMARK                            x       y       z     vdW  Elec       q    Type
REMARK                         _______ _______ _______ _____ _____    ______ ____
ROOT
ATOM      1  C   UNL     1       5.515   4.612  -3.462  0.00  0.00    +0.000 A 
ATOM      2  C   UNL     1       6.105   4.254  -2.251  0.00  0.00    +0.000 A 
ATOM      3  N   UNL     1       6.131   5.068  -1.167  0.00  0.00    +0.000 NA
ATOM      4  C   UNL     1       5.611   6.304  -1.344  0.00  0.00    +0.000 A 
ATOM      5  C   UNL     1       5.062   6.685  -2.566  0.00  0.00    +0.000 A 
ATOM      6  N   UNL     1       4.981   5.846  -3.638  0.00  0.00    +0.000 NA
ENDROOT
BRANCH   1  12
ATOM      7  N   UNL     1       4.818   2.409  -4.531  0.00  0.00    +0.000 N 
ATOM      8  C   UNL     1       5.069   1.849  -5.781  0.00  0.00    +0.000 A 
ATOM      9  C   UNL     1       4.558   0.571  -6.346  0.00  0.00    +0.000 C 
ATOM     10  N   UNL     1       5.767   2.708  -6.501  0.00  0.00    +0.000 NA
ATOM     11  N   UNL     1       5.964   3.838  -5.764  0.00  0.00    +0.000 NA
ATOM     12  C   UNL     1       5.402   3.676  -4.576  0.00  0.00    +0.000 A 
BRANCH   7  16
ATOM     13  C   UNL     1       2.975   0.691  -1.198  0.00  0.00    +0.000 A 
ATOM     14  C   UNL     1       2.599   1.974  -1.568  0.00  0.00    +0.000 A 
ATOM     15  C   UNL     1       3.194   2.555  -2.692  0.00  0.00    +0.000 A 
ATOM     16  C   UNL     1       4.151   1.836  -3.414  0.00  0.00    +0.000 A 
ATOM     17  C   UNL     1       4.511   0.584  -2.936  0.00  0.00    +0.000 A 
ATOM     18  N   UNL     1       3.945   0.006  -1.844  0.00  0.00    +0.000 NA
BRANCH  13  20
ATOM     19  C   UNL     1       1.014   0.046  -0.091  0.00  0.00    +0.000 C 
ATOM     20  O   UNL     1       2.441   0.056  -0.106  0.00  0.00    +0.000 OA
ENDBRANCH  13  20
ENDBRANCH   7  16
ENDBRANCH   1  12
BRANCH   4  21
ATOM     21  O   UNL     1       5.646   7.255  -0.327  0.00  0.00    +0.000 OA
BRANCH  21  22
ATOM     22  C   UNL     1       6.287   6.935   0.858  0.00  0.00    +0.000 A 
ATOM     23  C   UNL     1       7.663   6.637   0.923  0.00  0.00    +0.000 A 
ATOM     24  C   UNL     1       8.571   6.596  -0.275  0.00  0.00    +0.000 C 
ATOM     25  C   UNL     1       8.241   6.350   2.173  0.00  0.00    +0.000 A 
ATOM     26  C   UNL     1       7.489   6.402   3.343  0.00  0.00    +0.000 A 
ATOM     27  C   UNL     1       6.146   6.757   3.283  0.00  0.00    +0.000 A 
ATOM     28  C   UNL     1       5.533   7.036   2.050  0.00  0.00    +0.000 A 
ATOM     29  C   UNL     1       4.085   7.437   2.043  0.00  0.00    +0.000 C 
ENDBRANCH  21  22
ENDBRANCH   4  21
TORSDOF 5
