REMARK  Name = CHEMBL515111
REMARK  8 active torsions:
REMARK  status: ('A' for Active; 'I' for Inactive)
REMARK    1  A    between atoms: C_1  and  O_2
REMARK    2  A    between atoms: O_2  and  C_3
REMARK    3  A    between atoms: C_8  and  C_9
REMARK    4  A    between atoms: C_12  and  C_13
REMARK    5  A    between atoms: N_15  and  C_16
REMARK    6  A    between atoms: N_15  and  C_20
REMARK    7  A    between atoms: C_16  and  C_17
REMARK    8  A    between atoms: C_20  and  C_21
REMARK                            x       y       z     vdW  Elec       q    Type
REMARK                         _______ _______ _______ _____ _____    ______ ____
ROOT
ATOM      1  C   UNL     1       1.534   0.364  -2.827  0.00  0.00    +0.000 A 
ATOM      2  C   UNL     1       0.362   0.122  -3.568  0.00  0.00    +0.000 A 
ATOM      3  C   UNL     1      -0.684   1.131  -3.778  0.00  0.00    +0.000 A 
ATOM      4  C   UNL     1      -0.595   2.362  -3.166  0.00  0.00    +0.000 A 
ATOM      5  C   UNL     1       0.722   2.417  -2.752  0.00  0.00    +0.000 A 
ATOM      6  C   UNL     1       1.790   1.618  -2.534  0.00  0.00    +0.000 A 
ENDROOT
BRANCH   1  12
ATOM      7  C   UNL     1       3.073  -0.678  -1.135  0.00  0.00    +0.000 A 
ATOM      8  C   UNL     1       4.290  -1.324  -0.972  0.00  0.00    +0.000 A 
ATOM      9  C   UNL     1       5.117  -1.560  -2.083  0.00  0.00    +0.000 A 
ATOM     10  C   UNL     1       4.782  -1.101  -3.352  0.00  0.00    +0.000 A 
ATOM     11  C   UNL     1       3.588  -0.464  -3.520  0.00  0.00    +0.000 A 
ATOM     12  C   UNL     1       2.669  -0.400  -2.462  0.00  0.00    +0.000 A 
BRANCH   7  14
ATOM     13  C   UNL     1       1.074  -0.244   0.130  0.00  0.00    +0.000 C 
ATOM     14  O   UNL     1       2.495  -0.226   0.034  0.00  0.00    +0.000 OA
ENDBRANCH   7  14
ENDBRANCH   1  12
BRANCH   4  15
ATOM     15  C   UNL     1      -1.821   3.448  -2.907  0.00  0.00    +0.000 C 
ATOM     16  O   UNL     1      -2.825   3.218  -3.616  0.00  0.00    +0.000 OA
ATOM     17  N   UNL     1      -1.951   4.612  -1.955  0.00  0.00    +0.000 N 
BRANCH  17  18
ATOM     18  C   UNL     1      -1.088   5.220  -0.891  0.00  0.00    +0.000 C 
BRANCH  18  19
ATOM     19  C   UNL     1       0.200   4.774  -0.535  0.00  0.00    +0.000 C 
ATOM     20  C   UNL     1       0.256   3.351  -0.558  0.00  0.00    +0.000 C 
ATOM     21  C   UNL     1       0.863   4.672  -1.799  0.00  0.00    +0.000 C 
ENDBRANCH  18  19
ENDBRANCH  17  18
BRANCH  17  22
ATOM     22  C   UNL     1      -3.155   5.520  -2.094  0.00  0.00    +0.000 C 
BRANCH  22  23
ATOM     23  C   UNL     1      -3.144   6.824  -1.161  0.00  0.00    +0.000 C 
ATOM     24  C   UNL     1      -4.153   7.897  -1.462  0.00  0.00    +0.000 C 
ATOM     25  C   UNL     1      -3.430   9.181  -1.071  0.00  0.00    +0.000 C 
ATOM     26  C   UNL     1      -1.997   8.908  -1.402  0.00  0.00    +0.000 C 
ATOM     27  O   UNL     1      -1.889   7.525  -1.231  0.00  0.00    +0.000 OA
ENDBRANCH  22  23
ENDBRANCH  17  22
ENDBRANCH   4  15
TORSDOF 7
