REMARK  Name = CHEMBL25502
REMARK  6 active torsions:
REMARK  status: ('A' for Active; 'I' for Inactive)
REMARK    1  A    between atoms: C_1  and  C_2
REMARK    2  A    between atoms: C_7  and  O_8
REMARK    3  A    between atoms: O_8  and  C_9
REMARK    4  A    between atoms: C_12  and  C_13
REMARK    5  A    between atoms: C_13  and  C_14
REMARK    6  A    between atoms: C_19  and  N_20
REMARK                            x       y       z     vdW  Elec       q    Type
REMARK                         _______ _______ _______ _____ _____    ______ ____
ROOT
ATOM      1  C   UNL     1       9.752  -0.498  -6.718  0.00  0.00    +0.000 C 
ATOM      2  O   UNL     1       9.235  -1.336  -5.976  0.00  0.00    +0.000 OA
ATOM      3  N   UNL     1      10.747  -0.946  -7.593  0.00  0.00    +0.000 N 
ATOM      4  C   UNL     1      10.613  -2.287  -8.152  0.00  0.00    +0.000 C 
ATOM      5  C   UNL     1      11.814  -3.170  -7.901  0.00  0.00    +0.000 C 
ATOM      6  C   UNL     1      13.199  -2.554  -8.732  0.00  0.00    +0.000 C 
ATOM      7  C   UNL     1      13.235  -1.165  -7.730  0.00  0.00    +0.000 C 
ATOM      8  C   UNL     1      11.999  -0.254  -7.889  0.00  0.00    +0.000 C 
ENDROOT
BRANCH   6   9
ATOM      9  N   UNL     1      13.618  -2.847 -10.482  0.00  0.00    +0.000 N 
ATOM     10  C   UNL     1      13.690  -4.252  -9.994  0.00  0.00    +0.000 C 
ATOM     11  O   UNL     1      13.003  -4.869  -9.129  0.00  0.00    +0.000 OA
ATOM     12  O   UNL     1      14.704  -4.949 -10.434  0.00  0.00    +0.000 OA
ATOM     13  C   UNL     1      14.048  -5.741 -11.357  0.00  0.00    +0.000 C 
ATOM     14  C   UNL     1      14.250  -4.833 -12.472  0.00  0.00    +0.000 A 
ATOM     15  C   UNL     1      14.696  -5.678 -13.662  0.00  0.00    +0.000 A 
ATOM     16  C   UNL     1      15.133  -5.197 -14.849  0.00  0.00    +0.000 A 
ATOM     17  C   UNL     1      14.952  -3.831 -14.853  0.00  0.00    +0.000 A 
ATOM     18  C   UNL     1      14.429  -2.938 -13.566  0.00  0.00    +0.000 A 
ATOM     19  C   UNL     1      14.066  -3.423 -12.173  0.00  0.00    +0.000 A 
ENDBRANCH   6   9
BRANCH   1  20
ATOM     20  C   UNL     1       9.263   0.985  -6.841  0.00  0.00    +0.000 C 
BRANCH  20  24
ATOM     21  C   UNL     1       6.124   2.329  -4.076  0.00  0.00    +0.000 A 
ATOM     22  C   UNL     1       6.680   3.224  -4.987  0.00  0.00    +0.000 A 
ATOM     23  C   UNL     1       7.626   2.776  -5.948  0.00  0.00    +0.000 A 
ATOM     24  C   UNL     1       8.109   1.449  -5.939  0.00  0.00    +0.000 A 
ATOM     25  C   UNL     1       7.482   0.585  -5.053  0.00  0.00    +0.000 A 
ATOM     26  C   UNL     1       6.489   1.003  -4.185  0.00  0.00    +0.000 A 
BRANCH  21  27
ATOM     27  O   UNL     1       5.105   2.711  -3.248  0.00  0.00    +0.000 OA
BRANCH  27  34
ATOM     28  C   UNL     1       1.017   0.032   0.052  0.00  0.00    +0.000 C 
ATOM     29  C   UNL     1       2.529  -0.002   0.016  0.00  0.00    +0.000 C 
ATOM     30  O   UNL     1       3.160  -0.730   0.781  0.00  0.00    +0.000 OA
ATOM     31  N   UNL     1       3.130   0.700  -1.018  0.00  0.00    +0.000 N 
ATOM     32  C   UNL     1       4.336   0.183  -1.640  0.00  0.00    +0.000 C 
ATOM     33  C   UNL     1       5.539   1.071  -1.335  0.00  0.00    +0.000 C 
ATOM     34  C   UNL     1       5.294   2.511  -1.824  0.00  0.00    +0.000 C 
ATOM     35  C   UNL     1       4.006   3.009  -1.129  0.00  0.00    +0.000 C 
ATOM     36  C   UNL     1       2.805   2.074  -1.383  0.00  0.00    +0.000 C 
ENDBRANCH  27  34
ENDBRANCH  21  27
ENDBRANCH  20  24
ENDBRANCH   1  20
TORSDOF 5
