REMARK  Name = CHEMBL119793
REMARK  4 active torsions:
REMARK  status: ('A' for Active; 'I' for Inactive)
REMARK    1  A    between atoms: C_1  and  C_2
REMARK    2  A    between atoms: C_7  and  C_8
REMARK    3  A    between atoms: N_10  and  C_11
REMARK    4  A    between atoms: C_14  and  C_15
REMARK                            x       y       z     vdW  Elec       q    Type
REMARK                         _______ _______ _______ _____ _____    ______ ____
ROOT
ATOM      1  C   UNL     1       3.222   3.888  -0.007  0.00  0.00    +0.000 A 
ATOM      2  C   UNL     1       2.912   4.974   0.796  0.00  0.00    +0.000 A 
ATOM      3  C   UNL     1       3.597   6.481   0.790  0.00  0.00    +0.000 A 
ATOM      4  C   UNL     1       4.628   7.194  -0.016  0.00  0.00    +0.000 A 
ATOM      5  C   UNL     1       5.006   5.702  -0.770  0.00  0.00    +0.000 A 
ATOM      6  C   UNL     1       4.344   4.154  -0.764  0.00  0.00    +0.000 A 
ENDROOT
BRANCH   4   7
ATOM      7  C   UNL     1       5.343   9.096  -0.190  0.00  0.00    +0.000 C 
ATOM      8  O   UNL     1       6.367   8.508  -0.743  0.00  0.00    +0.000 OA
ATOM      9  N   UNL     1       5.454  11.057   0.042  0.00  0.00    +0.000 N 
ATOM     10  C   UNL     1       5.925  10.249   1.016  0.00  0.00    +0.000 C 
ATOM     11  C   UNL     1       4.866  10.530   2.057  0.00  0.00    +0.000 C 
ATOM     12  C   UNL     1       5.306  11.865   2.205  0.00  0.00    +0.000 C 
ATOM     13  C   UNL     1       4.850  12.923   2.993  0.00  0.00    +0.000 C 
ATOM     14  C   UNL     1       5.566  13.825   2.032  0.00  0.00    +0.000 A 
ATOM     15  C   UNL     1       5.325  15.318   2.999  0.00  0.00    +0.000 A 
ATOM     16  C   UNL     1       5.697  16.598   2.715  0.00  0.00    +0.000 A 
ATOM     17  C   UNL     1       6.292  16.350   1.482  0.00  0.00    +0.000 A 
ATOM     18  C   UNL     1       6.429  14.750   0.545  0.00  0.00    +0.000 A 
ATOM     19  C   UNL     1       6.152  12.962   0.583  0.00  0.00    +0.000 A 
ENDBRANCH   4   7
BRANCH   1  22
ATOM     20  C   UNL     1       1.064   2.583   0.021  0.00  0.00    +0.000 C 
ATOM     21  O   UNL     1       0.356   3.588   0.002  0.00  0.00    +0.000 OA
ATOM     22  N   UNL     1       2.474   2.674   0.000  0.00  0.00    +0.000 N 
ATOM     23  H   UNL     1       3.056   1.868  -0.085  0.00  0.00    +0.000 HD
BRANCH  20  30
ATOM     24  C   UNL     1       2.489  -0.105  -0.011  0.00  0.00    +0.000 C 
ATOM     25  C   UNL     1       1.007  -0.005   0.007  0.00  0.00    +0.000 A 
ATOM     26  C   UNL     1       0.272  -1.202   0.007  0.00  0.00    +0.000 A 
ATOM     27  C   UNL     1      -1.116  -1.193   0.001  0.00  0.00    +0.000 A 
ATOM     28  C   UNL     1      -1.792   0.018  -0.010  0.00  0.00    +0.000 A 
ATOM     29  C   UNL     1      -1.068   1.220   0.003  0.00  0.00    +0.000 A 
ATOM     30  C   UNL     1       0.349   1.234   0.011  0.00  0.00    +0.000 A 
ENDBRANCH  20  30
ENDBRANCH   1  22
TORSDOF 3
