REMARK  Name = CHEMBL105960
REMARK  8 active torsions:
REMARK  status: ('A' for Active; 'I' for Inactive)
REMARK    1  A    between atoms: C_1  and  O_2
REMARK    2  A    between atoms: O_2  and  C_3
REMARK    3  A    between atoms: C_5  and  O_6
REMARK    4  A    between atoms: O_6  and  C_7
REMARK    5  A    between atoms: C_7  and  C_8
REMARK    6  A    between atoms: C_7  and  C_9
REMARK    7  A    between atoms: C_17  and  C_18
REMARK    8  A    between atoms: C_23  and  N_24
REMARK                            x       y       z     vdW  Elec       q    Type
REMARK                         _______ _______ _______ _____ _____    ______ ____
ROOT
ATOM      1  C   UNL     1       1.433   1.930   1.747  0.00  0.00    +0.000 C 
ATOM      2  O   UNL     1       1.126   2.932   2.406  0.00  0.00    +0.000 OA
ATOM      3  N   UNL     1       0.506   0.860   1.657  0.00  0.00    +0.000 N 
ATOM      4  C   UNL     1      -0.715   1.213   0.897  0.00  0.00    +0.000 C 
ATOM      5  C   UNL     1      -1.896   0.388   1.305  0.00  0.00    +0.000 C 
ATOM      6  C   UNL     1      -1.703  -1.319   0.829  0.00  0.00    +0.000 C 
ATOM      7  C   UNL     1      -0.421  -1.486   1.993  0.00  0.00    +0.000 C 
ATOM      8  C   UNL     1       0.828  -0.601   1.813  0.00  0.00    +0.000 C 
ENDROOT
BRANCH   6   9
ATOM      9  N   UNL     1      -2.249  -1.732  -0.876  0.00  0.00    +0.000 N 
ATOM     10  C   UNL     1      -3.549  -1.392  -0.392  0.00  0.00    +0.000 C 
ATOM     11  O   UNL     1      -3.949  -0.339   0.198  0.00  0.00    +0.000 OA
ATOM     12  O   UNL     1      -4.419  -2.369  -0.348  0.00  0.00    +0.000 OA
ATOM     13  C   UNL     1      -5.066  -2.033  -1.509  0.00  0.00    +0.000 C 
ATOM     14  C   UNL     1      -4.323  -3.012  -2.291  0.00  0.00    +0.000 A 
ATOM     15  C   UNL     1      -5.311  -3.776  -3.125  0.00  0.00    +0.000 A 
ATOM     16  C   UNL     1      -4.981  -4.577  -4.162  0.00  0.00    +0.000 A 
ATOM     17  C   UNL     1      -3.662  -4.347  -4.487  0.00  0.00    +0.000 A 
ATOM     18  C   UNL     1      -2.615  -3.491  -3.551  0.00  0.00    +0.000 A 
ATOM     19  C   UNL     1      -2.872  -2.904  -2.167  0.00  0.00    +0.000 A 
ENDBRANCH   6   9
BRANCH   1  25
ATOM     20  C   UNL     1       3.153   1.164  -0.116  0.00  0.00    +0.000 A 
ATOM     21  C   UNL     1       4.321   1.467  -0.827  0.00  0.00    +0.000 A 
ATOM     22  C   UNL     1       5.034   2.632  -0.584  0.00  0.00    +0.000 A 
ATOM     23  C   UNL     1       4.486   3.596   0.228  0.00  0.00    +0.000 A 
ATOM     24  C   UNL     1       3.363   3.286   0.995  0.00  0.00    +0.000 A 
ATOM     25  C   UNL     1       2.668   2.047   0.868  0.00  0.00    +0.000 A 
BRANCH  20  27
ATOM     26  C   UNL     1       1.419  -0.061  -1.034  0.00  0.00    +0.000 C 
ATOM     27  O   UNL     1       2.712  -0.084  -0.476  0.00  0.00    +0.000 OA
ENDBRANCH  20  27
BRANCH  22  28
ATOM     28  O   UNL     1       6.281   2.683  -1.102  0.00  0.00    +0.000 OA
BRANCH  28  29
ATOM     29  C   UNL     1       7.188   3.741  -0.782  0.00  0.00    +0.000 C 
ATOM     30  C   UNL     1       7.530   3.793   0.711  0.00  0.00    +0.000 C 
BRANCH  29  31
ATOM     31  C   UNL     1       8.518   3.508  -1.566  0.00  0.00    +0.000 C 
ATOM     32  C   UNL     1       8.588   4.403  -2.813  0.00  0.00    +0.000 C 
ATOM     33  C   UNL     1       7.629   3.917  -3.894  0.00  0.00    +0.000 C 
ATOM     34  N   UNL     1       7.937   2.538  -4.288  0.00  0.00    +0.000 NA
ATOM     35  C   UNL     1       7.794   1.630  -3.148  0.00  0.00    +0.000 C 
ATOM     36  C   UNL     1       8.715   2.037  -1.986  0.00  0.00    +0.000 C 
ATOM     37  H   UNL     1       8.901   2.492  -4.613  0.00  0.00    +0.000 HD
ENDBRANCH  29  31
ENDBRANCH  28  29
ENDBRANCH  22  28
ENDBRANCH   1  25
TORSDOF 6
