REMARK  Name = CHEMBL1094002
REMARK  9 active torsions:
REMARK  status: ('A' for Active; 'I' for Inactive)
REMARK    1  A    between atoms: C_1  and  C_2
REMARK    2  A    between atoms: C_2  and  N_3
REMARK    3  A    between atoms: N_3  and  C_21
REMARK    4  A    between atoms: C_4  and  C_6
REMARK    5  A    between atoms: C_9  and  C_10
REMARK    6  A    between atoms: C_13  and  C_14
REMARK    7  A    between atoms: C_17  and  C_18
REMARK    8  A    between atoms: C_24  and  O_25
REMARK    9  A    between atoms: O_25  and  C_26
REMARK                            x       y       z     vdW  Elec       q    Type
REMARK                         _______ _______ _______ _____ _____    ______ ____
ROOT
ATOM      1  C   UNL     1       0.625  -1.714   1.716  0.00  0.00    +0.000 A 
ATOM      2  C   UNL     1       0.016  -2.084   0.527  0.00  0.00    +0.000 A 
ATOM      3  N   UNL     1      -1.297  -1.821   0.237  0.00  0.00    +0.000 NA
ATOM      4  C   UNL     1      -2.048  -1.326   1.253  0.00  0.00    +0.000 A 
ATOM      5  C   UNL     1      -1.462  -1.144   2.504  0.00  0.00    +0.000 A 
ATOM      6  N   UNL     1      -0.128  -1.271   2.756  0.00  0.00    +0.000 NA
ENDROOT
BRANCH   4   7
ATOM      7  C   UNL     1      -3.481  -1.078   0.980  0.00  0.00    +0.000 A 
ATOM      8  C   UNL     1      -4.231  -2.068   0.316  0.00  0.00    +0.000 A 
ATOM      9  C   UNL     1      -5.554  -1.849  -0.084  0.00  0.00    +0.000 A 
ATOM     10  C   UNL     1      -6.210  -0.680   0.290  0.00  0.00    +0.000 A 
ATOM     11  C   UNL     1      -5.535   0.257   1.078  0.00  0.00    +0.000 A 
ATOM     12  C   UNL     1      -4.157   0.112   1.352  0.00  0.00    +0.000 A 
ATOM     13  C   UNL     1      -3.418   1.272   1.970  0.00  0.00    +0.000 C 
BRANCH  10  14
ATOM     14  C   UNL     1      -7.551  -0.426  -0.173  0.00  0.00    +0.000 C 
ATOM     15  N   UNL     1      -8.611  -0.217  -0.578  0.00  0.00    +0.000 NA
ENDBRANCH  10  14
ENDBRANCH   4   7
BRANCH   1  17
ATOM     16  N   UNL     1       2.994  -0.937   1.060  0.00  0.00    +0.000 N 
ATOM     17  C   UNL     1       2.119  -1.716   1.883  0.00  0.00    +0.000 C 
ATOM     18  O   UNL     1       2.537  -2.403   2.820  0.00  0.00    +0.000 OA
BRANCH  16  19
ATOM     19  C   UNL     1       4.440  -1.109   1.229  0.00  0.00    +0.000 A 
ATOM     20  C   UNL     1       5.316  -0.020   1.194  0.00  0.00    +0.000 A 
ATOM     21  C   UNL     1       6.698  -0.195   1.346  0.00  0.00    +0.000 A 
ATOM     22  C   UNL     1       7.224  -1.473   1.366  0.00  0.00    +0.000 A 
ATOM     23  N   UNL     1       6.417  -2.553   1.425  0.00  0.00    +0.000 NA
ATOM     24  C   UNL     1       5.061  -2.344   1.429  0.00  0.00    +0.000 A 
BRANCH  22  25
ATOM     25  O   UNL     1       8.566  -1.758   1.314  0.00  0.00    +0.000 OA
ATOM     26  C   UNL     1       9.458  -0.646   1.245  0.00  0.00    +0.000 C 
ENDBRANCH  22  25
ENDBRANCH  16  19
BRANCH  16  28
ATOM     27  C   UNL     1       1.168   0.387  -0.205  0.00  0.00    +0.000 C 
ATOM     28  C   UNL     1       2.626   0.047  -0.014  0.00  0.00    +0.000 C 
ENDBRANCH  16  28
ENDBRANCH   1  17
TORSDOF 6
