REMARK  Name = CHEMBL2113205
REMARK  8 active torsions:
REMARK  status: ('A' for Active; 'I' for Inactive)
REMARK    1  A    between atoms: C_1  and  C_2
REMARK    2  A    between atoms: C_5  and  N_6
REMARK    3  A    between atoms: N_6  and  C_7
REMARK    4  A    between atoms: N_6  and  S_22
REMARK    5  A    between atoms: C_7  and  C_8
REMARK    6  A    between atoms: N_10  and  N_11
REMARK    7  A    between atoms: S_22  and  C_25
REMARK    8  A    between atoms: C_28  and  C_29
REMARK                            x       y       z     vdW  Elec       q    Type
REMARK                         _______ _______ _______ _____ _____    ______ ____
ROOT
ATOM      1  N   UNL     1      -3.204  -0.034   0.039  0.00  0.00    +0.000 N 
ENDROOT
BRANCH   1   6
ATOM      2  C   UNL     1       2.599   0.098  -0.035  0.00  0.00    +0.000 C 
ATOM      3  C   UNL     1       1.113   0.152  -0.049  0.00  0.00    +0.000 A 
ATOM      4  C   UNL     1       0.446  -1.039   0.018  0.00  0.00    +0.000 A 
ATOM      5  C   UNL     1      -0.917  -1.005   0.222  0.00  0.00    +0.000 A 
ATOM      6  C   UNL     1      -1.739   0.106   0.044  0.00  0.00    +0.000 A 
ATOM      7  C   UNL     1      -1.048   1.313  -0.031  0.00  0.00    +0.000 A 
ATOM      8  C   UNL     1       0.365   1.335  -0.032  0.00  0.00    +0.000 A 
ENDBRANCH   1   6
BRANCH   1   9
ATOM      9  S   UNL     1      -4.149   1.449  -0.047  0.00  0.00    +0.000 S 
ATOM     10  O   UNL     1      -3.919   2.161   1.198  0.00  0.00    +0.000 OA
ATOM     11  O   UNL     1      -3.852   2.110  -1.305  0.00  0.00    +0.000 OA
BRANCH   9  12
ATOM     12  C   UNL     1      -5.936   1.178  -0.088  0.00  0.00    +0.000 A 
ATOM     13  C   UNL     1      -6.517  -0.079  -0.100  0.00  0.00    +0.000 A 
ATOM     14  C   UNL     1      -7.884  -0.296  -0.162  0.00  0.00    +0.000 A 
ATOM     15  C   UNL     1      -8.746   0.780  -0.205  0.00  0.00    +0.000 A 
ATOM     16  C   UNL     1      -8.209   2.073  -0.180  0.00  0.00    +0.000 A 
ATOM     17  C   UNL     1      -6.809   2.280  -0.124  0.00  0.00    +0.000 A 
BRANCH  15  18
ATOM     18  C   UNL     1     -10.144   0.520  -0.278  0.00  0.00    +0.000 C 
ATOM     19  N   UNL     1     -11.280   0.240  -0.342  0.00  0.00    +0.000 NA
ENDBRANCH  15  18
ENDBRANCH   9  12
ENDBRANCH   1   9
BRANCH   1  20
ATOM     20  C   UNL     1      -3.849  -1.402  -0.067  0.00  0.00    +0.000 C 
BRANCH  20  21
ATOM     21  C   UNL     1      -3.209  -2.789  -0.284  0.00  0.00    +0.000 C 
ATOM     22  O   UNL     1      -2.147  -2.909  -0.906  0.00  0.00    +0.000 OA
ATOM     23  N   UNL     1      -3.837  -3.986   0.110  0.00  0.00    +0.000 N 
ATOM     24  H   UNL     1      -4.830  -4.155  -0.029  0.00  0.00    +0.000 HD
BRANCH  23  25
ATOM     25  N   UNL     1      -2.957  -5.047   0.074  0.00  0.00    +0.000 NA
ATOM     26  C   UNL     1      -3.138  -6.323  -0.007  0.00  0.00    +0.000 C 
ATOM     27  C   UNL     1      -4.357  -7.257  -0.074  0.00  0.00    +0.000 C 
ATOM     28  O   UNL     1      -5.527  -6.943  -0.067  0.00  0.00    +0.000 OA
ATOM     29  N   UNL     1      -3.839  -8.544  -0.107  0.00  0.00    +0.000 N 
ATOM     30  C   UNL     1      -2.453  -8.531  -0.046  0.00  0.00    +0.000 A 
ATOM     31  C   UNL     1      -1.609  -9.624   0.007  0.00  0.00    +0.000 A 
ATOM     32  C   UNL     1      -0.236  -9.371   0.084  0.00  0.00    +0.000 A 
ATOM     33  C   UNL     1       0.254  -8.049   0.096  0.00  0.00    +0.000 A 
ATOM     34  C   UNL     1      -0.619  -6.956   0.050  0.00  0.00    +0.000 A 
ATOM     35  C   UNL     1      -1.972  -7.229  -0.013  0.00  0.00    +0.000 A 
ATOM     36  H   UNL     1      -4.408  -9.377  -0.121  0.00  0.00    +0.000 HD
ENDBRANCH  23  25
ENDBRANCH  20  21
ENDBRANCH   1  20
TORSDOF 7
