REMARK  Name = CHEMBL31802
REMARK  7 active torsions:
REMARK  status: ('A' for Active; 'I' for Inactive)
REMARK    1  A    between atoms: C_1  and  C_2
REMARK    2  A    between atoms: N_6  and  C_7
REMARK    3  A    between atoms: C_7  and  C_8
REMARK    4  A    between atoms: N_10  and  C_11
REMARK    5  A    between atoms: C_11  and  C_12
REMARK    6  A    between atoms: C_16  and  C_17
REMARK    7  A    between atoms: C_22  and  N_23
REMARK                            x       y       z     vdW  Elec       q    Type
REMARK                         _______ _______ _______ _____ _____    ______ ____
ROOT
ATOM      1  C   UNL     1       5.728  -6.634   3.653  0.00  0.00    +0.000 A 
ATOM      2  C   UNL     1       5.554  -8.003   3.726  0.00  0.00    +0.000 A 
ATOM      3  C   UNL     1       6.525  -8.495   4.625  0.00  0.00    +0.000 A 
ATOM      4  C   UNL     1       6.868  -9.766   5.128  0.00  0.00    +0.000 A 
ATOM      5  C   UNL     1       7.942  -9.883   6.030  0.00  0.00    +0.000 A 
ATOM      6  C   UNL     1       8.668  -8.732   6.382  0.00  0.00    +0.000 A 
ATOM      7  C   UNL     1       8.319  -7.453   5.921  0.00  0.00    +0.000 A 
ATOM      8  C   UNL     1       7.246  -7.381   5.040  0.00  0.00    +0.000 A 
ATOM      9  O   UNL     1       6.759  -6.243   4.456  0.00  0.00    +0.000 OA
ENDROOT
BRANCH   5  10
ATOM     10  C   UNL     1       8.332 -11.258   6.502  0.00  0.00    +0.000 C 
ATOM     11  O   UNL     1       7.794 -12.254   6.026  0.00  0.00    +0.000 OA
ATOM     12  N   UNL     1       9.377 -11.357   7.407  0.00  0.00    +0.000 N 
ATOM     13  C   UNL     1      10.512 -12.224   7.109  0.00  0.00    +0.000 C 
ATOM     14  C   UNL     1      10.733 -13.256   8.199  0.00  0.00    +0.000 C 
ATOM     15  C   UNL     1      10.826 -12.592   9.590  0.00  0.00    +0.000 C 
ATOM     16  C   UNL     1       9.572 -11.742   9.842  0.00  0.00    +0.000 C 
ATOM     17  C   UNL     1       9.305 -10.742   8.729  0.00  0.00    +0.000 C 
BRANCH  15  18
ATOM     18  N   UNL     1      12.142 -11.907   9.820  0.00  0.00    +0.000 N 
ATOM     19  C   UNL     1      12.619 -10.850   9.042  0.00  0.00    +0.000 C 
ATOM     20  O   UNL     1      12.021  -9.843   8.681  0.00  0.00    +0.000 OA
ATOM     21  O   UNL     1      13.885 -11.042   8.600  0.00  0.00    +0.000 OA
ATOM     22  C   UNL     1      14.788 -10.954   9.679  0.00  0.00    +0.000 C 
ATOM     23  C   UNL     1      14.362 -11.852  10.797  0.00  0.00    +0.000 A 
ATOM     24  C   UNL     1      15.282 -12.158  11.802  0.00  0.00    +0.000 A 
ATOM     25  C   UNL     1      14.899 -12.966  12.862  0.00  0.00    +0.000 A 
ATOM     26  C   UNL     1      13.598 -13.460  12.922  0.00  0.00    +0.000 A 
ATOM     27  C   UNL     1      12.672 -13.155  11.918  0.00  0.00    +0.000 A 
ATOM     28  C   UNL     1      13.044 -12.348  10.841  0.00  0.00    +0.000 A 
ENDBRANCH  15  18
ENDBRANCH   5  10
BRANCH   1  29
ATOM     29  C   UNL     1       4.958  -5.637   2.881  0.00  0.00    +0.000 C 
BRANCH  29  32
ATOM     30  C   UNL     1       4.700  -3.372   2.185  0.00  0.00    +0.000 C 
ATOM     31  O   UNL     1       3.719  -3.842   1.617  0.00  0.00    +0.000 OA
ATOM     32  N   UNL     1       5.455  -4.269   2.912  0.00  0.00    +0.000 N 
ATOM     33  H   UNL     1       6.280  -4.041   3.449  0.00  0.00    +0.000 HD
BRANCH  30  34
ATOM     34  C   UNL     1       5.091  -1.875   2.104  0.00  0.00    +0.000 C 
BRANCH  34  40
ATOM     35  C   UNL     1       1.081   0.007  -0.009  0.00  0.00    +0.000 C 
ATOM     36  C   UNL     1       2.602  -0.021  -0.050  0.00  0.00    +0.000 C 
ATOM     37  O   UNL     1       3.282   0.980   0.684  0.00  0.00    +0.000 OA
ATOM     38  C   UNL     1       4.391   0.371   1.222  0.00  0.00    +0.000 C 
ATOM     39  O   UNL     1       5.397   0.994   1.523  0.00  0.00    +0.000 OA
ATOM     40  N   UNL     1       4.192  -0.967   1.338  0.00  0.00    +0.000 N 
ATOM     41  C   UNL     1       3.100  -1.271   0.589  0.00  0.00    +0.000 C 
ATOM     42  O   UNL     1       2.537  -2.327   0.358  0.00  0.00    +0.000 OA
ENDBRANCH  34  40
ENDBRANCH  30  34
ENDBRANCH  29  32
ENDBRANCH   1  29
TORSDOF 6
