REMARK  Name = CHEMBL1093341
REMARK  8 active torsions:
REMARK  status: ('A' for Active; 'I' for Inactive)
REMARK    1  A    between atoms: C_1  and  C_2
REMARK    2  A    between atoms: C_2  and  N_3
REMARK    3  A    between atoms: N_3  and  C_17
REMARK    4  A    between atoms: C_4  and  C_6
REMARK    5  A    between atoms: C_10  and  O_11
REMARK    6  A    between atoms: O_11  and  C_12
REMARK    7  A    between atoms: C_20  and  O_21
REMARK    8  A    between atoms: O_21  and  C_22
REMARK                            x       y       z     vdW  Elec       q    Type
REMARK                         _______ _______ _______ _____ _____    ______ ____
ROOT
ATOM      1  N   UNL     1       2.920  -0.443   1.363  0.00  0.00    +0.000 N 
ATOM      2  C   UNL     1       2.032  -0.757   2.463  0.00  0.00    +0.000 C 
ATOM      3  O   UNL     1       2.498  -0.961   3.581  0.00  0.00    +0.000 OA
ENDROOT
BRANCH   2   4
ATOM      4  C   UNL     1       0.562  -0.700   2.332  0.00  0.00    +0.000 A 
ATOM      5  C   UNL     1      -0.384  -0.001   3.075  0.00  0.00    +0.000 A 
ATOM      6  C   UNL     1      -1.647  -0.156   2.425  0.00  0.00    +0.000 A 
ATOM      7  C   UNL     1      -2.961   0.328   2.602  0.00  0.00    +0.000 A 
ATOM      8  C   UNL     1      -3.957   0.004   1.657  0.00  0.00    +0.000 A 
ATOM      9  C   UNL     1      -3.629  -0.738   0.519  0.00  0.00    +0.000 A 
ATOM     10  C   UNL     1      -2.338  -1.254   0.339  0.00  0.00    +0.000 A 
ATOM     11  C   UNL     1      -1.404  -0.986   1.343  0.00  0.00    +0.000 A 
ATOM     12  O   UNL     1      -0.117  -1.449   1.398  0.00  0.00    +0.000 OA
BRANCH   8  13
ATOM     13  O   UNL     1      -5.214   0.466   1.957  0.00  0.00    +0.000 OA
ATOM     14  C   UNL     1      -6.257   0.111   1.052  0.00  0.00    +0.000 C 
ENDBRANCH   8  13
ENDBRANCH   2   4
BRANCH   1  15
ATOM     15  C   UNL     1       4.364  -0.481   1.604  0.00  0.00    +0.000 A 
ATOM     16  C   UNL     1       5.239   0.476   1.070  0.00  0.00    +0.000 A 
ATOM     17  C   UNL     1       6.615   0.429   1.339  0.00  0.00    +0.000 A 
ATOM     18  C   UNL     1       7.121  -0.601   2.113  0.00  0.00    +0.000 A 
ATOM     19  N   UNL     1       6.321  -1.567   2.607  0.00  0.00    +0.000 NA
ATOM     20  C   UNL     1       4.979  -1.479   2.359  0.00  0.00    +0.000 A 
BRANCH  18  21
ATOM     21  O   UNL     1       8.439  -0.748   2.455  0.00  0.00    +0.000 OA
ATOM     22  C   UNL     1       9.337   0.259   2.002  0.00  0.00    +0.000 C 
ENDBRANCH  18  21
ENDBRANCH   1  15
BRANCH   1  24
ATOM     23  C   UNL     1       1.116   0.035  -0.393  0.00  0.00    +0.000 C 
ATOM     24  C   UNL     1       2.569  -0.033  -0.027  0.00  0.00    +0.000 C 
ENDBRANCH   1  24
TORSDOF 5
