REMARK  Name = CHEMBL1090417
REMARK  6 active torsions:
REMARK  status: ('A' for Active; 'I' for Inactive)
REMARK    1  A    between atoms: C_1  and  O_2
REMARK    2  A    between atoms: O_2  and  C_3
REMARK    3  A    between atoms: C_6  and  N_7
REMARK    4  A    between atoms: N_7  and  C_8
REMARK    5  A    between atoms: C_13  and  O_14
REMARK    6  A    between atoms: O_14  and  C_15
REMARK                            x       y       z     vdW  Elec       q    Type
REMARK                         _______ _______ _______ _____ _____    ______ ____
ROOT
ATOM      1  N   UNL     1       5.502  -3.883   2.599  0.00  0.00    +0.000 N 
ATOM      2  C   UNL     1       6.697  -3.379   3.274  0.00  0.00    +0.000 C 
ATOM      3  C   UNL     1       5.341  -5.304   2.506  0.00  0.00    +0.000 C 
ATOM      4  O   UNL     1       4.455  -5.875   1.870  0.00  0.00    +0.000 OA
ATOM      5  N   UNL     1       6.371  -6.052   3.085  0.00  0.00    +0.000 N 
ATOM      6  C   UNL     1       6.698  -7.464   2.854  0.00  0.00    +0.000 C 
ATOM      7  C   UNL     1       6.687  -7.679   4.384  0.00  0.00    +0.000 C 
ATOM      8  C   UNL     1       6.765  -6.142   4.493  0.00  0.00    +0.000 C 
ENDROOT
BRANCH   1  12
ATOM      9  C   UNL     1       3.053  -0.968   0.603  0.00  0.00    +0.000 A 
ATOM     10  C   UNL     1       2.702  -2.303   0.524  0.00  0.00    +0.000 A 
ATOM     11  C   UNL     1       3.495  -3.271   1.179  0.00  0.00    +0.000 A 
ATOM     12  C   UNL     1       4.637  -2.919   1.907  0.00  0.00    +0.000 A 
ATOM     13  C   UNL     1       4.886  -1.536   1.893  0.00  0.00    +0.000 A 
ATOM     14  N   UNL     1       4.144  -0.573   1.272  0.00  0.00    +0.000 NA
BRANCH   9  16
ATOM     15  C   UNL     1       0.999   0.003  -0.026  0.00  0.00    +0.000 C 
ATOM     16  O   UNL     1       2.420   0.040  -0.067  0.00  0.00    +0.000 OA
ENDBRANCH   9  16
ENDBRANCH   1  12
BRANCH   7  17
ATOM     17  O   UNL     1       5.521  -8.374   4.911  0.00  0.00    +0.000 OA
BRANCH  17  18
ATOM     18  C   UNL     1       5.519  -8.684   6.254  0.00  0.00    +0.000 A 
ATOM     19  C   UNL     1       5.522  -7.664   7.208  0.00  0.00    +0.000 A 
ATOM     20  C   UNL     1       5.400  -7.963   8.565  0.00  0.00    +0.000 A 
ATOM     21  C   UNL     1       5.251  -9.283   8.967  0.00  0.00    +0.000 A 
ATOM     22  F   UNL     1       5.109  -9.558  10.270  0.00  0.00    +0.000 F 
ATOM     23  C   UNL     1       5.231 -10.315   8.038  0.00  0.00    +0.000 A 
ATOM     24  C   UNL     1       5.366 -10.015   6.677  0.00  0.00    +0.000 A 
ATOM     25 CL   UNL     1       5.339 -11.322   5.551  0.00  0.00    +0.000 Cl
ENDBRANCH  17  18
ENDBRANCH   7  17
TORSDOF 4
