REMARK  Name = CHEMBL24816
REMARK  8 active torsions:
REMARK  status: ('A' for Active; 'I' for Inactive)
REMARK    1  A    between atoms: C_1  and  C_2
REMARK    2  A    between atoms: N_4  and  C_5
REMARK    3  A    between atoms: C_7  and  C_8
REMARK    4  A    between atoms: N_20  and  C_21
REMARK    5  A    between atoms: C_21  and  C_22
REMARK    6  A    between atoms: N_24  and  C_25
REMARK    7  A    between atoms: C_25  and  C_26
REMARK    8  A    between atoms: C_26  and  C_27
REMARK                            x       y       z     vdW  Elec       q    Type
REMARK                         _______ _______ _______ _____ _____    ______ ____
ROOT
ATOM      1  C   UNL     1       4.769   0.350   1.180  0.00  0.00    +0.000 C 
ATOM      2  N   UNL     1       5.239   1.739   1.025  0.00  0.00    +0.000 NA
ATOM      3  C   UNL     1       6.507   2.016   1.080  0.00  0.00    +0.000 C 
ATOM      4  C   UNL     1       7.597   1.037   1.363  0.00  0.00    +0.000 A 
ATOM      5  C   UNL     1       8.680   1.444   2.149  0.00  0.00    +0.000 A 
ATOM      6  C   UNL     1       9.737   0.576   2.429  0.00  0.00    +0.000 A 
ATOM      7  C   UNL     1       9.699  -0.730   1.987  0.00  0.00    +0.000 A 
ATOM      8  C   UNL     1       8.578  -1.171   1.313  0.00  0.00    +0.000 A 
ATOM      9  C   UNL     1       7.591  -0.273   0.891  0.00  0.00    +0.000 A 
ATOM     10  N   UNL     1       6.704  -0.715  -0.096  0.00  0.00    +0.000 N 
ATOM     11  C   UNL     1       5.353  -0.599   0.082  0.00  0.00    +0.000 C 
ATOM     12  O   UNL     1       4.690  -1.412  -0.568  0.00  0.00    +0.000 OA
ENDROOT
BRANCH   3  13
ATOM     13  C   UNL     1       6.911   3.444   0.866  0.00  0.00    +0.000 A 
ATOM     14  C   UNL     1       6.428   4.440   1.717  0.00  0.00    +0.000 A 
ATOM     15  C   UNL     1       6.563   5.783   1.363  0.00  0.00    +0.000 A 
ATOM     16  C   UNL     1       7.368   6.135   0.290  0.00  0.00    +0.000 A 
ATOM     17  C   UNL     1       8.052   5.143  -0.408  0.00  0.00    +0.000 A 
ATOM     18  C   UNL     1       7.742   3.797  -0.197  0.00  0.00    +0.000 A 
ENDBRANCH   3  13
BRANCH   1  22
ATOM     19  C   UNL     1       1.060  -0.024   0.120  0.00  0.00    +0.000 C 
ATOM     20  C   UNL     1       2.544   0.053   0.016  0.00  0.00    +0.000 C 
ATOM     21  O   UNL     1       2.966  -0.090  -1.130  0.00  0.00    +0.000 OA
ATOM     22  N   UNL     1       3.288   0.292   1.169  0.00  0.00    +0.000 N 
ATOM     23  H   UNL     1       2.827   0.628   2.003  0.00  0.00    +0.000 HD
ENDBRANCH   1  22
BRANCH  10  24
ATOM     24  C   UNL     1       7.141  -1.580  -1.242  0.00  0.00    +0.000 C 
BRANCH  24  25
ATOM     25  C   UNL     1       8.710  -1.706  -1.505  0.00  0.00    +0.000 C 
ATOM     26  O   UNL     1       9.508  -0.975  -0.912  0.00  0.00    +0.000 OA
ATOM     27  N   UNL     1       9.310  -2.596  -2.409  0.00  0.00    +0.000 N 
ATOM     28  H   UNL     1       8.666  -2.979  -3.096  0.00  0.00    +0.000 HD
BRANCH  27  29
ATOM     29  C   UNL     1      10.971  -2.693  -2.416  0.00  0.00    +0.000 C 
BRANCH  29  30
ATOM     30  C   UNL     1      12.078  -3.698  -3.595  0.00  0.00    +0.000 C 
BRANCH  30  31
ATOM     31  C   UNL     1      14.000  -4.255  -3.828  0.00  0.00    +0.000 A 
ATOM     32  C   UNL     1      13.154  -4.502  -4.759  0.00  0.00    +0.000 A 
ATOM     33  C   UNL     1      14.299  -4.082  -4.947  0.00  0.00    +0.000 A 
ATOM     34  C   UNL     1      14.896  -5.113  -5.841  0.00  0.00    +0.000 A 
ATOM     35  C   UNL     1      16.123  -5.308  -5.606  0.00  0.00    +0.000 A 
ATOM     36  C   UNL     1      17.105  -6.093  -6.679  0.00  0.00    +0.000 A 
ATOM     37  C   UNL     1      18.434  -6.434  -6.576  0.00  0.00    +0.000 A 
ATOM     38  C   UNL     1      18.895  -5.751  -5.509  0.00  0.00    +0.000 A 
ATOM     39  C   UNL     1      17.780  -4.906  -4.548  0.00  0.00    +0.000 A 
ATOM     40  C   UNL     1      15.987  -4.755  -4.377  0.00  0.00    +0.000 A 
ENDBRANCH  30  31
ENDBRANCH  29  30
ENDBRANCH  27  29
ENDBRANCH  24  25
ENDBRANCH  10  24
TORSDOF 7
