REMARK  Name = CHEMBL429736
REMARK  9 active torsions:
REMARK  status: ('A' for Active; 'I' for Inactive)
REMARK    1  A    between atoms: CD1_1  and  CG1_2
REMARK    2  A    between atoms: CG1_2  and  CB_3
REMARK    3  A    between atoms: CB_3  and  CG2_4
REMARK    4  A    between atoms: CB_3  and  CA_5
REMARK    5  A    between atoms: C_9  and  C_10
REMARK    6  A    between atoms: N_21  and  C_22
REMARK    7  A    between atoms: C_22  and  C_23
REMARK    8  A    between atoms: C_22  and  C_31
REMARK    9  A    between atoms: C_34  and  C_35
REMARK                            x       y       z     vdW  Elec       q    Type
REMARK                         _______ _______ _______ _____ _____    ______ ____
ROOT
ATOM      1  CA  ILE A   2       4.762   0.240   1.196  0.00  0.00    +0.000 C 
ATOM      2  C   ILE A   2       5.288  -0.325   2.564  0.00  0.00    +0.000 C 
ATOM      3  O   ILE A   2       5.063  -1.275   3.252  0.00  0.00    +0.000 OA
ATOM      4  N   UNK A   1       6.404   0.257   2.975  0.00  0.00    +0.000 N 
ATOM      5  C   UNK A   1       7.256   0.926   2.067  0.00  0.00    +0.000 C 
ATOM      6  C   UNK A   1       6.431   2.067   1.464  0.00  0.00    +0.000 C 
ATOM      7  O   UNK A   1       7.007   3.125   1.282  0.00  0.00    +0.000 OA
ATOM      8  N   ILE A   2       5.074   1.747   1.191  0.00  0.00    +0.000 N 
ATOM      9  H   UNK A   1       6.730  -0.294   3.760  0.00  0.00    +0.000 HD
ENDROOT
BRANCH   5  10
ATOM     10  C   UNK A   1       8.410   1.505   2.883  0.00  0.00    +0.000 C 
ATOM     11  C   UNK A   1       9.256   0.377   3.507  0.00  0.00    +0.000 C 
ATOM     12  C   UNK A   1       8.607   0.196   4.852  0.00  0.00    +0.000 A 
ATOM     13  C   UNK A   1       8.615  -0.937   5.648  0.00  0.00    +0.000 A 
ATOM     14  C   UNK A   1       7.813  -0.950   6.792  0.00  0.00    +0.000 A 
ATOM     15  C   UNK A   1       6.999   0.149   7.112  0.00  0.00    +0.000 A 
ATOM     16  C   UNK A   1       6.976   1.280   6.294  0.00  0.00    +0.000 A 
ATOM     17  C   UNK A   1       7.799   1.299   5.177  0.00  0.00    +0.000 A 
ATOM     18  C   UNK A   1       7.855   2.335   4.087  0.00  0.00    +0.000 C 
ENDBRANCH   5  10
BRANCH   1  19
ATOM     19  CB  ILE A   2       3.324  -0.162   0.931  0.00  0.00    +0.000 C 
ATOM     20  CG2 ILE A   2       2.849  -0.112  -0.559  0.00  0.00    +0.000 C 
BRANCH  19  22
ATOM     21  CD1 ILE A   2       2.557  -2.641   1.414  0.00  0.00    +0.000 C 
ATOM     22  CG1 ILE A   2       2.828  -1.320   2.006  0.00  0.00    +0.000 C 
ENDBRANCH  19  22
ENDBRANCH   1  19
BRANCH   8  23
ATOM     23  C   UNK A   0       4.048   2.869   0.924  0.00  0.00    +0.000 C 
BRANCH  23  24
ATOM     24  C   UNK A   0       2.734   3.139   1.978  0.00  0.00    +0.000 C 
ATOM     25  O   UNK A   0       2.510   4.268   2.437  0.00  0.00    +0.000 OA
ATOM     26  N   UNK A   0       1.675   2.235   2.140  0.00  0.00    +0.000 N 
ATOM     27  C   UNK A   0       1.677   0.928   2.764  0.00  0.00    +0.000 C 
ATOM     28  C   UNK A   0       0.624  -0.045   1.844  0.00  0.00    +0.000 C 
ATOM     29  O   UNK A   0      -0.635   0.504   1.582  0.00  0.00    +0.000 OA
ATOM     30  C   UNK A   0      -0.466   1.820   1.094  0.00  0.00    +0.000 C 
ATOM     31  C   UNK A   0       0.294   2.662   2.127  0.00  0.00    +0.000 C 
ENDBRANCH  23  24
BRANCH  23  32
ATOM     32  C   UNK A   0       4.748   4.254   0.650  0.00  0.00    +0.000 A 
ATOM     33  C   UNK A   0       4.637   5.431   1.361  0.00  0.00    +0.000 A 
ATOM     34  O   UNK A   0       5.568   6.316   0.943  0.00  0.00    +0.000 OA
ATOM     35  C   UNK A   0       6.213   5.669  -0.064  0.00  0.00    +0.000 A 
ATOM     36  C   UNK A   0       7.363   6.422  -0.617  0.00  0.00    +0.000 C 
ATOM     37  N   UNK A   0       5.691   4.486  -0.372  0.00  0.00    +0.000 NA
ENDBRANCH  23  32
ENDBRANCH   8  23
TORSDOF 6
