REMARK  Name = CHEMBL1779410
REMARK  14 active torsions:
REMARK  status: ('A' for Active; 'I' for Inactive)
REMARK    1  A    between atoms: C_1  and  O_2
REMARK    2  A    between atoms: O_2  and  C_3
REMARK    3  A    between atoms: C_6  and  S_7
REMARK    4  A    between atoms: S_7  and  N_10
REMARK    5  A    between atoms: C_13  and  C_14
REMARK    6  A    between atoms: C_13  and  N_30
REMARK    7  A    between atoms: C_16  and  C_17
REMARK    8  A    between atoms: C_17  and  N_18
REMARK    9  A    between atoms: N_21  and  C_22
REMARK   10  A    between atoms: C_27  and  O_28
REMARK   11  A    between atoms: O_28  and  C_29
REMARK   12  A    between atoms: C_34  and  C_35
REMARK   13  A    between atoms: N_37  and  C_38
REMARK   14  A    between atoms: N_37  and  C_39
REMARK                            x       y       z     vdW  Elec       q    Type
REMARK                         _______ _______ _______ _____ _____    ______ ____
ROOT
ATOM      1  N   UNL     1       6.204   7.933  -1.066  0.00  0.00    +0.000 N 
ATOM      2  C   UNL     1       5.232   8.009  -2.115  0.00  0.00    +0.000 C 
ATOM      3  O   UNL     1       5.569   7.831  -3.313  0.00  0.00    +0.000 OA
ATOM      4  C   UNL     1       4.086   8.866  -1.509  0.00  0.00    +0.000 C 
ATOM      5  C   UNL     1       5.044   9.953  -2.025  0.00  0.00    +0.000 A 
ATOM      6  C   UNL     1       6.262  10.181  -2.836  0.00  0.00    +0.000 A 
ATOM      7  C   UNL     1       6.845  11.433  -2.811  0.00  0.00    +0.000 A 
ATOM      8 CL   UNL     1       8.503  11.752  -3.079  0.00  0.00    +0.000 Cl
ATOM      9  C   UNL     1       6.153  12.235  -2.014  0.00  0.00    +0.000 A 
ATOM     10  C   UNL     1       5.572  11.377  -0.984  0.00  0.00    +0.000 A 
ATOM     11  C   UNL     1       5.604   9.802  -0.895  0.00  0.00    +0.000 A 
ENDROOT
BRANCH   4  12
ATOM     12  C   UNL     1       2.653   8.877  -1.999  0.00  0.00    +0.000 A 
ATOM     13  C   UNL     1       1.978  10.097  -2.056  0.00  0.00    +0.000 A 
ATOM     14  C   UNL     1       0.586  10.079  -2.184  0.00  0.00    +0.000 A 
ATOM     15  C   UNL     1      -0.130   8.884  -2.347  0.00  0.00    +0.000 A 
ATOM     16  C   UNL     1       0.486   7.700  -2.207  0.00  0.00    +0.000 A 
ATOM     17  C   UNL     1       1.834   7.713  -2.064  0.00  0.00    +0.000 A 
BRANCH  17  18
ATOM     18  O   UNL     1       2.096   6.393  -1.921  0.00  0.00    +0.000 OA
ATOM     19  C   UNL     1       3.414   6.340  -1.801  0.00  0.00    +0.000 C 
ENDBRANCH  17  18
BRANCH  14  20
ATOM     20  C   UNL     1      -0.249  11.293  -1.896  0.00  0.00    +0.000 C 
BRANCH  20  21
ATOM     21  N   UNL     1      -1.211  10.982  -0.824  0.00  0.00    +0.000 NA
ATOM     22  C   UNL     1      -1.989  12.157  -0.445  0.00  0.00    +0.000 C 
ATOM     23  C   UNL     1      -2.961  11.814   0.712  0.00  0.00    +0.000 C 
ATOM     24  N   UNL     1      -2.337  11.294   1.947  0.00  0.00    +0.000 NA
ATOM     25  C   UNL     1      -1.668  12.389   2.650  0.00  0.00    +0.000 C 
ATOM     26  C   UNL     1      -1.435  10.197   1.566  0.00  0.00    +0.000 C 
ATOM     27  C   UNL     1      -0.508  10.569   0.378  0.00  0.00    +0.000 C 
ENDBRANCH  20  21
ENDBRANCH  14  20
ENDBRANCH   4  12
BRANCH   4  28
ATOM     28  N   UNL     1       4.040   8.798   0.289  0.00  0.00    +0.000 NA
ATOM     29  C   UNL     1       4.239   7.551   1.060  0.00  0.00    +0.000 C 
ATOM     30  C   UNL     1       2.815   7.095   1.201  0.00  0.00    +0.000 C 
ATOM     31  C   UNL     1       2.127   8.365   1.607  0.00  0.00    +0.000 C 
ATOM     32  C   UNL     1       2.971   9.525   1.016  0.00  0.00    +0.000 C 
BRANCH  32  33
ATOM     33  C   UNL     1       3.477  10.504   2.182  0.00  0.00    +0.000 C 
ATOM     34  O   UNL     1       4.665  10.688   2.437  0.00  0.00    +0.000 OA
ATOM     35  N   UNL     1       2.498  11.204   2.894  0.00  0.00    +0.000 N 
ATOM     36  C   UNL     1       1.131  11.075   2.646  0.00  0.00    +0.000 C 
ATOM     37  C   UNL     1       2.737  12.163   3.941  0.00  0.00    +0.000 C 
ENDBRANCH  32  33
ENDBRANCH   4  28
BRANCH   1  38
ATOM     38  S   UNL     1       6.044   5.753  -1.518  0.00  0.00    +0.000 S 
ATOM     39  O   UNL     1       7.339   5.250  -1.062  0.00  0.00    +0.000 OA
ATOM     40  O   UNL     1       5.776   5.577  -2.955  0.00  0.00    +0.000 OA
BRANCH  38  44
ATOM     41  C   UNL     1       3.191   1.294  -0.569  0.00  0.00    +0.000 A 
ATOM     42  C   UNL     1       4.353   1.314  -1.347  0.00  0.00    +0.000 A 
ATOM     43  C   UNL     1       5.167   2.576  -1.573  0.00  0.00    +0.000 A 
ATOM     44  C   UNL     1       4.856   3.889  -0.993  0.00  0.00    +0.000 A 
ATOM     45  C   UNL     1       3.599   3.769  -0.291  0.00  0.00    +0.000 A 
ATOM     46  C   UNL     1       2.814   2.536  -0.090  0.00  0.00    +0.000 A 
BRANCH  41  48
ATOM     47  C   UNL     1       1.150   0.091  -0.085  0.00  0.00    +0.000 C 
ATOM     48  O   UNL     1       2.584   0.104  -0.224  0.00  0.00    +0.000 OA
ENDBRANCH  41  48
ENDBRANCH  38  44
ENDBRANCH   1  38
TORSDOF 9
