REMARK  Name = CHEMBL459073
REMARK  7 active torsions:
REMARK  status: ('A' for Active; 'I' for Inactive)
REMARK    1  A    between atoms: C_1  and  O_2
REMARK    2  A    between atoms: O_2  and  C_3
REMARK    3  A    between atoms: C_6  and  N_7
REMARK    4  A    between atoms: N_7  and  C_8
REMARK    5  A    between atoms: N_7  and  S_23
REMARK    6  A    between atoms: C_8  and  C_9
REMARK    7  A    between atoms: S_23  and  C_26
REMARK                            x       y       z     vdW  Elec       q    Type
REMARK                         _______ _______ _______ _____ _____    ______ ____
ROOT
ATOM      1  N   UNL     1       5.480  -3.706  -2.909  0.00  0.00    +0.000 N 
ENDROOT
BRANCH   1   5
ATOM      2  C   UNL     1       3.194  -0.815  -0.811  0.00  0.00    +0.000 A 
ATOM      3  C   UNL     1       4.448  -1.209  -0.372  0.00  0.00    +0.000 A 
ATOM      4  C   UNL     1       5.316  -1.899  -1.224  0.00  0.00    +0.000 A 
ATOM      5  C   UNL     1       4.816  -2.518  -2.373  0.00  0.00    +0.000 A 
ATOM      6  C   UNL     1       3.602  -2.036  -2.862  0.00  0.00    +0.000 A 
ATOM      7  C   UNL     1       2.812  -1.158  -2.101  0.00  0.00    +0.000 A 
BRANCH   2   9
ATOM      8  C   UNL     1       1.079  -0.088  -0.020  0.00  0.00    +0.000 C 
ATOM      9  O   UNL     1       2.496  -0.047   0.073  0.00  0.00    +0.000 OA
ENDBRANCH   2   9
ENDBRANCH   1   5
BRANCH   1  10
ATOM     10  S   UNL     1       4.939  -4.306  -4.455  0.00  0.00    +0.000 S 
ATOM     11  O   UNL     1       3.620  -4.845  -4.332  0.00  0.00    +0.000 OA
ATOM     12  O   UNL     1       5.191  -3.228  -5.438  0.00  0.00    +0.000 OA
BRANCH  10  13
ATOM     13  C   UNL     1       5.995  -5.661  -4.975  0.00  0.00    +0.000 A 
ATOM     14  C   UNL     1       5.493  -6.975  -4.964  0.00  0.00    +0.000 A 
ATOM     15  C   UNL     1       6.327  -8.043  -5.315  0.00  0.00    +0.000 A 
ATOM     16  C   UNL     1       7.614  -7.796  -5.790  0.00  0.00    +0.000 A 
ATOM     17  C   UNL     1       8.075  -6.483  -5.899  0.00  0.00    +0.000 A 
ATOM     18  C   UNL     1       7.264  -5.413  -5.500  0.00  0.00    +0.000 A 
ENDBRANCH  10  13
ENDBRANCH   1  10
BRANCH   1  19
ATOM     19  C   UNL     1       6.139  -4.672  -1.962  0.00  0.00    +0.000 C 
BRANCH  19  20
ATOM     20  C   UNL     1       6.092  -4.486  -0.400  0.00  0.00    +0.000 A 
ATOM     21  C   UNL     1       7.308  -4.545   0.175  0.00  0.00    +0.000 A 
ATOM     22  C   UNL     1       7.577  -4.088   1.516  0.00  0.00    +0.000 A 
ATOM     23  C   UNL     1       8.939  -3.952   1.910  0.00  0.00    +0.000 A 
ATOM     24  C   UNL     1       9.304  -3.670   3.223  0.00  0.00    +0.000 A 
ATOM     25  C   UNL     1       8.315  -3.425   4.140  0.00  0.00    +0.000 A 
ATOM     26  C   UNL     1       6.975  -3.498   3.741  0.00  0.00    +0.000 A 
ATOM     27  C   UNL     1       6.534  -3.822   2.396  0.00  0.00    +0.000 A 
ATOM     28  N   UNL     1       5.040  -3.896   1.915  0.00  0.00    +0.000 N 
ATOM     29  C   UNL     1       4.824  -4.173   0.511  0.00  0.00    +0.000 A 
ATOM     30  O   UNL     1       3.703  -4.167   0.002  0.00  0.00    +0.000 OA
ATOM     31  C   UNL     1       3.848  -3.613   3.098  0.00  0.00    +0.000 C 
ATOM     32  C   UNL     1       4.725  -3.441   4.250  0.00  0.00    +0.000 C 
ATOM     33  C   UNL     1       6.027  -3.268   4.877  0.00  0.00    +0.000 C 
ENDBRANCH  19  20
ENDBRANCH   1  19
TORSDOF 6
