REMARK  Name = CHEMBL282577
REMARK  2 active torsions:
REMARK  status: ('A' for Active; 'I' for Inactive)
REMARK    1  A    between atoms: C_2  and  C_3
REMARK    2  A    between atoms: C_15  and  N_16
REMARK                            x       y       z     vdW  Elec       q    Type
REMARK                         _______ _______ _______ _____ _____    ______ ____
ROOT
ATOM      1  O   UNL     1       1.040   0.061   0.134  0.00  0.00    +0.000 OA
ATOM      2  C   UNL     1       2.262   0.109   0.060  0.00  0.00    +0.000 C 
ATOM      3  N   UNL     1       3.040   1.138   0.564  0.00  0.00    +0.000 N 
ATOM      4  C   UNL     1       3.956   1.859  -0.317  0.00  0.00    +0.000 C 
ATOM      5  C   UNL     1       5.216   2.194   0.453  0.00  0.00    +0.000 C 
ATOM      6  C   UNL     1       4.884   2.977   1.743  0.00  0.00    +0.000 C 
ATOM      7  C   UNL     1       3.825   2.239   2.579  0.00  0.00    +0.000 C 
ATOM      8  C   UNL     1       2.603   1.851   1.757  0.00  0.00    +0.000 C 
ENDROOT
BRANCH   6   9
ATOM      9  N   UNL     1       4.616   4.427   1.487  0.00  0.00    +0.000 N 
ATOM     10  C   UNL     1       3.560   4.910   0.712  0.00  0.00    +0.000 C 
ATOM     11  O   UNL     1       2.394   4.542   0.716  0.00  0.00    +0.000 OA
ATOM     12  O   UNL     1       3.939   5.847  -0.192  0.00  0.00    +0.000 OA
ATOM     13  C   UNL     1       4.350   7.033   0.454  0.00  0.00    +0.000 C 
ATOM     14  C   UNL     1       5.337   6.739   1.539  0.00  0.00    +0.000 A 
ATOM     15  C   UNL     1       6.092   7.784   2.074  0.00  0.00    +0.000 A 
ATOM     16  C   UNL     1       6.990   7.532   3.102  0.00  0.00    +0.000 A 
ATOM     17  C   UNL     1       7.124   6.242   3.606  0.00  0.00    +0.000 A 
ATOM     18  C   UNL     1       6.370   5.195   3.077  0.00  0.00    +0.000 A 
ATOM     19  C   UNL     1       5.474   5.429   2.031  0.00  0.00    +0.000 A 
ENDBRANCH   6   9
BRANCH   2  20
ATOM     20  C   UNL     1       3.024  -1.083  -0.410  0.00  0.00    +0.000 A 
ATOM     21  C   UNL     1       2.618  -1.757  -1.561  0.00  0.00    +0.000 A 
ATOM     22  C   UNL     1       3.266  -2.937  -1.954  0.00  0.00    +0.000 A 
ATOM     23  C   UNL     1       4.297  -3.467  -1.154  0.00  0.00    +0.000 A 
ATOM     24  C   UNL     1       5.094  -4.641  -1.230  0.00  0.00    +0.000 A 
ATOM     25  C   UNL     1       5.917  -4.663  -0.128  0.00  0.00    +0.000 A 
ATOM     26  N   UNL     1       5.676  -3.525   0.597  0.00  0.00    +0.000 N 
ATOM     27  C   UNL     1       4.679  -2.782   0.000  0.00  0.00    +0.000 A 
ATOM     28  C   UNL     1       4.070  -1.581   0.393  0.00  0.00    +0.000 A 
ATOM     29  H   UNL     1       6.144  -3.277   1.458  0.00  0.00    +0.000 HD
ENDBRANCH   2  20
TORSDOF 2
