REMARK  Name = CHEMBL1093776
REMARK  8 active torsions:
REMARK  status: ('A' for Active; 'I' for Inactive)
REMARK    1  A    between atoms: C_1  and  C_2
REMARK    2  A    between atoms: C_2  and  N_3
REMARK    3  A    between atoms: N_3  and  C_18
REMARK    4  A    between atoms: C_4  and  C_6
REMARK    5  A    between atoms: C_8  and  C_9
REMARK    6  A    between atoms: C_12  and  C_13
REMARK    7  A    between atoms: C_21  and  O_22
REMARK    8  A    between atoms: O_22  and  C_23
REMARK                            x       y       z     vdW  Elec       q    Type
REMARK                         _______ _______ _______ _____ _____    ______ ____
ROOT
ATOM      1  N   UNL     1       2.958   0.770   1.268  0.00  0.00    +0.000 N 
ATOM      2  C   UNL     1       2.055   1.216   2.302  0.00  0.00    +0.000 C 
ATOM      3  O   UNL     1       2.474   1.840   3.268  0.00  0.00    +0.000 OA
ENDROOT
BRANCH   2   4
ATOM      4  C   UNL     1       0.606   1.034   2.186  0.00  0.00    +0.000 A 
ATOM      5  C   UNL     1      -0.206  -0.081   2.091  0.00  0.00    +0.000 A 
ATOM      6  C   UNL     1      -1.484   0.382   1.646  0.00  0.00    +0.000 A 
ATOM      7  N   UNL     1      -1.539   1.717   1.754  0.00  0.00    +0.000 NA
ATOM      8  N   UNL     1      -0.312   2.060   2.227  0.00  0.00    +0.000 N 
ATOM      9  H   UNL     1      -0.141   3.033   2.461  0.00  0.00    +0.000 HD
BRANCH   6  10
ATOM     10  C   UNL     1      -2.554  -0.477   1.119  0.00  0.00    +0.000 A 
ATOM     11  C   UNL     1      -2.774  -1.706   1.756  0.00  0.00    +0.000 A 
ATOM     12  C   UNL     1      -3.730  -2.609   1.292  0.00  0.00    +0.000 A 
ATOM     13  C   UNL     1      -4.493  -2.312   0.162  0.00  0.00    +0.000 A 
ATOM     14  C   UNL     1      -5.533  -3.283  -0.315  0.00  0.00    +0.000 C 
ATOM     15  C   UNL     1      -4.268  -1.098  -0.505  0.00  0.00    +0.000 A 
ATOM     16  C   UNL     1      -3.303  -0.184  -0.032  0.00  0.00    +0.000 A 
ENDBRANCH   6  10
ENDBRANCH   2   4
BRANCH   1  17
ATOM     17  C   UNL     1       4.397   0.891   1.496  0.00  0.00    +0.000 A 
ATOM     18  C   UNL     1       5.280   1.262   0.474  0.00  0.00    +0.000 A 
ATOM     19  C   UNL     1       6.654   1.388   0.713  0.00  0.00    +0.000 A 
ATOM     20  C   UNL     1       7.152   1.106   1.973  0.00  0.00    +0.000 A 
ATOM     21  N   UNL     1       6.344   0.696   2.972  0.00  0.00    +0.000 NA
ATOM     22  C   UNL     1       5.002   0.613   2.721  0.00  0.00    +0.000 A 
BRANCH  20  23
ATOM     23  O   UNL     1       8.470   1.215   2.329  0.00  0.00    +0.000 OA
ATOM     24  C   UNL     1       9.366   1.686   1.327  0.00  0.00    +0.000 C 
ENDBRANCH  20  23
ENDBRANCH   1  17
BRANCH   1  26
ATOM     25  C   UNL     1       1.177   0.074  -0.432  0.00  0.00    +0.000 C 
ATOM     26  C   UNL     1       2.627   0.187  -0.070  0.00  0.00    +0.000 C 
ENDBRANCH   1  26
TORSDOF 5
