REMARK  Name = CHEMBL2037510
REMARK  12 active torsions:
REMARK  status: ('A' for Active; 'I' for Inactive)
REMARK    1  A    between atoms: CD1_1  and  CG1_2
REMARK    2  A    between atoms: CG1_2  and  CB_3
REMARK    3  A    between atoms: CB_3  and  CG2_4
REMARK    4  A    between atoms: CB_3  and  CA_5
REMARK    5  A    between atoms: C_9  and  C_10
REMARK    6  A    between atoms: N_21  and  C_22
REMARK    7  A    between atoms: C_22  and  C_23
REMARK    8  A    between atoms: C_22  and  C_28
REMARK    9  A    between atoms: N_25  and  C_26
REMARK   10  A    between atoms: N_25  and  C_27
REMARK   11  A    between atoms: C_31  and  C_32
REMARK   12  A    between atoms: C_34  and  C_35
REMARK                            x       y       z     vdW  Elec       q    Type
REMARK                         _______ _______ _______ _____ _____    ______ ____
ROOT
ATOM      1  CA  ILE A   2       4.776   1.204  -0.931  0.00  0.00    +0.000 C 
ATOM      2  C   ILE A   2       5.295  -0.176  -0.493  0.00  0.00    +0.000 C 
ATOM      3  O   ILE A   2       4.899  -1.331  -0.779  0.00  0.00    +0.000 OA
ATOM      4  N   UNK A   1       6.402  -0.111   0.205  0.00  0.00    +0.000 N 
ATOM      5  C   UNK A   1       7.278   0.999  -0.049  0.00  0.00    +0.000 C 
ATOM      6  C   UNK A   1       6.553   2.292   0.250  0.00  0.00    +0.000 C 
ATOM      7  O   UNK A   1       7.180   3.232   0.731  0.00  0.00    +0.000 OA
ATOM      8  N   ILE A   2       5.216   2.259  -0.059  0.00  0.00    +0.000 N 
ATOM      9  H   UNK A   1       6.709  -1.037   0.478  0.00  0.00    +0.000 HD
ENDROOT
BRANCH   5  10
ATOM     10  C   UNK A   1       8.423   0.965   0.935  0.00  0.00    +0.000 C 
ATOM     11  C   UNK A   1       9.237  -0.301   0.701  0.00  0.00    +0.000 C 
ATOM     12  C   UNK A   1       8.579  -1.255   1.655  0.00  0.00    +0.000 A 
ATOM     13  C   UNK A   1       8.550  -2.633   1.561  0.00  0.00    +0.000 A 
ATOM     14  C   UNK A   1       7.752  -3.339   2.462  0.00  0.00    +0.000 A 
ATOM     15  C   UNK A   1       6.968  -2.667   3.415  0.00  0.00    +0.000 A 
ATOM     16  C   UNK A   1       6.964  -1.273   3.479  0.00  0.00    +0.000 A 
ATOM     17  C   UNK A   1       7.789  -0.581   2.605  0.00  0.00    +0.000 A 
ATOM     18  C   UNK A   1       7.862   0.902   2.393  0.00  0.00    +0.000 C 
ENDBRANCH   5  10
BRANCH   1  19
ATOM     19  CB  ILE A   2       3.294   1.141  -0.939  0.00  0.00    +0.000 C 
ATOM     20  CG2 ILE A   2       2.859  -0.284   0.230  0.00  0.00    +0.000 C 
BRANCH  19  22
ATOM     21  CD1 ILE A   2       0.576   3.005  -1.250  0.00  0.00    +0.000 C 
ATOM     22  CG1 ILE A   2       2.270   2.810  -1.210  0.00  0.00    +0.000 C 
ENDBRANCH  19  22
ENDBRANCH   1  19
BRANCH   8  23
ATOM     23  C   UNK A   0       4.215   3.205   0.436  0.00  0.00    +0.000 C 
BRANCH  23  24
ATOM     24  C   UNK A   0       4.803   4.541   1.005  0.00  0.00    +0.000 A 
ATOM     25  C   UNK A   0       5.771   5.245   0.211  0.00  0.00    +0.000 A 
ATOM     26  C   UNK A   0       6.543   6.269   0.750  0.00  0.00    +0.000 A 
ATOM     27  C   UNK A   0       6.240   6.669   2.029  0.00  0.00    +0.000 A 
ATOM     28  C   UNK A   0       6.981   7.722   2.759  0.00  0.00    +0.000 C 
ATOM     29  N   UNK A   0       5.216   6.165   2.726  0.00  0.00    +0.000 NA
ATOM     30  C   UNK A   0       4.515   5.136   2.220  0.00  0.00    +0.000 A 
ATOM     31  C   UNK A   0       3.405   4.766   3.110  0.00  0.00    +0.000 C 
ENDBRANCH  23  24
BRANCH  23  32
ATOM     32  C   UNK A   0       2.731   2.397   1.183  0.00  0.00    +0.000 C 
ATOM     33  O   UNK A   0       2.502   2.633   2.374  0.00  0.00    +0.000 OA
ATOM     34  N   UNK A   0       1.526   1.519   0.477  0.00  0.00    +0.000 N 
ATOM     35  C   UNK A   0       1.144   0.696  -1.179  0.00  0.00    +0.000 C 
ATOM     36  C   UNK A   0       0.577   1.211   1.543  0.00  0.00    +0.000 C 
ENDBRANCH  23  32
ENDBRANCH   8  23
TORSDOF 6
