REMARK  Name = CHEMBL1643584
REMARK  14 active torsions:
REMARK  status: ('A' for Active; 'I' for Inactive)
REMARK    1  A    between atoms: C_1  and  C_2
REMARK    2  A    between atoms: C_2  and  C_3
REMARK    3  A    between atoms: C_3  and  C_4
REMARK    4  A    between atoms: C_4  and  N_5
REMARK    5  A    between atoms: N_5  and  C_6
REMARK    6  A    between atoms: C_6  and  C_7
REMARK    7  A    between atoms: C_10  and  C_11
REMARK    8  A    between atoms: C_13  and  C_14
REMARK    9  A    between atoms: C_14  and  N_15
REMARK   10  A    between atoms: N_15  and  C_16
REMARK   11  A    between atoms: N_15  and  S_21
REMARK   12  A    between atoms: S_21  and  C_24
REMARK   13  A    between atoms: C_27  and  O_28
REMARK   14  A    between atoms: O_28  and  C_29
REMARK                            x       y       z     vdW  Elec       q    Type
REMARK                         _______ _______ _______ _____ _____    ______ ____
ROOT
ATOM      1  C   UNL     1       7.934   6.352   5.542  0.00  0.00    +0.000 A 
ATOM      2  N   UNL     1       7.274   7.500   5.609  0.00  0.00    +0.000 NA
ATOM      3  C   UNL     1       7.655   8.226   6.733  0.00  0.00    +0.000 A 
ATOM      4  C   UNL     1       8.936   7.886   7.138  0.00  0.00    +0.000 A 
ATOM      5  S   UNL     1       9.396   6.372   6.441  0.00  0.00    +0.000 S 
ENDROOT
BRANCH   1   9
ATOM      6  C   UNL     1       7.013   3.131   2.833  0.00  0.00    +0.000 A 
ATOM      7  C   UNL     1       7.400   2.823   4.143  0.00  0.00    +0.000 A 
ATOM      8  C   UNL     1       7.605   3.852   5.081  0.00  0.00    +0.000 A 
ATOM      9  C   UNL     1       7.550   5.206   4.688  0.00  0.00    +0.000 A 
ATOM     10  C   UNL     1       7.118   5.492   3.390  0.00  0.00    +0.000 A 
ATOM     11  C   UNL     1       6.880   4.475   2.467  0.00  0.00    +0.000 A 
BRANCH   6  12
ATOM     12  C   UNL     1       6.563   2.069   1.861  0.00  0.00    +0.000 C 
BRANCH  12  13
ATOM     13  N   UNL     1       5.100   2.057   1.832  0.00  0.00    +0.000 NA
ATOM     14  H   UNL     1       4.748   1.872   2.771  0.00  0.00    +0.000 HD
BRANCH  13  15
ATOM     15  C   UNL     1       4.598   1.066   0.894  0.00  0.00    +0.000 C 
BRANCH  15  16
ATOM     16  C   UNL     1       3.072   1.077   0.897  0.00  0.00    +0.000 C 
BRANCH  16  18
ATOM     17  C   UNL     1       1.021   0.031  -0.093  0.00  0.00    +0.000 C 
ATOM     18  C   UNL     1       2.538   0.038  -0.085  0.00  0.00    +0.000 C 
ENDBRANCH  16  18
ENDBRANCH  15  16
ENDBRANCH  13  15
ENDBRANCH  12  13
ENDBRANCH   6  12
ENDBRANCH   1   9
BRANCH   3  19
ATOM     19  C   UNL     1       6.730   9.255   7.394  0.00  0.00    +0.000 C 
BRANCH  19  20
ATOM     20  N   UNL     1       5.210   9.160   7.056  0.00  0.00    +0.000 NA
BRANCH  20  21
ATOM     21  C   UNL     1       4.557   7.824   7.537  0.00  0.00    +0.000 C 
ATOM     22  C   UNL     1       3.376   7.362   6.644  0.00  0.00    +0.000 C 
ATOM     23  C   UNL     1       3.106   5.917   6.989  0.00  0.00    +0.000 C 
ATOM     24  C   UNL     1       4.456   5.336   7.234  0.00  0.00    +0.000 C 
ATOM     25  C   UNL     1       5.355   6.554   7.261  0.00  0.00    +0.000 C 
ENDBRANCH  20  21
BRANCH  20  26
ATOM     26  S   UNL     1       4.471  10.698   7.750  0.00  0.00    +0.000 S 
ATOM     27  O   UNL     1       4.476  10.508   9.201  0.00  0.00    +0.000 OA
ATOM     28  O   UNL     1       5.152  11.816   7.160  0.00  0.00    +0.000 OA
BRANCH  26  29
ATOM     29  C   UNL     1       2.745  10.796   7.278  0.00  0.00    +0.000 A 
ATOM     30  C   UNL     1       1.986  11.916   6.995  0.00  0.00    +0.000 A 
ATOM     31  C   UNL     1       0.579  11.753   6.773  0.00  0.00    +0.000 A 
ATOM     32  C   UNL     1      -0.030  10.491   6.641  0.00  0.00    +0.000 A 
ATOM     33  C   UNL     1       0.740   9.407   6.948  0.00  0.00    +0.000 A 
ATOM     34  C   UNL     1       2.026   9.648   7.434  0.00  0.00    +0.000 A 
BRANCH  32  35
ATOM     35  O   UNL     1      -1.354  10.421   6.312  0.00  0.00    +0.000 OA
ATOM     36  C   UNL     1      -1.907   9.121   6.050  0.00  0.00    +0.000 C 
ENDBRANCH  32  35
ENDBRANCH  26  29
ENDBRANCH  20  26
ENDBRANCH  19  20
ENDBRANCH   3  19
TORSDOF 12
