REMARK  Name = CHEMBL602641
REMARK  7 active torsions:
REMARK  status: ('A' for Active; 'I' for Inactive)
REMARK    1  A    between atoms: C_1  and  O_2
REMARK    2  A    between atoms: O_2  and  C_3
REMARK    3  A    between atoms: C_6  and  N_7
REMARK    4  A    between atoms: C_8  and  C_9
REMARK    5  A    between atoms: C_15  and  O_16
REMARK    6  A    between atoms: O_16  and  C_17
REMARK    7  A    between atoms: C_23  and  C_24
REMARK                            x       y       z     vdW  Elec       q    Type
REMARK                         _______ _______ _______ _____ _____    ______ ____
ROOT
ATOM      1  N   UNL     1       5.209   0.330  -4.969  0.00  0.00    +0.000 N 
ATOM      2  C   UNL     1       5.533  -0.660  -5.901  0.00  0.00    +0.000 A 
ATOM      3  C   UNL     1       5.038  -2.074  -5.957  0.00  0.00    +0.000 C 
ATOM      4  N   UNL     1       6.244  -0.107  -6.864  0.00  0.00    +0.000 NA
ATOM      5  N   UNL     1       6.339   1.251  -6.625  0.00  0.00    +0.000 NA
ATOM      6  C   UNL     1       5.710   1.530  -5.515  0.00  0.00    +0.000 A 
ATOM      7  N   UNL     1       5.513   2.733  -4.867  0.00  0.00    +0.000 N 
ATOM      8  C   UNL     1       5.573   4.071  -5.383  0.00  0.00    +0.000 C 
ATOM      9  C   UNL     1       6.672   4.445  -4.351  0.00  0.00    +0.000 C 
ATOM     10  C   UNL     1       6.247   3.102  -3.694  0.00  0.00    +0.000 C 
ENDROOT
BRANCH   1  14
ATOM     11  C   UNL     1       3.114   0.129  -1.367  0.00  0.00    +0.000 A 
ATOM     12  C   UNL     1       2.732   1.071  -2.307  0.00  0.00    +0.000 A 
ATOM     13  C   UNL     1       3.411   1.117  -3.524  0.00  0.00    +0.000 A 
ATOM     14  C   UNL     1       4.455   0.221  -3.776  0.00  0.00    +0.000 A 
ATOM     15  C   UNL     1       4.799  -0.663  -2.767  0.00  0.00    +0.000 A 
ATOM     16  N   UNL     1       4.152  -0.718  -1.570  0.00  0.00    +0.000 NA
BRANCH  11  18
ATOM     17  C   UNL     1       1.113   0.064  -0.127  0.00  0.00    +0.000 C 
ATOM     18  O   UNL     1       2.540   0.054  -0.124  0.00  0.00    +0.000 OA
ENDBRANCH  11  18
ENDBRANCH   1  14
BRANCH   9  19
ATOM     19  O   UNL     1       8.019   4.669  -4.889  0.00  0.00    +0.000 OA
BRANCH  19  20
ATOM     20  C   UNL     1       9.004   5.198  -4.064  0.00  0.00    +0.000 A 
ATOM     21  C   UNL     1       9.649   6.385  -4.441  0.00  0.00    +0.000 A 
ATOM     22  C   UNL     1      10.746   6.850  -3.698  0.00  0.00    +0.000 A 
ATOM     23  F   UNL     1      11.363   7.986  -4.051  0.00  0.00    +0.000 F 
ATOM     24  C   UNL     1      11.226   6.155  -2.596  0.00  0.00    +0.000 A 
ATOM     25  C   UNL     1      10.600   4.980  -2.225  0.00  0.00    +0.000 A 
ATOM     26  C   UNL     1       9.504   4.497  -2.954  0.00  0.00    +0.000 A 
ATOM     27  C   UNL     1       8.909   3.225  -2.479  0.00  0.00    +0.000 C 
ENDBRANCH  19  20
ENDBRANCH   9  19
TORSDOF 4
