REMARK  Name = CHEMBL4205970
REMARK  2 active torsions:
REMARK  status: ('A' for Active; 'I' for Inactive)
REMARK    1  A    between atoms: C_2  and  C_3
REMARK    2  A    between atoms: C_6  and  C_7
REMARK                            x       y       z     vdW  Elec       q    Type
REMARK                         _______ _______ _______ _____ _____    ______ ____
ROOT
ATOM      1  O   UNL     1       2.675   0.456  -1.289  0.00  0.00    +0.000 OA
ATOM      2  C   UNL     1       3.873  -0.122  -1.340  0.00  0.00    +0.000 C 
ATOM      3  N   UNL     1       5.474   0.441  -2.183  0.00  0.00    +0.000 N 
ATOM      4  C   UNL     1       4.978   1.075  -1.008  0.00  0.00    +0.000 C 
ATOM      5  C   UNL     1       4.835   2.271  -1.817  0.00  0.00    +0.000 C 
ATOM      6  C   UNL     1       6.284   2.426  -1.559  0.00  0.00    +0.000 C 
ATOM      7  C   UNL     1       6.578   3.179  -2.833  0.00  0.00    +0.000 C 
ATOM      8  C   UNL     1       7.868   2.604  -2.799  0.00  0.00    +0.000 A 
ATOM      9  C   UNL     1       8.995   4.000  -2.893  0.00  0.00    +0.000 A 
ATOM     10  C   UNL     1      10.334   3.983  -3.135  0.00  0.00    +0.000 A 
ATOM     11  C   UNL     1      10.499   2.625  -3.024  0.00  0.00    +0.000 A 
ATOM     12  C   UNL     1       9.153   1.354  -2.805  0.00  0.00    +0.000 A 
ATOM     13  C   UNL     1       7.398   0.961  -2.804  0.00  0.00    +0.000 A 
ENDROOT
BRANCH   2  14
ATOM     14  C   UNL     1       3.515  -0.871   0.335  0.00  0.00    +0.000 A 
ATOM     15  C   UNL     1       4.258  -0.439   1.405  0.00  0.00    +0.000 A 
ATOM     16  C   UNL     1       5.089  -1.403   1.947  0.00  0.00    +0.000 A 
ATOM     17  C   UNL     1       4.718  -2.743   2.061  0.00  0.00    +0.000 A 
ATOM     18  C   UNL     1       3.502  -3.087   1.492  0.00  0.00    +0.000 A 
ATOM     19  C   UNL     1       2.820  -2.111   0.694  0.00  0.00    +0.000 A 
BRANCH  17  20
ATOM     20  C   UNL     1       5.563  -3.634   2.855  0.00  0.00    +0.000 A 
ATOM     21  C   UNL     1       6.112  -4.819   2.372  0.00  0.00    +0.000 A 
ATOM     22  C   UNL     1       6.997  -5.544   3.167  0.00  0.00    +0.000 A 
ATOM     23  C   UNL     1       7.302  -5.068   4.431  0.00  0.00    +0.000 A 
ATOM     24  N   UNL     1       6.772  -3.948   4.957  0.00  0.00    +0.000 NA
ATOM     25  C   UNL     1       5.917  -3.269   4.160  0.00  0.00    +0.000 A 
ENDBRANCH  17  20
ENDBRANCH   2  14
TORSDOF 2
