REMARK  Name = CHEMBL514287
REMARK  10 active torsions:
REMARK  status: ('A' for Active; 'I' for Inactive)
REMARK    1  A    between atoms: C_1  and  O_2
REMARK    2  A    between atoms: O_2  and  C_3
REMARK    3  A    between atoms: C_6  and  S_7
REMARK    4  A    between atoms: S_7  and  N_10
REMARK    5  A    between atoms: N_10  and  C_11
REMARK    6  A    between atoms: N_10  and  C_23
REMARK    7  A    between atoms: C_11  and  C_12
REMARK    8  A    between atoms: C_15  and  C_16
REMARK    9  A    between atoms: C_26  and  O_27
REMARK   10  A    between atoms: O_27  and  C_28
REMARK                            x       y       z     vdW  Elec       q    Type
REMARK                         _______ _______ _______ _____ _____    ______ ____
ROOT
ATOM      1  N   UNL     1       5.149  -4.770   3.870  0.00  0.00    +0.000 N 
ENDROOT
BRANCH   1   2
ATOM      2  C   UNL     1       5.794  -5.725   4.823  0.00  0.00    +0.000 A 
ATOM      3  C   UNL     1       6.276  -5.401   6.087  0.00  0.00    +0.000 A 
ATOM      4  C   UNL     1       6.680  -6.423   6.975  0.00  0.00    +0.000 A 
ATOM      5  C   UNL     1       6.551  -7.760   6.612  0.00  0.00    +0.000 A 
ATOM      6  N   UNL     1       6.051  -8.114   5.419  0.00  0.00    +0.000 NA
ATOM      7  C   UNL     1       5.709  -7.109   4.571  0.00  0.00    +0.000 A 
BRANCH   5   8
ATOM      8  O   UNL     1       6.893  -8.833   7.385  0.00  0.00    +0.000 OA
ATOM      9  C   UNL     1       7.447  -8.541   8.659  0.00  0.00    +0.000 C 
ENDBRANCH   5   8
ENDBRANCH   1   2
BRANCH   1  10
ATOM     10  S   UNL     1       5.905  -3.203   3.625  0.00  0.00    +0.000 S 
ATOM     11  O   UNL     1       7.235  -3.555   3.086  0.00  0.00    +0.000 OA
ATOM     12  O   UNL     1       5.821  -2.510   4.870  0.00  0.00    +0.000 OA
BRANCH  10  16
ATOM     13  C   UNL     1       3.417   0.000   1.038  0.00  0.00    +0.000 A 
ATOM     14  C   UNL     1       4.614   0.360   1.592  0.00  0.00    +0.000 A 
ATOM     15  C   UNL     1       5.479  -0.608   2.329  0.00  0.00    +0.000 A 
ATOM     16  C   UNL     1       5.238  -1.992   2.393  0.00  0.00    +0.000 A 
ATOM     17  C   UNL     1       4.283  -2.325   1.529  0.00  0.00    +0.000 A 
ATOM     18  C   UNL     1       3.301  -1.329   1.153  0.00  0.00    +0.000 A 
BRANCH  13  20
ATOM     19  C   UNL     1       1.088   0.375   0.212  0.00  0.00    +0.000 C 
ATOM     20  O   UNL     1       2.506   0.750   0.336  0.00  0.00    +0.000 OA
ENDBRANCH  13  20
ENDBRANCH  10  16
ENDBRANCH   1  10
BRANCH   1  21
ATOM     21  C   UNL     1       3.779  -5.281   3.560  0.00  0.00    +0.000 C 
BRANCH  21  22
ATOM     22  C   UNL     1       2.827  -4.483   2.801  0.00  0.00    +0.000 A 
ATOM     23  N   UNL     1       2.252  -3.378   3.271  0.00  0.00    +0.000 NA
ATOM     24  O   UNL     1       1.541  -2.928   2.121  0.00  0.00    +0.000 OA
ATOM     25  C   UNL     1       1.969  -3.721   1.003  0.00  0.00    +0.000 A 
ATOM     26  N   UNL     1       2.572  -4.794   1.462  0.00  0.00    +0.000 NA
BRANCH  25  27
ATOM     27  C   UNL     1       1.857  -3.106  -0.474  0.00  0.00    +0.000 A 
ATOM     28  C   UNL     1       2.788  -2.344  -1.350  0.00  0.00    +0.000 A 
ATOM     29  C   UNL     1       2.347  -1.587  -2.489  0.00  0.00    +0.000 A 
ATOM     30  C   UNL     1       1.015  -1.654  -2.856  0.00  0.00    +0.000 A 
ATOM     31  C   UNL     1       0.131  -2.341  -2.026  0.00  0.00    +0.000 A 
ATOM     32  C   UNL     1       0.540  -3.013  -0.864  0.00  0.00    +0.000 A 
ENDBRANCH  25  27
ENDBRANCH  21  22
ENDBRANCH   1  21
TORSDOF 8
