REMARK  Name = CHEMBL281106
REMARK  8 active torsions:
REMARK  status: ('A' for Active; 'I' for Inactive)
REMARK    1  A    between atoms: C_1  and  N_2
REMARK    2  A    between atoms: C_3  and  C_4
REMARK    3  A    between atoms: C_4  and  N_5
REMARK    4  A    between atoms: C_6  and  C_8
REMARK    5  A    between atoms: C_8  and  N_9
REMARK    6  A    between atoms: C_11  and  C_12
REMARK    7  A    between atoms: C_24  and  C_25
REMARK    8  A    between atoms: C_30  and  N_31
REMARK                            x       y       z     vdW  Elec       q    Type
REMARK                         _______ _______ _______ _____ _____    ______ ____
ROOT
ATOM      1  C   UNL     1       2.218   1.684  -0.088  0.00  0.00    +0.000 C 
ATOM      2  N   UNL     1       1.545   0.404  -0.013  0.00  0.00    +0.000 N 
ATOM      3  C   UNL     1       1.997  -0.892  -0.008  0.00  0.00    +0.000 A 
ATOM      4  C   UNL     1       0.877  -1.723  -0.000  0.00  0.00    +0.000 A 
ATOM      5  C   UNL     1      -0.284  -0.919  -0.005  0.00  0.00    +0.000 A 
ATOM      6  C   UNL     1      -1.673  -1.150  -0.023  0.00  0.00    +0.000 A 
ATOM      7  C   UNL     1      -2.551  -0.043  -0.048  0.00  0.00    +0.000 A 
ATOM      8  C   UNL     1      -2.066   1.276  -0.043  0.00  0.00    +0.000 A 
ATOM      9  C   UNL     1      -0.700   1.476   0.027  0.00  0.00    +0.000 A 
ATOM     10  C   UNL     1       0.165   0.389   0.012  0.00  0.00    +0.000 A 
ENDROOT
BRANCH   8  11
ATOM     11  C   UNL     1      -2.983   2.462  -0.036  0.00  0.00    +0.000 C 
ATOM     12  O   UNL     1      -4.196   2.254  -0.001  0.00  0.00    +0.000 OA
ATOM     13  N   UNL     1      -2.441   3.765   0.122  0.00  0.00    +0.000 N 
ATOM     14  C   UNL     1      -2.311   4.211   1.498  0.00  0.00    +0.000 C 
ATOM     15  C   UNL     1      -2.395   5.716   1.613  0.00  0.00    +0.000 C 
ATOM     16  C   UNL     1      -0.922   6.426   0.938  0.00  0.00    +0.000 C 
ATOM     17  C   UNL     1      -1.443   5.930  -0.642  0.00  0.00    +0.000 C 
ATOM     18  C   UNL     1      -1.506   4.412  -0.822  0.00  0.00    +0.000 C 
BRANCH  16  19
ATOM     19  N   UNL     1       0.522   6.428   2.103  0.00  0.00    +0.000 N 
ATOM     20  C   UNL     1      -0.237   7.449   2.757  0.00  0.00    +0.000 C 
ATOM     21  O   UNL     1      -1.448   7.452   3.129  0.00  0.00    +0.000 OA
ATOM     22  O   UNL     1       0.319   8.633   2.777  0.00  0.00    +0.000 OA
ATOM     23  C   UNL     1       0.830   8.527   4.047  0.00  0.00    +0.000 C 
ATOM     24  C   UNL     1       2.153   8.224   3.518  0.00  0.00    +0.000 A 
ATOM     25  C   UNL     1       3.164   9.180   4.094  0.00  0.00    +0.000 A 
ATOM     26  C   UNL     1       4.512   9.024   4.039  0.00  0.00    +0.000 A 
ATOM     27  C   UNL     1       4.778   7.714   3.729  0.00  0.00    +0.000 A 
ATOM     28  C   UNL     1       3.618   6.694   3.173  0.00  0.00    +0.000 A 
ATOM     29  C   UNL     1       2.183   7.048   2.679  0.00  0.00    +0.000 A 
ENDBRANCH  16  19
ENDBRANCH   8  11
BRANCH   3  30
ATOM     30  C   UNL     1       3.399  -1.356  -0.019  0.00  0.00    +0.000 C 
BRANCH  30  31
ATOM     31  N   UNL     1       4.341  -0.259  -0.106  0.00  0.00    +0.000 N 
ATOM     32  C   UNL     1       5.651  -0.604   0.004  0.00  0.00    +0.000 C 
ATOM     33  O   UNL     1       5.832  -1.801   0.153  0.00  0.00    +0.000 OA
ATOM     34  H   UNL     1       4.176   0.520   0.492  0.00  0.00    +0.000 HD
BRANCH  32  35
ATOM     35  C   UNL     1       6.689   0.578   0.050  0.00  0.00    +0.000 C 
BRANCH  35  36
ATOM     36  N   UNL     1       8.135   0.240   0.089  0.00  0.00    +0.000 N 
ATOM     37  C   UNL     1       9.094   1.266   0.018  0.00  0.00    +0.000 A 
ATOM     38  C   UNL     1      10.390   0.981  -0.236  0.00  0.00    +0.000 A 
ATOM     39  C   UNL     1      10.831  -0.397  -0.260  0.00  0.00    +0.000 A 
ATOM     40  C   UNL     1       9.976  -1.371   0.005  0.00  0.00    +0.000 A 
ATOM     41  C   UNL     1       8.552  -1.092   0.017  0.00  0.00    +0.000 A 
ATOM     42  O   UNL     1       7.933  -2.135  -0.090  0.00  0.00    +0.000 OA
BRANCH  38  43
ATOM     43  C   UNL     1      11.481   1.969  -0.492  0.00  0.00    +0.000 C 
ATOM     44  F   UNL     1      12.499   1.831   0.396  0.00  0.00    +0.000 F 
ATOM     45  F   UNL     1      12.015   1.794  -1.729  0.00  0.00    +0.000 F 
ATOM     46  F   UNL     1      11.054   3.252  -0.420  0.00  0.00    +0.000 F 
ENDBRANCH  38  43
ENDBRANCH  35  36
ENDBRANCH  32  35
ENDBRANCH  30  31
ENDBRANCH   3  30
TORSDOF 7
