REMARK  Name = CHEMBL602872
REMARK  6 active torsions:
REMARK  status: ('A' for Active; 'I' for Inactive)
REMARK    1  A    between atoms: C_1  and  C_2
REMARK    2  A    between atoms: C_4  and  C_5
REMARK    3  A    between atoms: N_12  and  C_13
REMARK    4  A    between atoms: C_24  and  N_25
REMARK    5  A    between atoms: C_26  and  C_28
REMARK    6  A    between atoms: C_33  and  C_34
REMARK                            x       y       z     vdW  Elec       q    Type
REMARK                         _______ _______ _______ _____ _____    ______ ____
ROOT
ATOM      1  C   UNL     1       2.478  -0.413   0.632  0.00  0.00    +0.000 C 
ATOM      2  C   UNL     1       1.001  -0.161   0.643  0.00  0.00    +0.000 A 
ATOM      3  C   UNL     1       0.156  -1.301   0.569  0.00  0.00    +0.000 A 
ATOM      4  C   UNL     1      -1.251  -1.201   0.510  0.00  0.00    +0.000 A 
ATOM      5  C   UNL     1      -1.813   0.058   0.653  0.00  0.00    +0.000 A 
ATOM      6  C   UNL     1      -0.991   1.204   0.663  0.00  0.00    +0.000 A 
ATOM      7  C   UNL     1       0.417   1.115   0.561  0.00  0.00    +0.000 A 
ENDROOT
BRANCH   4   8
ATOM      8  C   UNL     1      -2.077  -2.392   0.080  0.00  0.00    +0.000 C 
ATOM      9  O   UNL     1      -1.454  -3.418  -0.190  0.00  0.00    +0.000 OA
ATOM     10  N   UNL     1      -3.492  -2.289   0.123  0.00  0.00    +0.000 N 
ATOM     11  C   UNL     1      -4.322  -1.646  -0.961  0.00  0.00    +0.000 C 
ATOM     12  C   UNL     1      -5.252  -0.585  -0.439  0.00  0.00    +0.000 A 
ATOM     13  C   UNL     1      -5.678   0.672  -0.969  0.00  0.00    +0.000 A 
ATOM     14  N   UNL     1      -6.555   1.316  -0.180  0.00  0.00    +0.000 NA
ATOM     15  N   UNL     1      -6.725   0.467   0.847  0.00  0.00    +0.000 N 
ATOM     16  C   UNL     1      -7.619   0.758   1.949  0.00  0.00    +0.000 C 
ATOM     17  C   UNL     1      -5.952  -0.661   0.738  0.00  0.00    +0.000 A 
ATOM     18  N   UNL     1      -5.988  -1.589   1.700  0.00  0.00    +0.000 N 
ATOM     19  C   UNL     1      -5.259  -2.782   1.814  0.00  0.00    +0.000 A 
ATOM     20  C   UNL     1      -5.660  -3.591   2.903  0.00  0.00    +0.000 A 
ATOM     21  C   UNL     1      -5.060  -4.807   3.185  0.00  0.00    +0.000 A 
ATOM     22  C   UNL     1      -4.055  -5.262   2.357  0.00  0.00    +0.000 A 
ATOM     23  C   UNL     1      -3.620  -4.467   1.295  0.00  0.00    +0.000 A 
ATOM     24  C   UNL     1      -4.173  -3.198   1.021  0.00  0.00    +0.000 A 
ATOM     25  H   UNL     1      -6.655  -1.486   2.454  0.00  0.00    +0.000 HD
ENDBRANCH   4   8
BRANCH   7  26
ATOM     26  N   UNL     1       1.115   2.317   0.252  0.00  0.00    +0.000 N 
ATOM     27  C   UNL     1       2.447   2.544  -0.104  0.00  0.00    +0.000 C 
ATOM     28  O   UNL     1       3.066   3.392   0.507  0.00  0.00    +0.000 OA
ATOM     29  H   UNL     1       0.591   3.182   0.327  0.00  0.00    +0.000 HD
BRANCH  27  30
ATOM     30  C   UNL     1       3.135   1.792  -1.250  0.00  0.00    +0.000 A 
ATOM     31  C   UNL     1       4.548   1.704  -1.115  0.00  0.00    +0.000 A 
ATOM     32  C   UNL     1       5.296   0.792  -1.872  0.00  0.00    +0.000 A 
ATOM     33  C   UNL     1       4.654  -0.060  -2.759  0.00  0.00    +0.000 A 
ATOM     34  C   UNL     1       3.275   0.037  -2.936  0.00  0.00    +0.000 A 
ATOM     35  C   UNL     1       2.488   0.992  -2.245  0.00  0.00    +0.000 A 
BRANCH  35  36
ATOM     36  C   UNL     1       1.029   0.948  -2.467  0.00  0.00    +0.000 A 
ATOM     37  C   UNL     1       0.294   2.135  -2.556  0.00  0.00    +0.000 A 
ATOM     38  C   UNL     1      -1.088   2.127  -2.383  0.00  0.00    +0.000 A 
ATOM     39  C   UNL     1      -1.774   0.921  -2.300  0.00  0.00    +0.000 A 
ATOM     40  C   UNL     1      -1.075  -0.281  -2.389  0.00  0.00    +0.000 A 
ATOM     41  C   UNL     1       0.319  -0.268  -2.417  0.00  0.00    +0.000 A 
ENDBRANCH  35  36
ENDBRANCH  27  30
ENDBRANCH   7  26
TORSDOF 4
