REMARK  Name = CHEMBL1089025
REMARK  8 active torsions:
REMARK  status: ('A' for Active; 'I' for Inactive)
REMARK    1  A    between atoms: C_1  and  C_2
REMARK    2  A    between atoms: C_2  and  N_3
REMARK    3  A    between atoms: N_3  and  C_19
REMARK    4  A    between atoms: C_4  and  C_6
REMARK    5  A    between atoms: C_9  and  C_10
REMARK    6  A    between atoms: C_15  and  C_16
REMARK    7  A    between atoms: C_22  and  O_23
REMARK    8  A    between atoms: O_23  and  C_24
REMARK                            x       y       z     vdW  Elec       q    Type
REMARK                         _______ _______ _______ _____ _____    ______ ____
ROOT
ATOM      1  N   UNL     1       2.885   0.425  -1.265  0.00  0.00    +0.000 N 
ATOM      2  C   UNL     1       2.023   0.897  -2.308  0.00  0.00    +0.000 C 
ATOM      3  O   UNL     1       2.438   1.262  -3.403  0.00  0.00    +0.000 OA
ENDROOT
BRANCH   2   4
ATOM      4  C   UNL     1       0.537   0.935  -2.156  0.00  0.00    +0.000 A 
ATOM      5  C   UNL     1      -0.057   1.681  -1.158  0.00  0.00    +0.000 A 
ATOM      6  N   UNL     1      -1.354   1.498  -0.790  0.00  0.00    +0.000 NA
ATOM      7  C   UNL     1      -2.109   0.679  -1.569  0.00  0.00    +0.000 A 
ATOM      8  C   UNL     1      -1.538   0.081  -2.688  0.00  0.00    +0.000 A 
ATOM      9  N   UNL     1      -0.209   0.150  -2.982  0.00  0.00    +0.000 NA
BRANCH   7  10
ATOM     10  C   UNL     1      -3.544   0.576  -1.241  0.00  0.00    +0.000 A 
ATOM     11  C   UNL     1      -4.201  -0.675  -1.210  0.00  0.00    +0.000 A 
ATOM     12  C   UNL     1      -5.579  -0.769  -0.982  0.00  0.00    +0.000 A 
ATOM     13  C   UNL     1      -6.326   0.383  -0.764  0.00  0.00    +0.000 A 
ATOM     14  C   UNL     1      -5.700   1.626  -0.767  0.00  0.00    +0.000 A 
ATOM     15  C   UNL     1      -4.319   1.736  -0.999  0.00  0.00    +0.000 A 
ATOM     16  C   UNL     1      -3.695   3.107  -1.029  0.00  0.00    +0.000 C 
ENDBRANCH   7  10
ENDBRANCH   2   4
BRANCH   1  17
ATOM     17  C   UNL     1       4.325   0.513  -1.494  0.00  0.00    +0.000 A 
ATOM     18  C   UNL     1       5.203  -0.496  -1.085  0.00  0.00    +0.000 A 
ATOM     19  C   UNL     1       6.576  -0.406  -1.347  0.00  0.00    +0.000 A 
ATOM     20  C   UNL     1       7.075   0.714  -1.990  0.00  0.00    +0.000 A 
ATOM     21  N   UNL     1       6.270   1.730  -2.360  0.00  0.00    +0.000 NA
ATOM     22  C   UNL     1       4.931   1.600  -2.125  0.00  0.00    +0.000 A 
BRANCH  20  23
ATOM     23  O   UNL     1       8.392   0.904  -2.314  0.00  0.00    +0.000 OA
ATOM     24  C   UNL     1       9.289  -0.152  -1.987  0.00  0.00    +0.000 C 
ENDBRANCH  20  23
ENDBRANCH   1  17
BRANCH   1  26
ATOM     25  C   UNL     1       1.069  -0.439   0.385  0.00  0.00    +0.000 C 
ATOM     26  C   UNL     1       2.519  -0.166   0.062  0.00  0.00    +0.000 C 
ENDBRANCH   1  26
TORSDOF 5
