REMARK  Name = CHEMBL381024
REMARK  12 active torsions:
REMARK  status: ('A' for Active; 'I' for Inactive)
REMARK    1  A    between atoms: CD1_1  and  CG_2
REMARK    2  A    between atoms: CG_2  and  CD2_3
REMARK    3  A    between atoms: CG_2  and  CB_4
REMARK    4  A    between atoms: CB_4  and  CA_5
REMARK    5  A    between atoms: C_9  and  C_10
REMARK    6  A    between atoms: N_21  and  C_22
REMARK    7  A    between atoms: C_22  and  C_23
REMARK    8  A    between atoms: C_22  and  C_30
REMARK    9  A    between atoms: N_25  and  C_26
REMARK   10  A    between atoms: C_26  and  C_27
REMARK   11  A    between atoms: C_26  and  C_28
REMARK   12  A    between atoms: C_26  and  C_29
REMARK                            x       y       z     vdW  Elec       q    Type
REMARK                         _______ _______ _______ _____ _____    ______ ____
ROOT
ATOM      1  CA  LEU A   2       4.704  -0.587  -1.591  0.00  0.00    +0.000 C 
ATOM      2  C   LEU A   2       5.282  -1.469  -0.454  0.00  0.00    +0.000 C 
ATOM      3  O   LEU A   2       4.931  -2.575  -0.129  0.00  0.00    +0.000 OA
ATOM      4  N   UNK A   1       6.286  -0.835   0.195  0.00  0.00    +0.000 N 
ATOM      5  C   UNK A   1       7.144  -0.032  -0.623  0.00  0.00    +0.000 C 
ATOM      6  C   UNK A   1       6.354   1.143  -1.206  0.00  0.00    +0.000 C 
ATOM      7  O   UNK A   1       6.979   2.180  -1.420  0.00  0.00    +0.000 OA
ATOM      8  N   LEU A   2       5.013   0.898  -1.509  0.00  0.00    +0.000 N 
ATOM      9  H   UNK A   1       6.619  -1.354   0.997  0.00  0.00    +0.000 HD
ENDROOT
BRANCH   5  10
ATOM     10  C   UNK A   1       8.318   0.558   0.161  0.00  0.00    +0.000 C 
ATOM     11  C   UNK A   1       9.193  -0.546   0.766  0.00  0.00    +0.000 C 
ATOM     12  C   UNK A   1       8.543  -0.727   2.104  0.00  0.00    +0.000 A 
ATOM     13  C   UNK A   1       8.565  -1.853   2.904  0.00  0.00    +0.000 A 
ATOM     14  C   UNK A   1       7.767  -1.861   4.049  0.00  0.00    +0.000 A 
ATOM     15  C   UNK A   1       6.953  -0.762   4.369  0.00  0.00    +0.000 A 
ATOM     16  C   UNK A   1       6.922   0.366   3.550  0.00  0.00    +0.000 A 
ATOM     17  C   UNK A   1       7.733   0.374   2.428  0.00  0.00    +0.000 A 
ATOM     18  C   UNK A   1       7.792   1.411   1.349  0.00  0.00    +0.000 C 
ENDBRANCH   5  10
BRANCH   1  19
ATOM     19  CB  LEU A   2       3.267  -0.886  -1.491  0.00  0.00    +0.000 C 
BRANCH  19  21
ATOM     20  CD1 LEU A   2       1.381  -0.954  -0.273  0.00  0.00    +0.000 C 
ATOM     21  CG  LEU A   2       2.793  -0.578  -0.084  0.00  0.00    +0.000 C 
ATOM     22  CD2 LEU A   2       3.123  -1.215   1.280  0.00  0.00    +0.000 C 
ENDBRANCH  19  21
ENDBRANCH   1  19
BRANCH   8  23
ATOM     23  C   UNK A   0       4.017   2.052  -1.939  0.00  0.00    +0.000 C 
BRANCH  23  24
ATOM     24  C   UNK A   0       4.750   3.421  -2.224  0.00  0.00    +0.000 A 
ATOM     25  C   UNK A   0       5.790   3.530  -3.166  0.00  0.00    +0.000 A 
ATOM     26  C   UNK A   0       6.622   4.670  -3.182  0.00  0.00    +0.000 A 
ATOM     27  C   UNK A   0       6.361   5.759  -2.351  0.00  0.00    +0.000 A 
ATOM     28 CL   UNK A   0       7.347   7.162  -2.364  0.00  0.00    +0.000 Cl
ATOM     29  C   UNK A   0       5.286   5.722  -1.497  0.00  0.00    +0.000 A 
ATOM     30  C   UNK A   0       4.511   4.576  -1.448  0.00  0.00    +0.000 A 
ENDBRANCH  23  24
BRANCH  23  31
ATOM     31  C   UNK A   0       2.754   2.356  -0.894  0.00  0.00    +0.000 C 
ATOM     32  O   UNK A   0       2.878   3.143   0.058  0.00  0.00    +0.000 OA
ATOM     33  N   UNK A   0       1.573   1.616  -0.912  0.00  0.00    +0.000 N 
ATOM     34  H   UNK A   0       1.446   1.072  -1.755  0.00  0.00    +0.000 HD
BRANCH  33  35
ATOM     35  C   UNK A   0       0.505   1.567   0.311  0.00  0.00    +0.000 C 
ATOM     36  C   UNK A   0       1.220   1.811   1.688  0.00  0.00    +0.000 C 
ATOM     37  C   UNK A   0      -0.401   2.681  -0.126  0.00  0.00    +0.000 C 
ATOM     38  C   UNK A   0      -0.676   0.317   0.561  0.00  0.00    +0.000 C 
ENDBRANCH  33  35
ENDBRANCH  23  31
ENDBRANCH   8  23
TORSDOF 7
