REMARK  Name = CHEMBL2037506
REMARK  11 active torsions:
REMARK  status: ('A' for Active; 'I' for Inactive)
REMARK    1  A    between atoms: CD1_1  and  CG1_2
REMARK    2  A    between atoms: CG1_2  and  CB_3
REMARK    3  A    between atoms: CB_3  and  CG2_4
REMARK    4  A    between atoms: CB_3  and  CA_5
REMARK    5  A    between atoms: C_9  and  C_10
REMARK    6  A    between atoms: N_21  and  C_22
REMARK    7  A    between atoms: C_22  and  C_23
REMARK    8  A    between atoms: C_22  and  C_27
REMARK    9  A    between atoms: N_25  and  C_26
REMARK   10  A    between atoms: C_30  and  C_31
REMARK   11  A    between atoms: C_33  and  C_34
REMARK                            x       y       z     vdW  Elec       q    Type
REMARK                         _______ _______ _______ _____ _____    ______ ____
ROOT
ATOM      1  CA  ILE A   2       4.731   1.206   0.440  0.00  0.00    +0.000 C 
ATOM      2  C   ILE A   2       5.373  -0.145   0.846  0.00  0.00    +0.000 C 
ATOM      3  O   ILE A   2       4.925  -1.288   0.646  0.00  0.00    +0.000 OA
ATOM      4  N   UNK A   1       6.504  -0.038   1.534  0.00  0.00    +0.000 N 
ATOM      5  C   UNK A   1       7.295   1.147   1.458  0.00  0.00    +0.000 C 
ATOM      6  C   UNK A   1       6.445   2.379   1.796  0.00  0.00    +0.000 C 
ATOM      7  O   UNK A   1       7.030   3.281   2.380  0.00  0.00    +0.000 OA
ATOM      8  N   ILE A   2       5.104   2.398   1.342  0.00  0.00    +0.000 N 
ATOM      9  H   UNK A   1       6.806  -0.899   1.975  0.00  0.00    +0.000 HD
ENDROOT
BRANCH   5  10
ATOM     10  C   UNK A   1       8.480   1.114   2.449  0.00  0.00    +0.000 C 
ATOM     11  C   UNK A   1       9.350  -0.134   2.237  0.00  0.00    +0.000 C 
ATOM     12  C   UNK A   1       8.710  -1.101   3.189  0.00  0.00    +0.000 A 
ATOM     13  C   UNK A   1       8.715  -2.481   3.119  0.00  0.00    +0.000 A 
ATOM     14  C   UNK A   1       7.928  -3.191   4.028  0.00  0.00    +0.000 A 
ATOM     15  C   UNK A   1       7.143  -2.520   4.981  0.00  0.00    +0.000 A 
ATOM     16  C   UNK A   1       7.127  -1.127   5.036  0.00  0.00    +0.000 A 
ATOM     17  C   UNK A   1       7.920  -0.433   4.138  0.00  0.00    +0.000 A 
ATOM     18  C   UNK A   1       7.985   1.047   3.926  0.00  0.00    +0.000 C 
ENDBRANCH   5  10
BRANCH   1  19
ATOM     19  CB  ILE A   2       3.255   0.953   0.545  0.00  0.00    +0.000 C 
ATOM     20  CG2 ILE A   2       2.599  -0.162  -0.256  0.00  0.00    +0.000 C 
BRANCH  19  22
ATOM     21  CD1 ILE A   2       3.835   0.104   3.090  0.00  0.00    +0.000 C 
ATOM     22  CG1 ILE A   2       2.918   0.604   2.006  0.00  0.00    +0.000 C 
ENDBRANCH  19  22
ENDBRANCH   1  19
BRANCH   8  23
ATOM     23  C   UNK A   0       4.107   3.645   1.655  0.00  0.00    +0.000 C 
BRANCH  23  24
ATOM     24  C   UNK A   0       4.898   4.797   2.375  0.00  0.00    +0.000 A 
ATOM     25  C   UNK A   0       4.723   5.023   3.752  0.00  0.00    +0.000 A 
ATOM     26  N   UNK A   0       5.394   5.875   4.538  0.00  0.00    +0.000 NA
ATOM     27  C   UNK A   0       6.415   6.514   3.985  0.00  0.00    +0.000 A 
ATOM     28  C   UNK A   0       7.134   7.403   4.934  0.00  0.00    +0.000 C 
ATOM     29  C   UNK A   0       6.753   6.352   2.645  0.00  0.00    +0.000 A 
ATOM     30  C   UNK A   0       5.973   5.520   1.799  0.00  0.00    +0.000 A 
ATOM     31  C   UNK A   0       6.459   5.281   0.388  0.00  0.00    +0.000 C 
ENDBRANCH  23  24
BRANCH  23  32
ATOM     32  C   UNK A   0       2.613   3.465   2.540  0.00  0.00    +0.000 C 
ATOM     33  O   UNK A   0       2.568   3.543   3.773  0.00  0.00    +0.000 OA
ATOM     34  N   UNK A   0       1.427   2.918   2.014  0.00  0.00    +0.000 N 
ATOM     35  C   UNK A   0       0.589   2.097   2.967  0.00  0.00    +0.000 C 
ATOM     36  H   UNK A   0       1.429   2.576   1.068  0.00  0.00    +0.000 HD
ENDBRANCH  23  32
ENDBRANCH   8  23
TORSDOF 6
