REMARK  Name = CHEMBL2369839
REMARK  19 active torsions:
REMARK  status: ('A' for Active; 'I' for Inactive)
REMARK    1  A    between atoms: C_2  and  C_4
REMARK    2  A    between atoms: C_4  and  N_5
REMARK    3  A    between atoms: C_6  and  C_8
REMARK    4  A    between atoms: C_8  and  C_9
REMARK    5  A    between atoms: C_8  and  N_16
REMARK    6  A    between atoms: C_9  and  C_10
REMARK    7  A    between atoms: C_10  and  C_11
REMARK    8  A    between atoms: C_11  and  N_12
REMARK    9  A    between atoms: C_17  and  C_19
REMARK   10  A    between atoms: C_24  and  C_26
REMARK   11  A    between atoms: C_35  and  C_36
REMARK   12  A    between atoms: C_36  and  C_37
REMARK   13  A    between atoms: C_40  and  O_41
REMARK   14  A    between atoms: C_47  and  C_48
REMARK   15  A    between atoms: C_48  and  C_49
REMARK   16  A    between atoms: C_58  and  C_59
REMARK   17  A    between atoms: C_59  and  C_60
REMARK   18  A    between atoms: C_66  and  C_67
REMARK   19  A    between atoms: C_67  and  C_68
REMARK                            x       y       z     vdW  Elec       q    Type
REMARK                         _______ _______ _______ _____ _____    ______ ____
ROOT
ATOM      1  C   UNL     1       6.850   6.191  -0.016  0.00  0.00    +0.000 C 
ATOM      2  C   UNL     1       5.270   7.890   1.253  0.00  0.00    +0.000 C 
ATOM      3  S   UNL     1       3.255   8.841   2.830  0.00  0.00    +0.000 S 
ATOM      4  S   UNL     1       0.753   9.744   3.924  0.00  0.00    +0.000 S 
ATOM      5  C   UNL     1      -0.768   8.457   3.913  0.00  0.00    +0.000 C 
ATOM      6  C   UNL     1      -2.244   8.305   3.605  0.00  0.00    +0.000 C 
ATOM      7  C   UNL     1      -2.731   6.937   3.071  0.00  0.00    +0.000 C 
ATOM      8  O   UNL     1      -3.932   6.703   2.958  0.00  0.00    +0.000 OA
ATOM      9  N   UNL     1      -1.815   6.003   2.707  0.00  0.00    +0.000 N 
ATOM     10  C   UNL     1      -0.458   6.260   2.814  0.00  0.00    +0.000 C 
ATOM     11  C   UNL     1      -0.022   7.430   1.702  0.00  0.00    +0.000 C 
ATOM     12  O   UNL     1      -0.507   8.578   1.597  0.00  0.00    +0.000 OA
ATOM     13  N   UNL     1       0.943   7.396   0.917  0.00  0.00    +0.000 N 
ATOM     14  C   UNL     1       1.708   6.405   0.711  0.00  0.00    +0.000 C 
ATOM     15  C   UNL     1       2.743   5.978   2.338  0.00  0.00    +0.000 C 
ATOM     16  O   UNL     1       2.349   5.526   3.475  0.00  0.00    +0.000 OA
ATOM     17  N   UNL     1       4.074   5.717   2.169  0.00  0.00    +0.000 N 
ATOM     18  C   UNL     1       4.638   5.355   0.933  0.00  0.00    +0.000 C 
ATOM     19  C   UNL     1       3.950   3.848  -0.258  0.00  0.00    +0.000 C 
ATOM     20  O   UNL     1       2.894   3.294  -0.737  0.00  0.00    +0.000 OA
ATOM     21  N   UNL     1       4.886   3.311  -0.736  0.00  0.00    +0.000 N 
ATOM     22  C   UNL     1       6.205   3.261  -0.534  0.00  0.00    +0.000 C 
ATOM     23  C   UNL     1       6.164   4.861  -1.067  0.00  0.00    +0.000 C 
ATOM     24  O   UNL     1       5.612   5.970  -0.951  0.00  0.00    +0.000 OA
ATOM     25  N   UNL     1       7.764   5.425  -1.285  0.00  0.00    +0.000 N 
ATOM     26  H   UNL     1      -2.081   5.065   2.370  0.00  0.00    +0.000 HD
ATOM     27  H   UNL     1       1.194   8.137   0.326  0.00  0.00    +0.000 HD
ATOM     28  H   UNL     1       4.366   4.936   2.740  0.00  0.00    +0.000 HD
ATOM     29  H   UNL     1       4.476   2.889  -1.625  0.00  0.00    +0.000 HD
ATOM     30  H   UNL     1       8.581   5.664  -2.127  0.00  0.00    +0.000 HD
ENDROOT
BRANCH   1  36
ATOM     31  C   UNL     1       6.232   2.206  -3.873  0.00  0.00    +0.000 C 
ATOM     32  C   UNL     1       5.211   0.936  -3.547  0.00  0.00    +0.000 C 
ATOM     33  C   UNL     1       5.890  -0.230  -4.114  0.00  0.00    +0.000 C 
ATOM     34  C   UNL     1       7.576   0.640  -3.635  0.00  0.00    +0.000 C 
ATOM     35  N   UNL     1       7.719   2.671  -2.891  0.00  0.00    +0.000 N 
ATOM     36  C   UNL     1       7.665   4.312  -1.377  0.00  0.00    +0.000 C 
ATOM     37  O   UNL     1       8.776   3.290  -1.908  0.00  0.00    +0.000 OA
BRANCH  31  39
ATOM     38  N   UNL     1       6.266   4.599  -3.588  0.00  0.00    +0.000 N 
ATOM     39  C   UNL     1       5.866   3.410  -3.380  0.00  0.00    +0.000 C 
ATOM     40  O   UNL     1       5.273   3.056  -2.450  0.00  0.00    +0.000 OA
ATOM     41  H   UNL     1       6.691   4.646  -4.451  0.00  0.00    +0.000 HD
BRANCH  38  42
ATOM     42  C   UNL     1       6.013   5.834  -2.968  0.00  0.00    +0.000 C 
BRANCH  42  44
ATOM     43  N   UNL     1       4.063   5.524  -1.507  0.00  0.00    +0.000 N 
ATOM     44  C   UNL     1       4.599   5.961  -2.593  0.00  0.00    +0.000 C 
ATOM     45  O   UNL     1       3.771   6.372  -3.319  0.00  0.00    +0.000 OA
ATOM     46  H   UNL     1       4.741   5.270  -0.740  0.00  0.00    +0.000 HD
BRANCH  43  47
ATOM     47  C   UNL     1       2.833   5.266  -1.176  0.00  0.00    +0.000 C 
BRANCH  47  49
ATOM     48  N   UNL     1       1.337   4.551   1.188  0.00  0.00    +0.000 N 
ATOM     49  C   UNL     1       2.459   4.552   0.651  0.00  0.00    +0.000 C 
ATOM     50  O   UNL     1       3.250   4.005   1.450  0.00  0.00    +0.000 OA
ATOM     51  H   UNL     1       1.439   4.238   2.162  0.00  0.00    +0.000 HD
ATOM     52  H   UNL     1       0.411   5.518   0.993  0.00  0.00    +0.000 HD
ENDBRANCH  47  49
ENDBRANCH  43  47
ENDBRANCH  42  44
BRANCH  42  53
ATOM     53  C   UNL     1       6.532   7.049  -3.523  0.00  0.00    +0.000 C 
BRANCH  53  54
ATOM     54  C   UNL     1       7.179   6.681  -4.806  0.00  0.00    +0.000 C 
BRANCH  54  55
ATOM     55  C   UNL     1       7.469   7.910  -5.603  0.00  0.00    +0.000 C 
BRANCH  55  56
ATOM     56  N   UNL     1       8.085   7.545  -6.883  0.00  0.00    +0.000 NA
ATOM     57  C   UNL     1       8.408   8.493  -7.712  0.00  0.00    +0.000 C 
ATOM     58  N   UNL     1       8.194   9.832  -7.430  0.00  0.00    +0.000 N 
ATOM     59  N   UNL     1       8.995   8.164  -8.933  0.00  0.00    +0.000 N 
ATOM     60  H   UNL     1       7.764  10.131  -6.546  0.00  0.00    +0.000 HD
ATOM     61  H   UNL     1       8.430  10.597  -8.046  0.00  0.00    +0.000 HD
ATOM     62  H   UNL     1       9.181   7.184  -9.200  0.00  0.00    +0.000 HD
ATOM     63  H   UNL     1       9.279   8.834  -9.638  0.00  0.00    +0.000 HD
ENDBRANCH  55  56
ENDBRANCH  54  55
ENDBRANCH  53  54
ENDBRANCH  42  53
ENDBRANCH  38  42
ENDBRANCH  31  39
ENDBRANCH   1  36
BRANCH  10  64
ATOM     64  C   UNL     1      -0.016   4.974   2.563  0.00  0.00    +0.000 C 
BRANCH  64  65
ATOM     65  C   UNL     1       0.038   3.748   3.329  0.00  0.00    +0.000 A 
ATOM     66  C   UNL     1      -0.487   3.883   4.550  0.00  0.00    +0.000 A 
ATOM     67  C   UNL     1      -0.645   2.781   5.322  0.00  0.00    +0.000 A 
ATOM     68  C   UNL     1      -0.228   1.553   4.859  0.00  0.00    +0.000 A 
ATOM     69  C   UNL     1       0.390   1.438   3.632  0.00  0.00    +0.000 A 
ATOM     70  C   UNL     1       0.539   2.537   2.847  0.00  0.00    +0.000 A 
BRANCH  68  71
ATOM     71  O   UNL     1      -0.371   0.399   5.559  0.00  0.00    +0.000 OA
ATOM     72  H   UNL     1      -0.809   0.489   6.419  0.00  0.00    +0.000 HD
ENDBRANCH  68  71
ENDBRANCH  64  65
ENDBRANCH  10  64
BRANCH  14  73
ATOM     73  C   UNL     1       2.561   7.107  -0.050  0.00  0.00    +0.000 C 
BRANCH  73  74
ATOM     74  C   UNL     1       1.485   6.901  -1.753  0.00  0.00    +0.000 A 
ATOM     75  C   UNL     1       1.978   7.977  -2.288  0.00  0.00    +0.000 A 
ATOM     76  C   UNL     1       1.132   8.223  -3.234  0.00  0.00    +0.000 A 
ATOM     77  C   UNL     1       0.490   7.274  -3.997  0.00  0.00    +0.000 A 
ATOM     78  C   UNL     1       0.467   5.971  -3.642  0.00  0.00    +0.000 A 
ATOM     79  C   UNL     1       1.096   5.642  -2.563  0.00  0.00    +0.000 A 
ENDBRANCH  73  74
ENDBRANCH  14  73
BRANCH  18  80
ATOM     80  C   UNL     1       5.940   5.006   1.353  0.00  0.00    +0.000 C 
BRANCH  80  81
ATOM     81  C   UNL     1       6.707   5.988   2.112  0.00  0.00    +0.000 C 
ATOM     82  N   UNL     1       5.926   6.859   2.716  0.00  0.00    +0.000 N 
ATOM     83  O   UNL     1       7.908   5.989   2.195  0.00  0.00    +0.000 OA
ATOM     84  H   UNL     1       4.861   6.882   2.422  0.00  0.00    +0.000 HD
ATOM     85  H   UNL     1       6.206   7.683   3.197  0.00  0.00    +0.000 HD
ENDBRANCH  80  81
ENDBRANCH  18  80
BRANCH  22  86
ATOM     86  C   UNL     1       6.926   2.104  -1.080  0.00  0.00    +0.000 C 
BRANCH  86  87
ATOM     87  C   UNL     1       6.306   0.850  -1.061  0.00  0.00    +0.000 C 
ATOM     88  N   UNL     1       5.210   0.882  -0.262  0.00  0.00    +0.000 N 
ATOM     89  O   UNL     1       6.690  -0.139  -1.651  0.00  0.00    +0.000 OA
ATOM     90  H   UNL     1       4.846   1.734   0.164  0.00  0.00    +0.000 HD
ATOM     91  H   UNL     1       4.710   0.043  -0.082  0.00  0.00    +0.000 HD
ENDBRANCH  86  87
ENDBRANCH  22  86
TORSDOF 19
