REMARK  Name = CHEMBL1093365
REMARK  10 active torsions:
REMARK  status: ('A' for Active; 'I' for Inactive)
REMARK    1  A    between atoms: C_1  and  O_2
REMARK    2  A    between atoms: O_2  and  C_3
REMARK    3  A    between atoms: C_3  and  C_4
REMARK    4  A    between atoms: C_4  and  N_5
REMARK    5  A    between atoms: N_5  and  C_21
REMARK    6  A    between atoms: C_6  and  C_8
REMARK    7  A    between atoms: C_11  and  C_12
REMARK    8  A    between atoms: C_17  and  C_18
REMARK    9  A    between atoms: C_24  and  O_25
REMARK   10  A    between atoms: O_25  and  C_26
REMARK                            x       y       z     vdW  Elec       q    Type
REMARK                         _______ _______ _______ _____ _____    ______ ____
ROOT
ATOM      1  N   UNL     1       4.878   1.277   2.340  0.00  0.00    +0.000 N 
ATOM      2  C   UNL     1       4.018   1.751   3.396  0.00  0.00    +0.000 C 
ATOM      3  O   UNL     1       4.443   2.328   4.391  0.00  0.00    +0.000 OA
ENDROOT
BRANCH   2   4
ATOM      4  C   UNL     1       2.526   1.620   3.357  0.00  0.00    +0.000 A 
ATOM      5  C   UNL     1       1.917   0.383   3.317  0.00  0.00    +0.000 A 
ATOM      6  N   UNL     1       0.619   0.231   2.944  0.00  0.00    +0.000 NA
ATOM      7  C   UNL     1      -0.131   1.355   2.802  0.00  0.00    +0.000 A 
ATOM      8  C   UNL     1       0.450   2.591   3.050  0.00  0.00    +0.000 A 
ATOM      9  N   UNL     1       1.786   2.761   3.275  0.00  0.00    +0.000 NA
BRANCH   7  10
ATOM     10  C   UNL     1      -1.562   1.169   2.481  0.00  0.00    +0.000 A 
ATOM     11  C   UNL     1      -2.213   1.968   1.512  0.00  0.00    +0.000 A 
ATOM     12  C   UNL     1      -3.589   1.853   1.278  0.00  0.00    +0.000 A 
ATOM     13  C   UNL     1      -4.341   0.927   1.992  0.00  0.00    +0.000 A 
ATOM     14  C   UNL     1      -3.718   0.103   2.926  0.00  0.00    +0.000 A 
ATOM     15  C   UNL     1      -2.340   0.209   3.173  0.00  0.00    +0.000 A 
ATOM     16  C   UNL     1      -1.719  -0.686   4.215  0.00  0.00    +0.000 C 
ENDBRANCH   7  10
ENDBRANCH   2   4
BRANCH   1  17
ATOM     17  C   UNL     1       6.315   1.385   2.561  0.00  0.00    +0.000 A 
ATOM     18  C   UNL     1       7.191   1.748   1.537  0.00  0.00    +0.000 A 
ATOM     19  C   UNL     1       8.563   1.888   1.781  0.00  0.00    +0.000 A 
ATOM     20  C   UNL     1       9.061   1.629   3.047  0.00  0.00    +0.000 A 
ATOM     21  N   UNL     1       8.256   1.233   4.053  0.00  0.00    +0.000 NA
ATOM     22  C   UNL     1       6.918   1.140   3.797  0.00  0.00    +0.000 A 
BRANCH  20  23
ATOM     23  O   UNL     1      10.377   1.748   3.405  0.00  0.00    +0.000 OA
ATOM     24  C   UNL     1      11.273   2.201   2.397  0.00  0.00    +0.000 C 
ENDBRANCH  20  23
ENDBRANCH   1  17
BRANCH   1  25
ATOM     25  C   UNL     1       4.507   0.676   0.993  0.00  0.00    +0.000 C 
BRANCH  25  26
ATOM     26  C   UNL     1       3.026   0.614   0.686  0.00  0.00    +0.000 C 
BRANCH  26  28
ATOM     27  C   UNL     1       1.085  -0.071  -0.326  0.00  0.00    +0.000 C 
ATOM     28  O   UNL     1       2.516   0.060  -0.516  0.00  0.00    +0.000 OA
ENDBRANCH  26  28
ENDBRANCH  25  26
ENDBRANCH   1  25
TORSDOF 7
