REMARK  Name = CHEMBL1790728
REMARK  25 active torsions:
REMARK  status: ('A' for Active; 'I' for Inactive)
REMARK    1  A    between atoms: C_1  and  C_2
REMARK    2  A    between atoms: C_2  and  C_3
REMARK    3  A    between atoms: C_3  and  C_4
REMARK    4  A    between atoms: C_3  and  C_5
REMARK    5  A    between atoms: C_9  and  C_10
REMARK    6  A    between atoms: C_13  and  O_14
REMARK    7  A    between atoms: C_25  and  C_26
REMARK    8  A    between atoms: C_32  and  C_33
REMARK    9  A    between atoms: N_35  and  C_36
REMARK   10  A    between atoms: C_36  and  C_37
REMARK   11  A    between atoms: C_36  and  C_69
REMARK   12  A    between atoms: C_37  and  C_38
REMARK   13  A    between atoms: C_38  and  C_39
REMARK   14  A    between atoms: C_39  and  C_40
REMARK   15  A    between atoms: C_40  and  N_41
REMARK   16  A    between atoms: C_42  and  C_44
REMARK   17  A    between atoms: C_57  and  O_58
REMARK   18  A    between atoms: C_64  and  O_65
REMARK   19  A    between atoms: N_71  and  C_72
REMARK   20  A    between atoms: C_72  and  N_73
REMARK   21  A    between atoms: C_77  and  C_78
REMARK   22  A    between atoms: C_78  and  C_79
REMARK   23  A    between atoms: C_85  and  C_86
REMARK   24  A    between atoms: C_86  and  C_87
REMARK   25  A    between atoms: C_86  and  O_88
REMARK                            x       y       z     vdW  Elec       q    Type
REMARK                         _______ _______ _______ _____ _____    ______ ____
ROOT
ATOM      1  C   UNL     1      -2.473  -4.880   1.248  0.00  0.00    +0.000 C 
ATOM      2  O   UNL     1      -2.342  -5.968   0.685  0.00  0.00    +0.000 OA
ATOM      3  N   UNL     1      -2.742  -3.761   0.539  0.00  0.00    +0.000 N 
ATOM      4  C   UNL     1      -2.509  -2.377   0.913  0.00  0.00    +0.000 C 
ATOM      5  C   UNL     1      -3.790  -1.774   0.498  0.00  0.00    +0.000 C 
ATOM      6  C   UNL     1      -3.994  -2.444  -0.848  0.00  0.00    +0.000 C 
ATOM      7  C   UNL     1      -3.407  -3.869  -0.740  0.00  0.00    +0.000 C 
ENDROOT
BRANCH   1  21
ATOM      8  C   UNL     1       4.806  -2.524   1.277  0.00  0.00    +0.000 C 
ATOM      9  N   UNL     1       4.657  -4.098   2.414  0.00  0.00    +0.000 N 
ATOM     10  C   UNL     1       4.430  -5.588   2.846  0.00  0.00    +0.000 C 
ATOM     11  O   UNL     1       4.153  -5.757   4.072  0.00  0.00    +0.000 OA
ATOM     12  C   UNL     1       4.800  -7.052   2.029  0.00  0.00    +0.000 C 
ATOM     13  N   UNL     1       5.431  -8.284   2.797  0.00  0.00    +0.000 N 
ATOM     14  C   UNL     1       4.930  -9.409   3.458  0.00  0.00    +0.000 C 
ATOM     15  O   UNL     1       5.682 -10.367   3.690  0.00  0.00    +0.000 OA
ATOM     16  C   UNL     1       3.483  -9.576   3.874  0.00  0.00    +0.000 C 
ATOM     17  C   UNL     1       2.618  -8.482   3.424  0.00  0.00    +0.000 C 
ATOM     18  S   UNL     1       1.177  -8.417   4.351  0.00  0.00    +0.000 S 
ATOM     19  S   UNL     1       0.883  -6.037   4.004  0.00  0.00    +0.000 S 
ATOM     20  C   UNL     1      -1.594  -5.604   3.583  0.00  0.00    +0.000 C 
ATOM     21  C   UNL     1      -2.256  -4.636   2.774  0.00  0.00    +0.000 C 
ATOM     22  N   UNL     1      -1.537  -3.533   3.179  0.00  0.00    +0.000 N 
ATOM     23  C   UNL     1      -0.334  -3.304   2.604  0.00  0.00    +0.000 C 
ATOM     24  O   UNL     1       0.043  -2.129   2.713  0.00  0.00    +0.000 OA
ATOM     25  C   UNL     1       0.581  -4.501   2.096  0.00  0.00    +0.000 C 
ATOM     26  N   UNL     1       1.323  -3.906   1.085  0.00  0.00    +0.000 N 
ATOM     27  C   UNL     1       2.170  -2.894   1.374  0.00  0.00    +0.000 C 
ATOM     28  O   UNL     1       2.519  -2.374   0.305  0.00  0.00    +0.000 OA
ATOM     29  C   UNL     1       2.624  -2.369   3.025  0.00  0.00    +0.000 C 
ATOM     30  N   UNL     1       4.141  -2.023   3.454  0.00  0.00    +0.000 N 
ATOM     31  C   UNL     1       5.250  -2.012   2.587  0.00  0.00    +0.000 C 
ATOM     32  O   UNL     1       6.436  -1.971   2.886  0.00  0.00    +0.000 OA
ATOM     33  H   UNL     1       4.823  -3.992   3.433  0.00  0.00    +0.000 HD
ATOM     34  H   UNL     1       6.379  -8.491   2.494  0.00  0.00    +0.000 HD
ATOM     35  H   UNL     1      -1.884  -3.000   3.961  0.00  0.00    +0.000 HD
ATOM     36  H   UNL     1       1.179  -4.153   0.125  0.00  0.00    +0.000 HD
ATOM     37  H   UNL     1       4.432  -2.737   4.084  0.00  0.00    +0.000 HD
BRANCH  12  38
ATOM     38  C   UNL     1       3.770  -7.636   1.032  0.00  0.00    +0.000 A 
ATOM     39  C   UNL     1       2.778  -6.802   0.562  0.00  0.00    +0.000 A 
ATOM     40  C   UNL     1       1.722  -7.298  -0.226  0.00  0.00    +0.000 A 
ATOM     41  C   UNL     1       1.531  -8.657  -0.410  0.00  0.00    +0.000 A 
ATOM     42  C   UNL     1       2.454  -9.539   0.096  0.00  0.00    +0.000 A 
ATOM     43  C   UNL     1       3.600  -9.036   0.739  0.00  0.00    +0.000 A 
BRANCH  41  44
ATOM     44  O   UNL     1       0.473  -9.165  -1.095  0.00  0.00    +0.000 OA
ATOM     45  H   UNL     1      -0.111  -8.451  -1.397  0.00  0.00    +0.000 HD
ENDBRANCH  41  44
ENDBRANCH  12  38
BRANCH   8  46
ATOM     46  C   UNL     1       5.181  -0.747   0.546  0.00  0.00    +0.000 C 
ATOM     47  C   UNL     1       6.647  -0.269   0.511  0.00  0.00    +0.000 C 
BRANCH  46  49
ATOM     48  C   UNL     1       5.158  -1.696  -1.735  0.00  0.00    +0.000 C 
ATOM     49  C   UNL     1       4.716  -0.459  -1.036  0.00  0.00    +0.000 C 
ENDBRANCH  46  49
ENDBRANCH   8  46
BRANCH  29  50
ATOM     50  C   UNL     1       2.064  -3.269   4.228  0.00  0.00    +0.000 C 
ATOM     51  C   UNL     1       2.483  -2.816   5.563  0.00  0.00    +0.000 C 
BRANCH  50  52
ATOM     52  O   UNL     1       0.686  -3.409   4.612  0.00  0.00    +0.000 OA
ATOM     53  H   UNL     1       0.241  -2.554   4.463  0.00  0.00    +0.000 HD
ENDBRANCH  50  52
ENDBRANCH  29  50
BRANCH  25  54
ATOM     54  C   UNL     1      -0.127  -5.948   1.830  0.00  0.00    +0.000 C 
BRANCH  54  55
ATOM     55  C   UNL     1      -0.787  -7.417   3.041  0.00  0.00    +0.000 C 
ATOM     56  N   UNL     1      -0.854  -6.949   4.835  0.00  0.00    +0.000 N 
ATOM     57  O   UNL     1      -1.384  -8.370   2.676  0.00  0.00    +0.000 OA
ATOM     58  H   UNL     1      -0.280  -5.943   4.957  0.00  0.00    +0.000 HD
ATOM     59  H   UNL     1      -0.908  -7.151   5.793  0.00  0.00    +0.000 HD
ENDBRANCH  54  55
ENDBRANCH  25  54
ENDBRANCH   1  21
BRANCH   7  60
ATOM     60  C   UNL     1      -4.484  -4.970  -0.833  0.00  0.00    +0.000 C 
ATOM     61  O   UNL     1      -4.325  -6.141  -0.514  0.00  0.00    +0.000 OA
ATOM     62  N   UNL     1      -5.677  -4.515  -1.309  0.00  0.00    +0.000 N 
ATOM     63  H   UNL     1      -5.669  -3.707  -1.911  0.00  0.00    +0.000 HD
BRANCH  62  64
ATOM     64  C   UNL     1      -6.967  -5.165  -1.197  0.00  0.00    +0.000 C 
BRANCH  64  65
ATOM     65  C   UNL     1      -7.986  -4.246  -1.951  0.00  0.00    +0.000 C 
ATOM     66  O   UNL     1      -7.624  -3.171  -2.442  0.00  0.00    +0.000 OA
ATOM     67  N   UNL     1      -9.291  -4.693  -2.046  0.00  0.00    +0.000 N 
ATOM     68  H   UNL     1      -9.583  -5.552  -1.607  0.00  0.00    +0.000 HD
BRANCH  67  69
ATOM     69  C   UNL     1     -10.288  -3.904  -2.708  0.00  0.00    +0.000 C 
BRANCH  69  70
ATOM     70  N   UNL     1     -11.545  -4.611  -2.615  0.00  0.00    +0.000 NA
ATOM     71  H   UNL     1     -11.505  -5.476  -3.149  0.00  0.00    +0.000 HD
ATOM     72  H   UNL     1     -12.252  -4.051  -3.102  0.00  0.00    +0.000 HD
ENDBRANCH  69  70
ENDBRANCH  67  69
ENDBRANCH  64  65
BRANCH  64  73
ATOM     73  C   UNL     1      -7.374  -5.313   0.274  0.00  0.00    +0.000 C 
BRANCH  73  74
ATOM     74  C   UNL     1      -6.388  -6.153   1.086  0.00  0.00    +0.000 C 
BRANCH  74  75
ATOM     75  C   UNL     1      -6.774  -6.374   2.530  0.00  0.00    +0.000 C 
BRANCH  75  76
ATOM     76  C   UNL     1      -5.715  -7.206   3.286  0.00  0.00    +0.000 C 
BRANCH  76  77
ATOM     77  N   UNL     1      -6.037  -7.374   4.770  0.00  0.00    +0.000 N 
ATOM     78  C   UNL     1      -5.158  -8.115   5.617  0.00  0.00    +0.000 C 
ATOM     79  O   UNL     1      -4.198  -8.618   5.010  0.00  0.00    +0.000 OA
ATOM     80  H   UNL     1      -6.931  -6.999   5.041  0.00  0.00    +0.000 HD
BRANCH  78  81
ATOM     81  C   UNL     1      -5.132  -8.530   7.173  0.00  0.00    +0.000 A 
ATOM     82  C   UNL     1      -4.570  -9.738   7.309  0.00  0.00    +0.000 A 
ATOM     83  C   UNL     1      -5.010 -10.504   8.365  0.00  0.00    +0.000 A 
ATOM     84  C   UNL     1      -4.273 -10.227   9.431  0.00  0.00    +0.000 A 
ATOM     85  C   UNL     1      -4.651  -9.083   9.989  0.00  0.00    +0.000 A 
ATOM     86  C   UNL     1      -5.306  -8.206   8.578  0.00  0.00    +0.000 A 
ATOM     87  C   UNL     1      -4.827 -10.425  11.414  0.00  0.00    +0.000 C 
ATOM     88  O   UNL     1      -3.327 -10.410  11.294  0.00  0.00    +0.000 OA
ATOM     89  C   UNL     1      -3.045 -10.592   9.966  0.00  0.00    +0.000 C 
ATOM     90  O   UNL     1      -2.084 -10.738   9.245  0.00  0.00    +0.000 OA
ATOM     91  C   UNL     1      -4.721 -10.828  13.253  0.00  0.00    +0.000 A 
ATOM     92  C   UNL     1      -4.683 -12.085  14.113  0.00  0.00    +0.000 A 
ATOM     93  C   UNL     1      -5.264 -12.201  15.523  0.00  0.00    +0.000 A 
ATOM     94  C   UNL     1      -5.906 -11.116  16.090  0.00  0.00    +0.000 A 
ATOM     95  C   UNL     1      -5.859  -9.941  15.359  0.00  0.00    +0.000 A 
ATOM     96  C   UNL     1      -5.230  -9.812  14.068  0.00  0.00    +0.000 A 
ATOM     97  O   UNL     1      -5.218  -8.562  13.531  0.00  0.00    +0.000 OA
ATOM     98  C   UNL     1      -5.947  -8.536  12.388  0.00  0.00    +0.000 A 
ATOM     99  C   UNL     1      -5.999  -7.356  11.709  0.00  0.00    +0.000 A 
ATOM    100  C   UNL     1      -6.783  -7.326  10.574  0.00  0.00    +0.000 A 
ATOM    101  C   UNL     1      -7.502  -8.543  10.137  0.00  0.00    +0.000 A 
ATOM    102  C   UNL     1      -7.216  -9.794  10.721  0.00  0.00    +0.000 A 
ATOM    103  C   UNL     1      -6.211  -9.714  11.685  0.00  0.00    +0.000 A 
BRANCH 100 104
ATOM    104  O   UNL     1      -6.528  -6.248   9.711  0.00  0.00    +0.000 OA
ATOM    105  H   UNL     1      -5.679  -5.783   9.913  0.00  0.00    +0.000 HD
ENDBRANCH 100 104
BRANCH  94 106
ATOM    106  O   UNL     1      -6.576 -11.072  17.283  0.00  0.00    +0.000 OA
ATOM    107  H   UNL     1      -6.558 -11.902  17.789  0.00  0.00    +0.000 HD
ENDBRANCH  94 106
ENDBRANCH  78  81
ENDBRANCH  76  77
ENDBRANCH  75  76
ENDBRANCH  74  75
ENDBRANCH  73  74
ENDBRANCH  64  73
ENDBRANCH  62  64
ENDBRANCH   7  60
TORSDOF 22
