REMARK  Name = CHEMBL194922
REMARK  12 active torsions:
REMARK  status: ('A' for Active; 'I' for Inactive)
REMARK    1  A    between atoms: C_1  and  C_2
REMARK    2  A    between atoms: C_5  and  C_6
REMARK    3  A    between atoms: C_6  and  C_7
REMARK    4  A    between atoms: C_6  and  N_13
REMARK    5  A    between atoms: N_9  and  C_10
REMARK    6  A    between atoms: C_10  and  C_11
REMARK    7  A    between atoms: C_10  and  C_12
REMARK    8  A    between atoms: C_16  and  C_17
REMARK    9  A    between atoms: CA_29  and  CB_30
REMARK   10  A    between atoms: CB_30  and  CG_31
REMARK   11  A    between atoms: CG_31  and  CD1_32
REMARK   12  A    between atoms: CG_31  and  CD2_33
REMARK                            x       y       z     vdW  Elec       q    Type
REMARK                         _______ _______ _______ _____ _____    ______ ____
ROOT
ATOM      1  N   LEU A   1      -3.929   1.404   0.104  0.00  0.00    +0.000 N 
ATOM      2  C   UNK A   2      -3.354   2.265  -0.756  0.00  0.00    +0.000 C 
ATOM      3  O   UNK A   2      -2.354   1.890  -1.419  0.00  0.00    +0.000 OA
ATOM      4  C   UNK A   2      -3.776   3.725  -0.849  0.00  0.00    +0.000 C 
ATOM      5  N   UNK A   2      -5.165   3.808  -0.523  0.00  0.00    +0.000 N 
ATOM      6  C   LEU A   1      -5.375   3.448   0.770  0.00  0.00    +0.000 C 
ATOM      7  O   LEU A   1      -6.100   4.150   1.470  0.00  0.00    +0.000 OA
ATOM      8  CA  LEU A   1      -4.587   2.153   1.200  0.00  0.00    +0.000 C 
ATOM      9  H   UNK A   2      -5.741   4.572  -0.856  0.00  0.00    +0.000 HD
ENDROOT
BRANCH   4  10
ATOM     10  C   UNK A   2      -3.518   3.914  -2.272  0.00  0.00    +0.000 C 
ATOM     11  C   UNK A   2      -1.998   4.229  -2.781  0.00  0.00    +0.000 C 
ATOM     12  C   UNK A   2      -1.774   3.134  -3.754  0.00  0.00    +0.000 A 
ATOM     13  C   UNK A   2      -0.561   2.403  -3.806  0.00  0.00    +0.000 A 
ATOM     14  C   UNK A   2      -0.571   1.025  -3.874  0.00  0.00    +0.000 A 
ATOM     15  C   UNK A   2      -1.824   0.433  -3.731  0.00  0.00    +0.000 A 
ATOM     16  C   UNK A   2      -3.080   1.275  -3.746  0.00  0.00    +0.000 A 
ATOM     17  C   UNK A   2      -3.079   2.745  -4.030  0.00  0.00    +0.000 A 
ATOM     18  C   UNK A   2      -4.021   4.267  -3.558  0.00  0.00    +0.000 C 
ENDBRANCH   4  10
BRANCH   1  19
ATOM     19  C   UNK A   0      -3.265  -0.003   0.190  0.00  0.00    +0.000 C 
BRANCH  19  24
ATOM     20  C   UNK A   0       2.569  -0.019  -0.025  0.00  0.00    +0.000 C 
ATOM     21  C   UNK A   0       1.085  -0.039   0.030  0.00  0.00    +0.000 A 
ATOM     22  C   UNK A   0       0.368  -1.231  -0.012  0.00  0.00    +0.000 A 
ATOM     23  C   UNK A   0      -1.018  -1.207  -0.018  0.00  0.00    +0.000 A 
ATOM     24  C   UNK A   0      -1.714  -0.010   0.197  0.00  0.00    +0.000 A 
ATOM     25  C   UNK A   0      -0.944   1.151   0.379  0.00  0.00    +0.000 A 
ATOM     26  C   UNK A   0       0.415   1.164   0.150  0.00  0.00    +0.000 A 
ENDBRANCH  19  24
BRANCH  19  27
ATOM     27  C   UNK A   0      -3.628  -0.899   1.398  0.00  0.00    +0.000 C 
ATOM     28  O   UNK A   0      -3.793  -0.418   2.518  0.00  0.00    +0.000 OA
ATOM     29  N   UNK A   0      -3.635  -2.271   1.327  0.00  0.00    +0.000 N 
ATOM     30  H   UNK A   0      -3.032  -2.773   0.692  0.00  0.00    +0.000 HD
BRANCH  29  31
ATOM     31  C   UNK A   0      -4.050  -2.933   2.553  0.00  0.00    +0.000 C 
ATOM     32  C   UNK A   0      -5.572  -2.896   2.600  0.00  0.00    +0.000 C 
ATOM     33  C   UNK A   0      -3.511  -4.338   2.619  0.00  0.00    +0.000 C 
ENDBRANCH  29  31
ENDBRANCH  19  27
ENDBRANCH   1  19
BRANCH   8  34
ATOM     34  CB  LEU A   1      -5.511   1.243   1.939  0.00  0.00    +0.000 C 
BRANCH  34  35
ATOM     35  CG  LEU A   1      -6.900   1.649   2.297  0.00  0.00    +0.000 C 
ATOM     36  CD1 LEU A   1      -7.745   1.829   1.038  0.00  0.00    +0.000 C 
ATOM     37  CD2 LEU A   1      -7.485   0.518   3.128  0.00  0.00    +0.000 C 
ENDBRANCH  34  35
ENDBRANCH   8  34
TORSDOF 7
