REMARK  Name = CHEMBL265070
REMARK  7 active torsions:
REMARK  status: ('A' for Active; 'I' for Inactive)
REMARK    1  A    between atoms: C_1  and  O_2
REMARK    2  A    between atoms: O_2  and  C_3
REMARK    3  A    between atoms: C_5  and  O_6
REMARK    4  A    between atoms: O_6  and  C_7
REMARK    5  A    between atoms: N_10  and  C_11
REMARK    6  A    between atoms: C_27  and  C_28
REMARK    7  A    between atoms: C_33  and  N_34
REMARK                            x       y       z     vdW  Elec       q    Type
REMARK                         _______ _______ _______ _____ _____    ______ ____
ROOT
ATOM      1  C   UNL     1       2.625   0.330   0.809  0.00  0.00    +0.000 A 
ATOM      2  C   UNL     1       2.189   0.453   2.217  0.00  0.00    +0.000 A 
ATOM      3  C   UNL     1       2.745   1.372   3.053  0.00  0.00    +0.000 A 
ATOM      4  C   UNL     1       3.500   2.174   2.291  0.00  0.00    +0.000 A 
ATOM      5  F   UNL     1       4.557   2.448   2.953  0.00  0.00    +0.000 F 
ATOM      6  C   UNL     1       3.718   2.275   0.917  0.00  0.00    +0.000 A 
ATOM      7  C   UNL     1       3.526   1.183   0.196  0.00  0.00    +0.000 A 
ENDROOT
BRANCH   7   8
ATOM      8  C   UNL     1       4.401   1.213  -1.053  0.00  0.00    +0.000 C 
ATOM      9  O   UNL     1       5.492   1.765  -1.189  0.00  0.00    +0.000 OA
ATOM     10  N   UNL     1       3.813   0.692  -2.122  0.00  0.00    +0.000 N 
ATOM     11  C   UNL     1       4.470  -0.375  -2.828  0.00  0.00    +0.000 C 
ATOM     12  C   UNL     1       4.382  -0.076  -4.297  0.00  0.00    +0.000 C 
ATOM     13  C   UNL     1       2.922   0.266  -4.682  0.00  0.00    +0.000 C 
ATOM     14  C   UNL     1       2.386   1.461  -3.883  0.00  0.00    +0.000 C 
ATOM     15  C   UNL     1       2.506   1.185  -2.429  0.00  0.00    +0.000 C 
BRANCH  13  16
ATOM     16  N   UNL     1       2.057  -0.957  -4.657  0.00  0.00    +0.000 N 
ATOM     17  C   UNL     1       1.862  -1.774  -3.533  0.00  0.00    +0.000 C 
ATOM     18  O   UNL     1       1.501  -1.470  -2.436  0.00  0.00    +0.000 OA
ATOM     19  O   UNL     1       2.090  -3.088  -3.800  0.00  0.00    +0.000 OA
ATOM     20  C   UNL     1       1.000  -3.561  -4.549  0.00  0.00    +0.000 C 
ATOM     21  C   UNL     1       0.835  -2.710  -5.772  0.00  0.00    +0.000 A 
ATOM     22  C   UNL     1       0.105  -3.210  -6.842  0.00  0.00    +0.000 A 
ATOM     23  C   UNL     1      -0.066  -2.427  -7.973  0.00  0.00    +0.000 A 
ATOM     24  C   UNL     1       0.475  -1.143  -8.027  0.00  0.00    +0.000 A 
ATOM     25  C   UNL     1       1.203  -0.632  -6.955  0.00  0.00    +0.000 A 
ATOM     26  C   UNL     1       1.395  -1.416  -5.821  0.00  0.00    +0.000 A 
ENDBRANCH  13  16
ENDBRANCH   7   8
BRANCH   1  28
ATOM     27  C   UNL     1       0.654  -0.208  -0.008  0.00  0.00    +0.000 C 
ATOM     28  O   UNL     1       2.022  -0.608   0.042  0.00  0.00    +0.000 OA
ENDBRANCH   1  28
BRANCH   3  29
ATOM     29  O   UNL     1       2.730   1.416   4.424  0.00  0.00    +0.000 OA
BRANCH  29  30
ATOM     30  C   UNL     1       3.603   2.234   5.360  0.00  0.00    +0.000 C 
ATOM     31  C   UNL     1       3.732   3.774   5.197  0.00  0.00    +0.000 C 
ATOM     32  C   UNL     1       4.734   4.224   4.125  0.00  0.00    +0.000 C 
ATOM     33  N   UNL     1       6.072   3.460   4.179  0.00  0.00    +0.000 NA
ATOM     34  C   UNL     1       6.002   2.018   4.629  0.00  0.00    +0.000 C 
ATOM     35  C   UNL     1       5.000   1.656   5.699  0.00  0.00    +0.000 C 
BRANCH  33  36
ATOM     36  C   UNL     1       6.854   3.597   2.875  0.00  0.00    +0.000 C 
ATOM     37  C   UNL     1       6.286   3.045   1.593  0.00  0.00    +0.000 C 
ATOM     38  C   UNL     1       6.285   1.433   1.549  0.00  0.00    +0.000 C 
ATOM     39  C   UNL     1       7.641   0.944   1.297  0.00  0.00    +0.000 C 
ATOM     40  C   UNL     1       8.531   1.732   2.173  0.00  0.00    +0.000 A 
ATOM     41  C   UNL     1       8.214   2.956   2.861  0.00  0.00    +0.000 A 
ATOM     42  C   UNL     1       9.180   3.625   3.566  0.00  0.00    +0.000 A 
ATOM     43  C   UNL     1      10.427   3.055   3.644  0.00  0.00    +0.000 A 
ATOM     44  C   UNL     1      10.700   1.835   3.022  0.00  0.00    +0.000 A 
ATOM     45  N   UNL     1       9.769   1.167   2.280  0.00  0.00    +0.000 N 
ATOM     46  O   UNL     1      10.056   0.056   1.732  0.00  0.00    +0.000 OA
ENDBRANCH  33  36
ENDBRANCH  29  30
ENDBRANCH   3  29
TORSDOF 6
