REMARK  Name = CHEMBL520595
REMARK  6 active torsions:
REMARK  status: ('A' for Active; 'I' for Inactive)
REMARK    1  A    between atoms: C_2  and  C_3
REMARK    2  A    between atoms: C_6  and  C_7
REMARK    3  A    between atoms: N_15  and  C_16
REMARK    4  A    between atoms: N_15  and  C_23
REMARK    5  A    between atoms: C_16  and  C_17
REMARK    6  A    between atoms: C_23  and  C_24
REMARK                            x       y       z     vdW  Elec       q    Type
REMARK                         _______ _______ _______ _____ _____    ______ ____
ROOT
ATOM      1  O   UNL     1       1.046  -0.028  -0.316  0.00  0.00    +0.000 OA
ATOM      2  C   UNL     1       2.265  -0.052  -0.124  0.00  0.00    +0.000 C 
ATOM      3  N   UNL     1       2.916  -0.272   1.099  0.00  0.00    +0.000 N 
ENDROOT
BRANCH   2   4
ATOM      4  C   UNL     1       3.015   0.216  -1.350  0.00  0.00    +0.000 A 
ATOM      5  C   UNL     1       2.601   1.254  -2.188  0.00  0.00    +0.000 A 
ATOM      6  C   UNL     1       3.265   1.454  -3.388  0.00  0.00    +0.000 A 
ATOM      7  C   UNL     1       4.318   0.605  -3.716  0.00  0.00    +0.000 A 
ATOM      8  N   UNL     1       4.695  -0.441  -2.940  0.00  0.00    +0.000 NA
ATOM      9  C   UNL     1       4.012  -0.630  -1.794  0.00  0.00    +0.000 A 
BRANCH   7  10
ATOM     10  C   UNL     1       5.125   0.816  -4.910  0.00  0.00    +0.000 A 
ATOM     11  C   UNL     1       5.289  -0.201  -5.861  0.00  0.00    +0.000 A 
ATOM     12  C   UNL     1       6.144  -0.019  -6.947  0.00  0.00    +0.000 A 
ATOM     13  C   UNL     1       6.787   1.205  -7.129  0.00  0.00    +0.000 A 
ATOM     14  C   UNL     1       6.611   2.234  -6.207  0.00  0.00    +0.000 A 
ATOM     15  C   UNL     1       5.792   2.036  -5.100  0.00  0.00    +0.000 A 
ENDBRANCH   7  10
ENDBRANCH   2   4
BRANCH   3  16
ATOM     16  C   UNL     1       2.155  -0.484   2.338  0.00  0.00    +0.000 C 
BRANCH  16  17
ATOM     17  C   UNL     1       0.664  -0.453   2.263  0.00  0.00    +0.000 A 
ATOM     18  C   UNL     1      -0.010   0.776   2.198  0.00  0.00    +0.000 A 
ATOM     19  C   UNL     1      -1.392   0.802   2.073  0.00  0.00    +0.000 A 
ATOM     20  C   UNL     1      -2.096  -0.397   1.961  0.00  0.00    +0.000 A 
ATOM     21  C   UNL     1      -1.427  -1.621   2.005  0.00  0.00    +0.000 A 
ATOM     22  C   UNL     1      -0.048  -1.652   2.161  0.00  0.00    +0.000 A 
ENDBRANCH  16  17
ENDBRANCH   3  16
BRANCH   3  23
ATOM     23  C   UNL     1       4.388  -0.224   1.245  0.00  0.00    +0.000 C 
BRANCH  23  24
ATOM     24  C   UNL     1       4.971  -0.497   2.641  0.00  0.00    +0.000 C 
ATOM     25  C   UNL     1       6.357   0.084   2.829  0.00  0.00    +0.000 C 
ATOM     26  C   UNL     1       6.967  -0.876   3.816  0.00  0.00    +0.000 C 
ATOM     27  C   UNL     1       6.364  -2.204   3.414  0.00  0.00    +0.000 C 
ATOM     28  O   UNL     1       5.080  -1.919   2.847  0.00  0.00    +0.000 OA
ENDBRANCH  23  24
ENDBRANCH   3  23
TORSDOF 6
