REMARK  Name = CHEMBL403477
REMARK  12 active torsions:
REMARK  status: ('A' for Active; 'I' for Inactive)
REMARK    1  A    between atoms: C_1  and  C_2
REMARK    2  A    between atoms: C_4  and  C_5
REMARK    3  A    between atoms: C_5  and  C_6
REMARK    4  A    between atoms: C_5  and  N_11
REMARK    5  A    between atoms: N_8  and  C_9
REMARK    6  A    between atoms: N_8  and  C_10
REMARK    7  A    between atoms: C_14  and  C_15
REMARK    8  A    between atoms: CA_27  and  CB_28
REMARK    9  A    between atoms: CB_28  and  CG_29
REMARK   10  A    between atoms: CG_29  and  CD1_30
REMARK   11  A    between atoms: CG_29  and  CD2_31
REMARK   12  A    between atoms: C_32  and  C_33
REMARK                            x       y       z     vdW  Elec       q    Type
REMARK                         _______ _______ _______ _____ _____    ______ ____
ROOT
ATOM      1  N   LEU A   1       7.727   0.094  -0.082  0.00  0.00    +0.000 N 
ATOM      2  C   UNK A   2       7.762  -0.601  -1.289  0.00  0.00    +0.000 C 
ATOM      3  O   UNK A   2       6.984  -0.320  -2.205  0.00  0.00    +0.000 OA
ATOM      4  C   UNK A   2       8.615  -1.903  -1.274  0.00  0.00    +0.000 C 
ATOM      5  N   UNK A   2       9.888  -1.540  -0.721  0.00  0.00    +0.000 N 
ATOM      6  C   LEU A   1       9.840  -1.215   0.599  0.00  0.00    +0.000 C 
ATOM      7  O   LEU A   1      10.761  -1.592   1.342  0.00  0.00    +0.000 OA
ATOM      8  CA  LEU A   1       8.593  -0.395   1.041  0.00  0.00    +0.000 C 
ATOM      9  H   UNK A   2      10.731  -2.028  -1.001  0.00  0.00    +0.000 HD
ENDROOT
BRANCH   4  10
ATOM     10  C   UNK A   2       8.743  -2.546  -2.626  0.00  0.00    +0.000 C 
ATOM     11  C   UNK A   2       7.423  -3.128  -3.181  0.00  0.00    +0.000 C 
ATOM     12  C   UNK A   2       7.648  -2.956  -4.642  0.00  0.00    +0.000 A 
ATOM     13  C   UNK A   2       6.934  -3.515  -5.680  0.00  0.00    +0.000 A 
ATOM     14  C   UNK A   2       7.308  -3.173  -6.978  0.00  0.00    +0.000 A 
ATOM     15  C   UNK A   2       8.345  -2.253  -7.214  0.00  0.00    +0.000 A 
ATOM     16  C   UNK A   2       9.026  -1.660  -6.158  0.00  0.00    +0.000 A 
ATOM     17  C   UNK A   2       8.679  -2.041  -4.885  0.00  0.00    +0.000 A 
ATOM     18  C   UNK A   2       9.257  -1.508  -3.631  0.00  0.00    +0.000 C 
ENDBRANCH   4  10
BRANCH   1  19
ATOM     19  C   UNK A   0       6.659   1.166   0.009  0.00  0.00    +0.000 C 
BRANCH  19  23
ATOM     20  C   UNK A   0       8.204   4.125   4.062  0.00  0.00    +0.000 C 
ATOM     21  C   UNK A   0       7.419   3.408   2.978  0.00  0.00    +0.000 A 
ATOM     22  N   UNK A   0       7.650   3.127   1.691  0.00  0.00    +0.000 NA
ATOM     23  C   UNK A   0       6.665   2.135   1.312  0.00  0.00    +0.000 A 
ATOM     24  C   UNK A   0       5.783   2.101   2.369  0.00  0.00    +0.000 A 
ATOM     25  C   UNK A   0       4.494   1.454   2.578  0.00  0.00    +0.000 C 
ATOM     26  O   UNK A   0       6.270   2.818   3.425  0.00  0.00    +0.000 OA
ENDBRANCH  19  23
BRANCH  19  27
ATOM     27  C   UNK A   0       5.143   0.620  -0.300  0.00  0.00    +0.000 C 
ATOM     28  O   UNK A   0       4.275   1.493  -0.494  0.00  0.00    +0.000 OA
ATOM     29  N   UNK A   0       4.701  -0.728  -0.185  0.00  0.00    +0.000 N 
ATOM     30  C   UNK A   0       5.451  -1.955  -0.332  0.00  0.00    +0.000 C 
ATOM     31  C   UNK A   0       3.276  -1.008  -0.311  0.00  0.00    +0.000 C 
ENDBRANCH  19  27
ENDBRANCH   1  19
BRANCH   8  32
ATOM     32  CB  LEU A   1       9.055   0.813   1.813  0.00  0.00    +0.000 C 
BRANCH  32  33
ATOM     33  CG  LEU A   1      10.483   1.030   2.245  0.00  0.00    +0.000 C 
ATOM     34  CD1 LEU A   1      11.369   1.266   1.017  0.00  0.00    +0.000 C 
ATOM     35  CD2 LEU A   1      10.585   2.295   3.080  0.00  0.00    +0.000 C 
ENDBRANCH  32  33
ENDBRANCH   8  32
TORSDOF 6
