REMARK  Name = CHEMBL2172293
REMARK  35 active torsions:
REMARK  status: ('A' for Active; 'I' for Inactive)
REMARK    1  A    between atoms: C_1  and  C_2
REMARK    2  A    between atoms: C_2  and  N_3
REMARK    3  A    between atoms: N_3  and  C_4
REMARK    4  A    between atoms: N_3  and  C_6
REMARK    5  A    between atoms: C_4  and  C_5
REMARK    6  A    between atoms: C_10  and  C_11
REMARK    7  A    between atoms: C_14  and  S_15
REMARK    8  A    between atoms: S_15  and  N_18
REMARK    9  A    between atoms: N_18  and  C_19
REMARK   10  A    between atoms: C_19  and  C_20
REMARK   11  A    between atoms: C_20  and  O_21
REMARK   12  A    between atoms: O_21  and  C_22
REMARK   13  A    between atoms: C_22  and  C_23
REMARK   14  A    between atoms: C_23  and  O_24
REMARK   15  A    between atoms: O_24  and  C_25
REMARK   16  A    between atoms: C_25  and  C_26
REMARK   17  A    between atoms: C_26  and  O_27
REMARK   18  A    between atoms: O_27  and  C_28
REMARK   19  A    between atoms: C_28  and  C_29
REMARK   20  A    between atoms: C_29  and  N_30
REMARK   21  A    between atoms: C_32  and  C_33
REMARK   22  A    between atoms: C_33  and  N_34
REMARK   23  A    between atoms: C_35  and  C_37
REMARK   24  A    between atoms: C_37  and  C_38
REMARK   25  A    between atoms: C_38  and  C_39
REMARK   26  A    between atoms: N_41  and  C_42
REMARK   27  A    between atoms: C_47  and  C_49
REMARK   28  A    between atoms: C_52  and  N_53
REMARK   29  A    between atoms: C_54  and  C_56
REMARK   30  A    between atoms: C_61  and  C_62
REMARK   31  A    between atoms: C_74  and  S_75
REMARK   32  A    between atoms: N_83  and  C_84
REMARK   33  A    between atoms: N_83  and  C_86
REMARK   34  A    between atoms: C_84  and  C_85
REMARK   35  A    between atoms: C_86  and  C_87
REMARK                            x       y       z     vdW  Elec       q    Type
REMARK                         _______ _______ _______ _____ _____    ______ ____
ROOT
ATOM      1  O   UNL     1      20.065 -10.430   2.817  0.00  0.00    +0.000 OA
ENDROOT
BRANCH   1   2
ATOM      2  C   UNL     1      21.048 -10.538   3.833  0.00  0.00    +0.000 C 
BRANCH   2   3
ATOM      3  C   UNL     1      21.748 -11.886   3.771  0.00  0.00    +0.000 C 
BRANCH   3   4
ATOM      4  N   UNL     1      22.766 -11.974   4.797  0.00  0.00    +0.000 N 
ATOM      5  C   UNL     1      23.400 -10.934   5.401  0.00  0.00    +0.000 A 
ATOM      6  C   UNL     1      24.246 -11.488   6.322  0.00  0.00    +0.000 A 
ATOM      7  N   UNL     1      24.108 -12.857   6.244  0.00  0.00    +0.000 NA
ATOM      8  N   UNL     1      23.198 -13.141   5.305  0.00  0.00    +0.000 NA
BRANCH   6   9
ATOM      9  C   UNL     1      25.170 -10.771   7.260  0.00  0.00    +0.000 C 
BRANCH   9  10
ATOM     10  N   UNL     1      25.088  -9.284   7.108  0.00  0.00    +0.000 N 
ATOM     11  C   UNL     1      25.863  -8.411   7.880  0.00  0.00    +0.000 C 
ATOM     12  O   UNL     1      26.642  -8.865   8.715  0.00  0.00    +0.000 OA
ATOM     13  H   UNL     1      24.444  -8.931   6.416  0.00  0.00    +0.000 HD
BRANCH  11  14
ATOM     14  C   UNL     1      25.725  -6.825   7.670  0.00  0.00    +0.000 C 
BRANCH  14  15
ATOM     15  C   UNL     1      26.738  -5.780   8.733  0.00  0.00    +0.000 C 
BRANCH  15  16
ATOM     16  C   UNL     1      26.593  -3.836   8.678  0.00  0.00    +0.000 C 
ATOM     17  O   UNL     1      25.819  -3.705   7.692  0.00  0.00    +0.000 OA
ATOM     18  N   UNL     1      27.212  -2.508   9.784  0.00  0.00    +0.000 N 
ATOM     19  H   UNL     1      27.925  -3.248   9.996  0.00  0.00    +0.000 HD
BRANCH  18  20
ATOM     20  C   UNL     1      27.602  -0.607  10.423  0.00  0.00    +0.000 C 
ATOM     21  C   UNL     1      28.834  -1.282  10.495  0.00  0.00    +0.000 C 
ATOM     22  C   UNL     1      28.465   0.033   9.734  0.00  0.00    +0.000 C 
ATOM     23  C   UNL     1      29.600   0.511  10.381  0.00  0.00    +0.000 C 
ATOM     24  N   UNL     1      29.219   1.918   9.594  0.00  0.00    +0.000 N 
ATOM     25  C   UNL     1      27.856   2.643   9.152  0.00  0.00    +0.000 C 
ATOM     26  O   UNL     1      27.684   3.872   9.196  0.00  0.00    +0.000 OA
ATOM     27  C   UNL     1      29.361   2.240  10.846  0.00  0.00    +0.000 A 
ATOM     28  C   UNL     1      31.034   2.535  11.187  0.00  0.00    +0.000 A 
ATOM     29  C   UNL     1      31.638   3.242  12.164  0.00  0.00    +0.000 A 
ATOM     30  C   UNL     1      30.537   3.833  12.580  0.00  0.00    +0.000 A 
ATOM     31  C   UNL     1      28.962   2.909  12.171  0.00  0.00    +0.000 A 
ATOM     32  C   UNL     1      28.051   1.451  11.413  0.00  0.00    +0.000 A 
BRANCH  25  33
ATOM     33  C   UNL     1      26.722   1.820   8.497  0.00  0.00    +0.000 A 
ATOM     34  C   UNL     1      25.748   0.894   9.055  0.00  0.00    +0.000 A 
ATOM     35  C   UNL     1      25.493  -0.347   8.418  0.00  0.00    +0.000 A 
ATOM     36  C   UNL     1      25.744  -0.427   7.084  0.00  0.00    +0.000 A 
ATOM     37  C   UNL     1      26.215   0.745   6.495  0.00  0.00    +0.000 A 
ATOM     38  C   UNL     1      26.856   1.776   7.160  0.00  0.00    +0.000 A 
BRANCH  36  39
ATOM     39  N   UNL     1      25.405  -1.585   6.357  0.00  0.00    +0.000 N 
ATOM     40  C   UNL     1      25.349  -1.576   4.974  0.00  0.00    +0.000 C 
ATOM     41  O   UNL     1      25.632  -0.615   4.267  0.00  0.00    +0.000 OA
ATOM     42  H   UNL     1      25.213  -2.454   6.877  0.00  0.00    +0.000 HD
BRANCH  40  43
ATOM     43  C   UNL     1      24.942  -2.813   4.273  0.00  0.00    +0.000 A 
ATOM     44  C   UNL     1      23.820  -3.533   4.674  0.00  0.00    +0.000 A 
ATOM     45  C   UNL     1      23.643  -4.844   4.238  0.00  0.00    +0.000 A 
ATOM     46  C   UNL     1      24.423  -5.337   3.208  0.00  0.00    +0.000 A 
ATOM     47  C   UNL     1      25.349  -4.500   2.597  0.00  0.00    +0.000 A 
ATOM     48  C   UNL     1      25.696  -3.276   3.185  0.00  0.00    +0.000 A 
ATOM     49  C   UNL     1      26.895  -2.519   2.694  0.00  0.00    +0.000 C 
ENDBRANCH  40  43
ENDBRANCH  36  39
ENDBRANCH  25  33
ENDBRANCH  18  20
ENDBRANCH  15  16
ENDBRANCH  14  15
ENDBRANCH  11  14
ENDBRANCH   9  10
ENDBRANCH   6   9
ENDBRANCH   3   4
ENDBRANCH   2   3
ENDBRANCH   1   2
BRANCH   1  50
ATOM     50  C   UNL     1      19.435  -9.152   2.903  0.00  0.00    +0.000 C 
BRANCH  50  51
ATOM     51  C   UNL     1      18.384  -9.039   1.824  0.00  0.00    +0.000 C 
BRANCH  51  52
ATOM     52  O   UNL     1      17.755  -7.766   1.910  0.00  0.00    +0.000 OA
BRANCH  52  53
ATOM     53  C   UNL     1      16.762  -7.658   0.892  0.00  0.00    +0.000 C 
BRANCH  53  54
ATOM     54  C   UNL     1      16.091  -6.306   0.982  0.00  0.00    +0.000 C 
BRANCH  54  55
ATOM     55  O   UNL     1      15.098  -6.197  -0.034  0.00  0.00    +0.000 OA
BRANCH  55  56
ATOM     56  C   UNL     1      14.465  -4.919   0.044  0.00  0.00    +0.000 C 
BRANCH  56  57
ATOM     57  C   UNL     1      13.410  -4.813  -1.046  0.00  0.00    +0.000 C 
BRANCH  57  58
ATOM     58  N   UNL     1      12.699  -3.507  -0.994  0.00  0.00    +0.000 NA
ATOM     59  H   UNL     1      12.276  -3.375  -0.069  0.00  0.00    +0.000 HD
BRANCH  58  60
ATOM     60  S   UNL     1      11.528  -3.393  -2.239  0.00  0.00    +0.000 S 
ATOM     61  O   UNL     1      10.511  -4.381  -1.939  0.00  0.00    +0.000 OA
ATOM     62  O   UNL     1      12.221  -3.432  -3.510  0.00  0.00    +0.000 OA
BRANCH  60  66
ATOM     63  C   UNL     1       9.360   0.619  -1.697  0.00  0.00    +0.000 A 
ATOM     64  C   UNL     1       9.181  -0.177  -2.850  0.00  0.00    +0.000 A 
ATOM     65  C   UNL     1       9.790  -1.427  -2.958  0.00  0.00    +0.000 A 
ATOM     66  C   UNL     1      10.790  -1.770  -2.055  0.00  0.00    +0.000 A 
ATOM     67  C   UNL     1      11.143  -0.860  -1.038  0.00  0.00    +0.000 A 
ATOM     68  C   UNL     1      10.330   0.265  -0.761  0.00  0.00    +0.000 A 
BRANCH  63  73
ATOM     69  C   UNL     1       4.273   1.272  -0.933  0.00  0.00    +0.000 A 
ATOM     70  C   UNL     1       5.123   0.193  -1.194  0.00  0.00    +0.000 A 
ATOM     71  C   UNL     1       6.482   0.351  -1.342  0.00  0.00    +0.000 A 
ATOM     72  C   UNL     1       7.035   1.612  -1.255  0.00  0.00    +0.000 A 
ATOM     73  C   UNL     1       8.463   1.757  -1.500  0.00  0.00    +0.000 A 
ATOM     74  C   UNL     1       8.959   2.998  -1.433  0.00  0.00    +0.000 A 
ATOM     75  C   UNL     1      10.380   3.259  -1.564  0.00  0.00    +0.000 A 
ATOM     76  C   UNL     1      10.937   4.441  -1.342  0.00  0.00    +0.000 A 
ATOM     77  C   UNL     1      10.092   5.588  -1.017  0.00  0.00    +0.000 A 
ATOM     78  N   UNL     1      10.603   6.774  -0.892  0.00  0.00    +0.000 N 
ATOM     79  C   UNL     1       8.668   5.244  -0.889  0.00  0.00    +0.000 A 
ATOM     80  C   UNL     1       8.111   4.069  -1.048  0.00  0.00    +0.000 A 
ATOM     81  O   UNL     1       6.745   3.954  -0.855  0.00  0.00    +0.000 OA
ATOM     82  C   UNL     1       6.225   2.703  -0.973  0.00  0.00    +0.000 A 
ATOM     83  C   UNL     1       4.854   2.541  -0.825  0.00  0.00    +0.000 A 
BRANCH  78  84
ATOM     84  C   UNL     1       9.809   8.022  -0.601  0.00  0.00    +0.000 C 
ATOM     85  C   UNL     1       8.351   7.786  -0.456  0.00  0.00    +0.000 C 
ENDBRANCH  78  84
BRANCH  78  86
ATOM     86  C   UNL     1      12.100   6.941  -1.058  0.00  0.00    +0.000 C 
ATOM     87  C   UNL     1      12.517   8.375  -0.893  0.00  0.00    +0.000 C 
ENDBRANCH  78  86
BRANCH  69  88
ATOM     88  N   UNL     1       2.895   1.073  -0.784  0.00  0.00    +0.000 N 
BRANCH  88  89
ATOM     89  C   UNL     1       1.994   2.020  -1.459  0.00  0.00    +0.000 C 
ATOM     90  C   UNL     1       0.523   1.768  -1.284  0.00  0.00    +0.000 C 
ENDBRANCH  88  89
BRANCH  88  92
ATOM     91  C   UNL     1       0.990  -0.273   0.184  0.00  0.00    +0.000 C 
ATOM     92  C   UNL     1       2.472  -0.078   0.038  0.00  0.00    +0.000 C 
ENDBRANCH  88  92
ENDBRANCH  69  88
ENDBRANCH  63  73
BRANCH  68  93
ATOM     93  S   UNL     1      10.602   1.271   0.835  0.00  0.00    +0.000 S 
ATOM     94  O   UNL     1      10.439   0.256   1.861  0.00  0.00    +0.000 OA
ATOM     95  O   UNL     1      11.953   1.785   0.617  0.00  0.00    +0.000 OA
ATOM     96  O   UNL     1       9.592   2.321   0.926  0.00  0.00    +0.000 OA
ENDBRANCH  68  93
ENDBRANCH  60  66
ENDBRANCH  58  60
ENDBRANCH  57  58
ENDBRANCH  56  57
ENDBRANCH  55  56
ENDBRANCH  54  55
ENDBRANCH  53  54
ENDBRANCH  52  53
ENDBRANCH  51  52
ENDBRANCH  50  51
ENDBRANCH   1  50
TORSDOF 30
