REMARK  Name = CHEMBL458635
REMARK  11 active torsions:
REMARK  status: ('A' for Active; 'I' for Inactive)
REMARK    1  A    between atoms: C_1  and  O_2
REMARK    2  A    between atoms: O_2  and  C_3
REMARK    3  A    between atoms: C_6  and  S_7
REMARK    4  A    between atoms: S_7  and  N_10
REMARK    5  A    between atoms: N_10  and  C_11
REMARK    6  A    between atoms: N_10  and  C_25
REMARK    7  A    between atoms: C_11  and  C_12
REMARK    8  A    between atoms: C_15  and  C_16
REMARK    9  A    between atoms: C_21  and  C_22
REMARK   10  A    between atoms: C_28  and  O_29
REMARK   11  A    between atoms: O_29  and  C_30
REMARK                            x       y       z     vdW  Elec       q    Type
REMARK                         _______ _______ _______ _____ _____    ______ ____
ROOT
ATOM      1  N   UNL     1       4.767  -5.578  -3.074  0.00  0.00    +0.000 N 
ENDROOT
BRANCH   1   2
ATOM      2  C   UNL     1       5.371  -6.744  -3.736  0.00  0.00    +0.000 A 
ATOM      3  C   UNL     1       5.753  -7.874  -3.010  0.00  0.00    +0.000 A 
ATOM      4  C   UNL     1       6.367  -8.951  -3.642  0.00  0.00    +0.000 A 
ATOM      5  C   UNL     1       6.573  -8.900  -5.010  0.00  0.00    +0.000 A 
ATOM      6  N   UNL     1       6.219  -7.824  -5.747  0.00  0.00    +0.000 NA
ATOM      7  C   UNL     1       5.653  -6.773  -5.096  0.00  0.00    +0.000 A 
BRANCH   5   8
ATOM      8  O   UNL     1       7.134  -9.911  -5.741  0.00  0.00    +0.000 OA
ATOM      9  C   UNL     1       7.517 -11.069  -5.008  0.00  0.00    +0.000 C 
ENDBRANCH   5   8
ENDBRANCH   1   2
BRANCH   1  10
ATOM     10  S   UNL     1       5.779  -5.127  -1.751  0.00  0.00    +0.000 S 
ATOM     11  O   UNL     1       7.108  -4.769  -2.258  0.00  0.00    +0.000 OA
ATOM     12  O   UNL     1       5.590  -6.068  -0.697  0.00  0.00    +0.000 OA
BRANCH  10  16
ATOM     13  C   UNL     1       3.235  -2.262   0.138  0.00  0.00    +0.000 A 
ATOM     14  C   UNL     1       4.333  -2.747   0.819  0.00  0.00    +0.000 A 
ATOM     15  C   UNL     1       5.486  -3.243   0.177  0.00  0.00    +0.000 A 
ATOM     16  C   UNL     1       5.280  -3.656  -1.105  0.00  0.00    +0.000 A 
ATOM     17  C   UNL     1       4.792  -2.801  -1.848  0.00  0.00    +0.000 A 
ATOM     18  C   UNL     1       3.730  -2.288  -1.155  0.00  0.00    +0.000 A 
BRANCH  13  20
ATOM     19  C   UNL     1       0.788  -0.576   0.341  0.00  0.00    +0.000 C 
ATOM     20  O   UNL     1       2.039  -1.605   0.676  0.00  0.00    +0.000 OA
ENDBRANCH  13  20
ENDBRANCH  10  16
ENDBRANCH   1  10
BRANCH   1  21
ATOM     21  C   UNL     1       3.484  -4.988  -3.788  0.00  0.00    +0.000 C 
BRANCH  21  22
ATOM     22  C   UNL     1       2.509  -3.706  -3.453  0.00  0.00    +0.000 A 
ATOM     23  C   UNL     1       1.641  -3.742  -2.317  0.00  0.00    +0.000 A 
ATOM     24  C   UNL     1       1.224  -2.403  -1.732  0.00  0.00    +0.000 A 
ATOM     25  C   UNL     1       1.968  -0.966  -2.141  0.00  0.00    +0.000 A 
ATOM     26  C   UNL     1       2.681  -1.127  -3.397  0.00  0.00    +0.000 A 
ATOM     27  N   UNL     1       2.872  -2.424  -4.063  0.00  0.00    +0.000 NA
BRANCH  25  28
ATOM     28  C   UNL     1       2.710   0.298  -1.051  0.00  0.00    +0.000 A 
ATOM     29  C   UNL     1       2.224   1.497  -1.539  0.00  0.00    +0.000 A 
ATOM     30  C   UNL     1       2.280   2.680  -0.793  0.00  0.00    +0.000 A 
ATOM     31  C   UNL     1       2.818   2.783   0.493  0.00  0.00    +0.000 A 
ATOM     32  C   UNL     1       3.454   1.733   1.066  0.00  0.00    +0.000 A 
ATOM     33  C   UNL     1       3.430   0.504   0.395  0.00  0.00    +0.000 A 
ATOM     34  C   UNL     1       4.052  -0.356   1.548  0.00  0.00    +0.000 C 
ENDBRANCH  25  28
ENDBRANCH  21  22
ENDBRANCH   1  21
TORSDOF 8
