REMARK  Name = CHEMBL1779408
REMARK  15 active torsions:
REMARK  status: ('A' for Active; 'I' for Inactive)
REMARK    1  A    between atoms: C_1  and  O_2
REMARK    2  A    between atoms: O_2  and  C_3
REMARK    3  A    between atoms: C_6  and  S_7
REMARK    4  A    between atoms: S_7  and  N_10
REMARK    5  A    between atoms: C_13  and  C_14
REMARK    6  A    between atoms: C_13  and  N_28
REMARK    7  A    between atoms: C_16  and  C_17
REMARK    8  A    between atoms: C_17  and  N_18
REMARK    9  A    between atoms: C_25  and  O_26
REMARK   10  A    between atoms: O_26  and  C_27
REMARK   11  A    between atoms: C_32  and  C_33
REMARK   12  A    between atoms: N_35  and  C_36
REMARK   13  A    between atoms: N_35  and  C_37
REMARK   14  A    between atoms: C_45  and  O_46
REMARK   15  A    between atoms: O_46  and  C_47
REMARK                            x       y       z     vdW  Elec       q    Type
REMARK                         _______ _______ _______ _____ _____    ______ ____
ROOT
ATOM      1  N   UNL     1       6.396  -6.207  -4.397  0.00  0.00    +0.000 N 
ATOM      2  C   UNL     1       5.178  -6.850  -4.156  0.00  0.00    +0.000 C 
ATOM      3  O   UNL     1       5.073  -7.545  -3.176  0.00  0.00    +0.000 OA
ATOM      4  C   UNL     1       4.500  -6.927  -5.562  0.00  0.00    +0.000 C 
ATOM      5  C   UNL     1       5.312  -7.960  -6.251  0.00  0.00    +0.000 A 
ATOM      6  C   UNL     1       4.783  -9.260  -7.006  0.00  0.00    +0.000 A 
ATOM      7  C   UNL     1       5.620 -10.388  -7.053  0.00  0.00    +0.000 A 
ATOM      8 CL   UNL     1       4.968 -12.028  -6.538  0.00  0.00    +0.000 Cl
ATOM      9  C   UNL     1       6.968 -10.074  -6.735  0.00  0.00    +0.000 A 
ATOM     10  C   UNL     1       7.450  -8.691  -6.073  0.00  0.00    +0.000 A 
ATOM     11  C   UNL     1       6.574  -7.676  -5.526  0.00  0.00    +0.000 A 
ENDROOT
BRANCH   4  12
ATOM     12  C   UNL     1       3.191  -7.449  -5.134  0.00  0.00    +0.000 A 
ATOM     13  C   UNL     1       2.143  -6.532  -4.989  0.00  0.00    +0.000 A 
ATOM     14  C   UNL     1       0.941  -6.940  -4.565  0.00  0.00    +0.000 A 
ATOM     15  C   UNL     1       0.749  -8.229  -4.959  0.00  0.00    +0.000 A 
ATOM     16  C   UNL     1       1.735  -9.182  -4.770  0.00  0.00    +0.000 A 
ATOM     17  C   UNL     1       3.023  -8.772  -4.652  0.00  0.00    +0.000 A 
BRANCH  17  18
ATOM     18  O   UNL     1       3.835  -9.795  -4.220  0.00  0.00    +0.000 OA
ATOM     19  C   UNL     1       5.247  -9.908  -4.195  0.00  0.00    +0.000 C 
ENDBRANCH  17  18
BRANCH  14  20
ATOM     20  C   UNL     1      -0.015  -5.973  -3.930  0.00  0.00    +0.000 C 
BRANCH  20  21
ATOM     21  N   UNL     1      -1.212  -6.548  -3.311  0.00  0.00    +0.000 NA
ATOM     22  C   UNL     1      -0.916  -7.526  -2.245  0.00  0.00    +0.000 C 
ATOM     23  C   UNL     1      -1.041  -8.911  -2.849  0.00  0.00    +0.000 C 
ATOM     24  C   UNL     1      -2.060  -8.710  -3.973  0.00  0.00    +0.000 C 
ATOM     25  C   UNL     1      -2.065  -7.207  -4.302  0.00  0.00    +0.000 C 
ENDBRANCH  20  21
ENDBRANCH  14  20
ENDBRANCH   4  12
BRANCH   4  26
ATOM     26  N   UNL     1       4.755  -5.733  -6.479  0.00  0.00    +0.000 NA
ATOM     27  C   UNL     1       6.135  -5.292  -6.893  0.00  0.00    +0.000 C 
ATOM     28  C   UNL     1       6.519  -4.138  -5.981  0.00  0.00    +0.000 C 
ATOM     29  C   UNL     1       5.196  -3.451  -5.855  0.00  0.00    +0.000 C 
ATOM     30  C   UNL     1       4.109  -4.477  -6.192  0.00  0.00    +0.000 C 
BRANCH  30  31
ATOM     31  C   UNL     1       3.188  -4.149  -7.428  0.00  0.00    +0.000 C 
ATOM     32  O   UNL     1       3.129  -4.890  -8.414  0.00  0.00    +0.000 OA
ATOM     33  N   UNL     1       2.410  -3.008  -7.371  0.00  0.00    +0.000 N 
ATOM     34  C   UNL     1       2.368  -2.117  -6.269  0.00  0.00    +0.000 C 
ATOM     35  C   UNL     1       1.489  -2.654  -8.419  0.00  0.00    +0.000 C 
ENDBRANCH  30  31
ENDBRANCH   4  26
BRANCH   1  36
ATOM     36  S   UNL     1       6.070  -5.155  -2.512  0.00  0.00    +0.000 S 
ATOM     37  O   UNL     1       7.355  -4.409  -2.428  0.00  0.00    +0.000 OA
ATOM     38  O   UNL     1       5.695  -6.036  -1.451  0.00  0.00    +0.000 OA
BRANCH  36  42
ATOM     39  C   UNL     1       3.130  -1.225  -0.528  0.00  0.00    +0.000 A 
ATOM     40  C   UNL     1       4.283  -1.733   0.046  0.00  0.00    +0.000 A 
ATOM     41  C   UNL     1       5.122  -2.794  -0.608  0.00  0.00    +0.000 A 
ATOM     42  C   UNL     1       4.824  -3.460  -1.878  0.00  0.00    +0.000 A 
ATOM     43  C   UNL     1       3.580  -2.995  -2.337  0.00  0.00    +0.000 A 
ATOM     44  C   UNL     1       2.812  -1.848  -1.711  0.00  0.00    +0.000 A 
BRANCH  39  46
ATOM     45  C   UNL     1       1.026  -0.087  -0.072  0.00  0.00    +0.000 C 
ATOM     46  O   UNL     1       2.464  -0.159   0.026  0.00  0.00    +0.000 OA
ENDBRANCH  39  46
BRANCH  43  47
ATOM     47  O   UNL     1       2.982  -3.680  -3.340  0.00  0.00    +0.000 OA
ATOM     48  C   UNL     1       1.768  -3.081  -3.755  0.00  0.00    +0.000 C 
ENDBRANCH  43  47
ENDBRANCH  36  42
ENDBRANCH   1  36
TORSDOF 10
