REMARK  Name = CHEMBL549494
REMARK  8 active torsions:
REMARK  status: ('A' for Active; 'I' for Inactive)
REMARK    1  A    between atoms: C_1  and  O_2
REMARK    2  A    between atoms: O_2  and  C_3
REMARK    3  A    between atoms: C_6  and  N_7
REMARK    4  A    between atoms: C_8  and  C_9
REMARK    5  A    between atoms: C_12  and  C_13
REMARK    6  A    between atoms: C_16  and  O_17
REMARK    7  A    between atoms: O_17  and  C_18
REMARK    8  A    between atoms: C_24  and  C_25
REMARK                            x       y       z     vdW  Elec       q    Type
REMARK                         _______ _______ _______ _____ _____    ______ ____
ROOT
ATOM      1  C   UNL     1       6.139  -5.075   0.436  0.00  0.00    +0.000 A 
ATOM      2  C   UNL     1       6.578  -4.052  -0.399  0.00  0.00    +0.000 A 
ATOM      3  N   UNL     1       6.533  -4.135  -1.749  0.00  0.00    +0.000 NA
ATOM      4  C   UNL     1       6.118  -5.318  -2.259  0.00  0.00    +0.000 A 
ATOM      5  C   UNL     1       5.704  -6.354  -1.429  0.00  0.00    +0.000 A 
ATOM      6  N   UNL     1       5.684  -6.249  -0.071  0.00  0.00    +0.000 NA
ENDROOT
BRANCH   1  12
ATOM      7  N   UNL     1       5.478  -3.904   2.589  0.00  0.00    +0.000 N 
ATOM      8  C   UNL     1       5.879  -4.074   3.913  0.00  0.00    +0.000 A 
ATOM      9  C   UNL     1       5.446  -3.341   5.131  0.00  0.00    +0.000 C 
ATOM     10  N   UNL     1       6.668  -5.132   3.985  0.00  0.00    +0.000 NA
ATOM     11  N   UNL     1       6.809  -5.663   2.739  0.00  0.00    +0.000 NA
ATOM     12  C   UNL     1       6.119  -4.925   1.885  0.00  0.00    +0.000 A 
BRANCH   7  16
ATOM     13  C   UNL     1       3.100  -1.050   0.656  0.00  0.00    +0.000 A 
ATOM     14  C   UNL     1       2.752  -2.387   0.548  0.00  0.00    +0.000 A 
ATOM     15  C   UNL     1       3.527  -3.344   1.220  0.00  0.00    +0.000 A 
ATOM     16  C   UNL     1       4.609  -2.939   2.010  0.00  0.00    +0.000 A 
ATOM     17  C   UNL     1       4.907  -1.586   2.035  0.00  0.00    +0.000 A 
ATOM     18  N   UNL     1       4.179  -0.646   1.369  0.00  0.00    +0.000 NA
BRANCH  13  20
ATOM     19  C   UNL     1       1.051  -0.075  -0.036  0.00  0.00    +0.000 C 
ATOM     20  O   UNL     1       2.477  -0.049  -0.044  0.00  0.00    +0.000 OA
ENDBRANCH  13  20
ENDBRANCH   7  16
ENDBRANCH   1  12
BRANCH   4  21
ATOM     21  O   UNL     1       6.153  -5.547  -3.632  0.00  0.00    +0.000 OA
BRANCH  21  22
ATOM     22  C   UNL     1       6.755  -4.569  -4.402  0.00  0.00    +0.000 A 
ATOM     23  C   UNL     1       5.950  -3.919  -5.349  0.00  0.00    +0.000 A 
ATOM     24  C   UNL     1       6.471  -2.876  -6.118  0.00  0.00    +0.000 A 
ATOM     25  C   UNL     1       7.798  -2.490  -5.946  0.00  0.00    +0.000 A 
ATOM     26  C   UNL     1       8.606  -3.183  -5.048  0.00  0.00    +0.000 A 
ATOM     27  F   UNL     1       9.887  -2.800  -4.922  0.00  0.00    +0.000 F 
ATOM     28  C   UNL     1       8.121  -4.250  -4.287  0.00  0.00    +0.000 A 
ATOM     29  C   UNL     1       9.056  -5.019  -3.401  0.00  0.00    +0.000 C 
ENDBRANCH  21  22
ENDBRANCH   4  21
TORSDOF 5
