REMARK  Name = CHEMBL197298
REMARK  12 active torsions:
REMARK  status: ('A' for Active; 'I' for Inactive)
REMARK    1  A    between atoms: CD1_1  and  CG_2
REMARK    2  A    between atoms: CG_2  and  CD2_3
REMARK    3  A    between atoms: CG_2  and  CB_4
REMARK    4  A    between atoms: CB_4  and  CA_5
REMARK    5  A    between atoms: C_9  and  C_10
REMARK    6  A    between atoms: N_21  and  C_22
REMARK    7  A    between atoms: C_22  and  C_23
REMARK    8  A    between atoms: C_22  and  C_29
REMARK    9  A    between atoms: N_25  and  C_26
REMARK   10  A    between atoms: C_26  and  C_27
REMARK   11  A    between atoms: C_26  and  C_28
REMARK   12  A    between atoms: C_32  and  C_33
REMARK                            x       y       z     vdW  Elec       q    Type
REMARK                         _______ _______ _______ _____ _____    ______ ____
ROOT
ATOM      1  CA  LEU A   2       4.624  -1.128   0.839  0.00  0.00    +0.000 C 
ATOM      2  C   LEU A   2       5.061  -2.103   1.966  0.00  0.00    +0.000 C 
ATOM      3  O   LEU A   2       4.387  -3.023   2.436  0.00  0.00    +0.000 OA
ATOM      4  N   UNK A   1       6.342  -1.931   2.385  0.00  0.00    +0.000 N 
ATOM      5  C   UNK A   1       7.269  -1.015   1.747  0.00  0.00    +0.000 C 
ATOM      6  C   UNK A   1       6.568   0.283   1.488  0.00  0.00    +0.000 C 
ATOM      7  O   UNK A   1       7.249   1.311   1.510  0.00  0.00    +0.000 OA
ATOM      8  N   LEU A   2       5.203   0.216   1.249  0.00  0.00    +0.000 N 
ATOM      9  H   UNK A   1       6.640  -2.563   3.118  0.00  0.00    +0.000 HD
ENDROOT
BRANCH   5  10
ATOM     10  C   UNK A   1       8.456  -0.596   2.655  0.00  0.00    +0.000 C 
ATOM     11  C   UNK A   1       9.326  -1.799   2.981  0.00  0.00    +0.000 C 
ATOM     12  C   UNK A   1       8.675  -2.266   4.243  0.00  0.00    +0.000 A 
ATOM     13  C   UNK A   1       8.677  -3.547   4.751  0.00  0.00    +0.000 A 
ATOM     14  C   UNK A   1       7.896  -3.806   5.876  0.00  0.00    +0.000 A 
ATOM     15  C   UNK A   1       7.119  -2.796   6.468  0.00  0.00    +0.000 A 
ATOM     16  C   UNK A   1       7.105  -1.505   5.939  0.00  0.00    +0.000 A 
ATOM     17  C   UNK A   1       7.894  -1.256   4.830  0.00  0.00    +0.000 A 
ATOM     18  C   UNK A   1       7.963  -0.006   4.016  0.00  0.00    +0.000 C 
ENDBRANCH   5  10
BRANCH   1  19
ATOM     19  CB  LEU A   2       3.112  -1.365   0.548  0.00  0.00    +0.000 C 
BRANCH  19  21
ATOM     20  CD1 LEU A   2       0.819  -0.358  -0.388  0.00  0.00    +0.000 C 
ATOM     21  CG  LEU A   2       2.333  -0.406  -0.468  0.00  0.00    +0.000 C 
ATOM     22  CD2 LEU A   2       2.657   1.062  -0.467  0.00  0.00    +0.000 C 
ENDBRANCH  19  21
ENDBRANCH   1  19
BRANCH   8  23
ATOM     23  C   UNK A   0       4.456   1.428   1.637  0.00  0.00    +0.000 C 
BRANCH  23  24
ATOM     24  C   UNK A   0       5.133   2.808   1.477  0.00  0.00    +0.000 A 
ATOM     25  C   UNK A   0       4.724   3.824   2.305  0.00  0.00    +0.000 A 
ATOM     26  C   UNK A   0       5.235   5.080   2.182  0.00  0.00    +0.000 A 
ATOM     27  C   UNK A   0       6.307   5.310   1.334  0.00  0.00    +0.000 A 
ATOM     28  C   UNK A   0       6.678   4.356   0.389  0.00  0.00    +0.000 A 
ATOM     29  C   UNK A   0       6.001   3.141   0.390  0.00  0.00    +0.000 A 
BRANCH  27  30
ATOM     30  C   UNK A   0       7.115   6.533   1.514  0.00  0.00    +0.000 C 
ATOM     31  N   UNK A   0       6.696   7.389   2.510  0.00  0.00    +0.000 N 
ATOM     32  O   UNK A   0       8.106   6.745   0.865  0.00  0.00    +0.000 OA
ATOM     33  H   UNK A   0       5.930   7.219   3.139  0.00  0.00    +0.000 HD
ATOM     34  H   UNK A   0       7.262   8.201   2.684  0.00  0.00    +0.000 HD
ENDBRANCH  27  30
ENDBRANCH  23  24
BRANCH  23  35
ATOM     35  C   UNK A   0       3.182   1.306   2.708  0.00  0.00    +0.000 C 
ATOM     36  O   UNK A   0       2.874   2.163   3.534  0.00  0.00    +0.000 OA
ATOM     37  N   UNK A   0       2.264   0.285   2.563  0.00  0.00    +0.000 N 
ATOM     38  H   UNK A   0       2.104   0.057   1.621  0.00  0.00    +0.000 HD
BRANCH  37  39
ATOM     39  C   UNK A   0       0.980   0.116   3.251  0.00  0.00    +0.000 C 
ATOM     40  C   UNK A   0       0.033   1.274   2.913  0.00  0.00    +0.000 C 
ATOM     41  C   UNK A   0       0.291  -1.228   2.878  0.00  0.00    +0.000 C 
ENDBRANCH  37  39
ENDBRANCH  23  35
ENDBRANCH   8  23
TORSDOF 8
