REMARK  Name = CHEMBL1253935
REMARK  9 active torsions:
REMARK  status: ('A' for Active; 'I' for Inactive)
REMARK    1  A    between atoms: C_1  and  O_2
REMARK    2  A    between atoms: O_2  and  N_3
REMARK    3  A    between atoms: C_6  and  C_7
REMARK    4  A    between atoms: N_9  and  C_10
REMARK    5  A    between atoms: C_10  and  C_11
REMARK    6  A    between atoms: C_11  and  O_12
REMARK    7  A    between atoms: C_11  and  C_13
REMARK    8  A    between atoms: C_20  and  C_22
REMARK    9  A    between atoms: C_25  and  C_26
REMARK                            x       y       z     vdW  Elec       q    Type
REMARK                         _______ _______ _______ _____ _____    ______ ____
ROOT
ATOM      1  N   UNL     1       3.300   1.001  -0.666  0.00  0.00    +0.000 NA
ATOM      2  C   UNL     1       4.605   0.959  -0.610  0.00  0.00    +0.000 C 
ATOM      3  C   UNL     1       5.484  -0.087   0.029  0.00  0.00    +0.000 C 
ATOM      4  C   UNL     1       6.679   0.779   0.477  0.00  0.00    +0.000 C 
ATOM      5  N   UNL     1       6.748   1.845  -0.590  0.00  0.00    +0.000 N 
ATOM      6  C   UNL     1       7.817   2.740  -0.738  0.00  0.00    +0.000 C 
ATOM      7  O   UNL     1       8.801   2.848  -0.000  0.00  0.00    +0.000 OA
ATOM      8  C   UNL     1       5.458   2.031  -1.265  0.00  0.00    +0.000 C 
ENDROOT
BRANCH   6   9
ATOM      9  C   UNL     1       7.842   3.724  -1.834  0.00  0.00    +0.000 A 
ATOM     10  C   UNL     1       8.856   3.708  -2.804  0.00  0.00    +0.000 A 
ATOM     11  C   UNL     1       8.988   4.791  -3.681  0.00  0.00    +0.000 A 
ATOM     12  C   UNL     1       8.083   5.867  -3.638  0.00  0.00    +0.000 A 
ATOM     13  C   UNL     1       7.125   5.892  -2.615  0.00  0.00    +0.000 A 
ATOM     14  C   UNL     1       7.021   4.841  -1.707  0.00  0.00    +0.000 A 
BRANCH  12  15
ATOM     15  C   UNL     1       8.136   6.924  -4.654  0.00  0.00    +0.000 A 
ATOM     16  C   UNL     1       8.035   6.596  -6.018  0.00  0.00    +0.000 A 
ATOM     17  C   UNL     1       8.190   7.570  -7.004  0.00  0.00    +0.000 A 
ATOM     18  C   UNL     1       8.362   8.902  -6.640  0.00  0.00    +0.000 A 
ATOM     19  C   UNL     1       8.416   9.254  -5.293  0.00  0.00    +0.000 A 
ATOM     20  C   UNL     1       8.309   8.271  -4.306  0.00  0.00    +0.000 A 
ENDBRANCH  12  15
ENDBRANCH   6   9
BRANCH   4  21
ATOM     21  C   UNL     1       8.037   0.019   0.679  0.00  0.00    +0.000 C 
ATOM     22  O   UNL     1       9.125   0.587   0.559  0.00  0.00    +0.000 OA
ATOM     23  N   UNL     1       8.124  -1.281   1.120  0.00  0.00    +0.000 N 
ATOM     24  H   UNL     1       7.340  -1.910   1.246  0.00  0.00    +0.000 HD
BRANCH  23  25
ATOM     25  C   UNL     1       9.503  -1.785   1.271  0.00  0.00    +0.000 C 
BRANCH  25  26
ATOM     26  C   UNL     1       9.621  -3.256   1.656  0.00  0.00    +0.000 C 
BRANCH  26  27
ATOM     27  C   UNL     1      11.063  -3.719   1.813  0.00  0.00    +0.000 A 
ATOM     28  C   UNL     1      11.592  -4.770   1.049  0.00  0.00    +0.000 A 
ATOM     29  C   UNL     1      12.825  -5.338   1.373  0.00  0.00    +0.000 A 
ATOM     30  C   UNL     1      13.595  -4.801   2.400  0.00  0.00    +0.000 A 
ATOM     31  C   UNL     1      13.124  -3.705   3.118  0.00  0.00    +0.000 A 
ATOM     32  C   UNL     1      11.866  -3.170   2.830  0.00  0.00    +0.000 A 
ENDBRANCH  26  27
BRANCH  26  33
ATOM     33  O   UNL     1       8.916  -4.031   0.679  0.00  0.00    +0.000 OA
ATOM     34  H   UNL     1       9.372  -3.880  -0.167  0.00  0.00    +0.000 HD
ENDBRANCH  26  33
ENDBRANCH  25  26
ENDBRANCH  23  25
ENDBRANCH   4  21
BRANCH   1  36
ATOM     35  C   UNL     1       1.261   0.015  -0.071  0.00  0.00    +0.000 C 
ATOM     36  O   UNL     1       2.693  -0.091  -0.010  0.00  0.00    +0.000 OA
ENDBRANCH   1  36
TORSDOF 8
