REMARK  Name = CHEMBL31606
REMARK  4 active torsions:
REMARK  status: ('A' for Active; 'I' for Inactive)
REMARK    1  A    between atoms: C_1  and  C_2
REMARK    2  A    between atoms: C_7  and  C_8
REMARK    3  A    between atoms: C_12  and  C_13
REMARK    4  A    between atoms: C_18  and  N_19
REMARK                            x       y       z     vdW  Elec       q    Type
REMARK                         _______ _______ _______ _____ _____    ______ ____
ROOT
ATOM      1  C   UNL     1       4.591  10.267   0.581  0.00  0.00    +0.000 C 
ATOM      2  O   UNL     1       5.641  10.707   1.040  0.00  0.00    +0.000 OA
ATOM      3  N   UNL     1       3.678  11.080  -0.071  0.00  0.00    +0.000 N 
ATOM      4  C   UNL     1       4.125  11.997  -1.115  0.00  0.00    +0.000 C 
ATOM      5  C   UNL     1       3.763  13.434  -0.791  0.00  0.00    +0.000 C 
ATOM      6  C   UNL     1       2.262  13.571  -0.456  0.00  0.00    +0.000 C 
ATOM      7  C   UNL     1       1.892  12.608   0.680  0.00  0.00    +0.000 C 
ATOM      8  C   UNL     1       2.297  11.176   0.386  0.00  0.00    +0.000 C 
ENDROOT
BRANCH   6   9
ATOM      9  N   UNL     1       1.385  13.518  -1.673  0.00  0.00    +0.000 N 
ATOM     10  C   UNL     1       1.308  12.426  -2.540  0.00  0.00    +0.000 C 
ATOM     11  O   UNL     1       1.195  11.239  -2.258  0.00  0.00    +0.000 OA
ATOM     12  O   UNL     1       1.451  12.766  -3.844  0.00  0.00    +0.000 OA
ATOM     13  C   UNL     1       0.325  13.494  -4.283  0.00  0.00    +0.000 C 
ATOM     14  C   UNL     1       0.033  14.629  -3.353  0.00  0.00    +0.000 A 
ATOM     15  C   UNL     1      -0.821  15.647  -3.780  0.00  0.00    +0.000 A 
ATOM     16  C   UNL     1      -1.126  16.694  -2.923  0.00  0.00    +0.000 A 
ATOM     17  C   UNL     1      -0.588  16.718  -1.639  0.00  0.00    +0.000 A 
ATOM     18  C   UNL     1       0.267  15.700  -1.206  0.00  0.00    +0.000 A 
ATOM     19  C   UNL     1       0.592  14.644  -2.061  0.00  0.00    +0.000 A 
ENDBRANCH   6   9
BRANCH   1  24
ATOM     20  C   UNL     1       4.920   4.331   1.516  0.00  0.00    +0.000 A 
ATOM     21  C   UNL     1       5.630   5.450   1.894  0.00  0.00    +0.000 A 
ATOM     22  C   UNL     1       4.961   6.571   1.343  0.00  0.00    +0.000 A 
ATOM     23  C   UNL     1       5.182   7.960   1.333  0.00  0.00    +0.000 A 
ATOM     24  C   UNL     1       4.292   8.794   0.631  0.00  0.00    +0.000 A 
ATOM     25  C   UNL     1       3.216   8.221  -0.069  0.00  0.00    +0.000 A 
ATOM     26  C   UNL     1       2.954   6.844  -0.039  0.00  0.00    +0.000 A 
ATOM     27  C   UNL     1       3.859   6.060   0.669  0.00  0.00    +0.000 A 
ATOM     28  O   UNL     1       3.825   4.703   0.788  0.00  0.00    +0.000 OA
BRANCH  20  35
ATOM     29  C   UNL     1       1.014   0.057   0.145  0.00  0.00    +0.000 C 
ATOM     30  C   UNL     1       2.524   0.073   0.086  0.00  0.00    +0.000 C 
ATOM     31  O   UNL     1       3.147  -0.850  -0.437  0.00  0.00    +0.000 OA
ATOM     32  N   UNL     1       3.134   1.241   0.501  0.00  0.00    +0.000 N 
ATOM     33  C   UNL     1       4.170   1.843  -0.330  0.00  0.00    +0.000 C 
ATOM     34  C   UNL     1       5.450   2.102   0.452  0.00  0.00    +0.000 C 
ATOM     35  C   UNL     1       5.177   2.871   1.751  0.00  0.00    +0.000 C 
ATOM     36  C   UNL     1       4.065   2.193   2.562  0.00  0.00    +0.000 C 
ATOM     37  C   UNL     1       2.800   1.953   1.728  0.00  0.00    +0.000 C 
ENDBRANCH  20  35
ENDBRANCH   1  24
TORSDOF 3
