REMARK  Name = CHEMBL196780
REMARK  14 active torsions:
REMARK  status: ('A' for Active; 'I' for Inactive)
REMARK    1  A    between atoms: CD1_1  and  CG_2
REMARK    2  A    between atoms: CG_2  and  CD2_3
REMARK    3  A    between atoms: CG_2  and  CB_4
REMARK    4  A    between atoms: CB_4  and  CA_5
REMARK    5  A    between atoms: C_9  and  C_10
REMARK    6  A    between atoms: N_21  and  C_22
REMARK    7  A    between atoms: C_22  and  C_23
REMARK    8  A    between atoms: C_22  and  C_30
REMARK    9  A    between atoms: N_25  and  C_26
REMARK   10  A    between atoms: C_26  and  C_27
REMARK   11  A    between atoms: C_26  and  C_28
REMARK   12  A    between atoms: C_26  and  C_29
REMARK   13  A    between atoms: C_33  and  O_34
REMARK   14  A    between atoms: O_34  and  C_35
REMARK                            x       y       z     vdW  Elec       q    Type
REMARK                         _______ _______ _______ _____ _____    ______ ____
ROOT
ATOM      1  CA  LEU A   2       4.878  -1.394   0.784  0.00  0.00    +0.000 C 
ATOM      2  C   LEU A   2       5.475  -0.104   1.404  0.00  0.00    +0.000 C 
ATOM      3  O   LEU A   2       5.165   0.422   2.440  0.00  0.00    +0.000 OA
ATOM      4  N   UNK A   1       6.453   0.412   0.615  0.00  0.00    +0.000 N 
ATOM      5  C   UNK A   1       7.316  -0.563   0.021  0.00  0.00    +0.000 C 
ATOM      6  C   UNK A   1       6.527  -1.387  -0.998  0.00  0.00    +0.000 C 
ATOM      7  O   UNK A   1       7.148  -1.832  -1.956  0.00  0.00    +0.000 OA
ATOM      8  N   LEU A   2       5.179  -1.605  -0.689  0.00  0.00    +0.000 N 
ATOM      9  H   UNK A   1       6.796   1.301   0.955  0.00  0.00    +0.000 HD
ENDROOT
BRANCH   5  10
ATOM     10  C   UNK A   1       8.499   0.059  -0.722  0.00  0.00    +0.000 C 
ATOM     11  C   UNK A   1       9.368   0.891   0.226  0.00  0.00    +0.000 C 
ATOM     12  C   UNK A   1       8.734   2.241   0.085  0.00  0.00    +0.000 A 
ATOM     13  C   UNK A   1       8.765   3.284   0.990  0.00  0.00    +0.000 A 
ATOM     14  C   UNK A   1       7.995   4.415   0.716  0.00  0.00    +0.000 A 
ATOM     15  C   UNK A   1       7.198   4.484  -0.439  0.00  0.00    +0.000 A 
ATOM     16  C   UNK A   1       7.159   3.421  -1.342  0.00  0.00    +0.000 A 
ATOM     17  C   UNK A   1       7.941   2.312  -1.072  0.00  0.00    +0.000 A 
ATOM     18  C   UNK A   1       7.994   1.023  -1.830  0.00  0.00    +0.000 C 
ENDBRANCH   5  10
BRANCH   1  19
ATOM     19  CB  LEU A   2       3.440  -1.245   1.070  0.00  0.00    +0.000 C 
BRANCH  19  21
ATOM     20  CD1 LEU A   2       1.537  -0.027   0.915  0.00  0.00    +0.000 C 
ATOM     21  CG  LEU A   2       2.956   0.087   0.528  0.00  0.00    +0.000 C 
ATOM     22  CD2 LEU A   2       3.266   1.535   0.947  0.00  0.00    +0.000 C 
ENDBRANCH  19  21
ENDBRANCH   1  19
BRANCH   8  23
ATOM     23  C   UNK A   0       4.188  -2.250  -1.720  0.00  0.00    +0.000 C 
BRANCH  23  24
ATOM     24  C   UNK A   0       4.916  -2.839  -2.976  0.00  0.00    +0.000 A 
ATOM     25  C   UNK A   0       4.723  -2.327  -4.271  0.00  0.00    +0.000 A 
ATOM     26  C   UNK A   0       5.359  -2.807  -5.395  0.00  0.00    +0.000 A 
ATOM     27  C   UNK A   0       6.411  -3.674  -5.239  0.00  0.00    +0.000 A 
ATOM     28  C   UNK A   0       6.694  -4.177  -3.967  0.00  0.00    +0.000 A 
ATOM     29  C   UNK A   0       5.899  -3.833  -2.859  0.00  0.00    +0.000 A 
BRANCH  27  30
ATOM     30  O   UNK A   0       7.094  -3.884  -6.394  0.00  0.00    +0.000 OA
BRANCH  30  31
ATOM     31  C   UNK A   0       8.269  -4.645  -6.271  0.00  0.00    +0.000 C 
ATOM     32  F   UNK A   0       9.159  -4.047  -5.451  0.00  0.00    +0.000 F 
ATOM     33  F   UNK A   0       7.985  -5.883  -5.814  0.00  0.00    +0.000 F 
ATOM     34  F   UNK A   0       8.830  -4.763  -7.492  0.00  0.00    +0.000 F 
ENDBRANCH  30  31
ENDBRANCH  27  30
ENDBRANCH  23  24
BRANCH  23  35
ATOM     35  C   UNK A   0       2.890  -1.335  -2.249  0.00  0.00    +0.000 C 
ATOM     36  O   UNK A   0       2.893  -0.705  -3.312  0.00  0.00    +0.000 OA
ATOM     37  N   UNK A   0       1.761  -1.142  -1.464  0.00  0.00    +0.000 N 
ATOM     38  H   UNK A   0       1.625  -1.863  -0.771  0.00  0.00    +0.000 HD
BRANCH  37  39
ATOM     39  C   UNK A   0       0.688   0.024  -1.702  0.00  0.00    +0.000 C 
ATOM     40  C   UNK A   0       1.415   1.317  -2.216  0.00  0.00    +0.000 C 
ATOM     41  C   UNK A   0      -0.204  -0.656  -2.703  0.00  0.00    +0.000 C 
ATOM     42  C   UNK A   0      -0.501   0.521  -0.553  0.00  0.00    +0.000 C 
ENDBRANCH  37  39
ENDBRANCH  23  35
ENDBRANCH   8  23
TORSDOF 9
