REMARK  Name = CHEMBL376685
REMARK  20 active torsions:
REMARK  status: ('A' for Active; 'I' for Inactive)
REMARK    1  A    between atoms: N_4  and  C_5
REMARK    2  A    between atoms: C_5  and  C_6
REMARK    3  A    between atoms: C_6  and  C_7
REMARK    4  A    between atoms: C_7  and  C_8
REMARK    5  A    between atoms: C_8  and  N_9
REMARK    6  A    between atoms: C_8  and  C_68
REMARK    7  A    between atoms: C_10  and  C_12
REMARK    8  A    between atoms: C_17  and  C_19
REMARK    9  A    between atoms: C_28  and  C_29
REMARK   10  A    between atoms: C_29  and  C_30
REMARK   11  A    between atoms: C_33  and  O_34
REMARK   12  A    between atoms: C_40  and  C_41
REMARK   13  A    between atoms: C_41  and  C_42
REMARK   14  A    between atoms: C_51  and  C_52
REMARK   15  A    between atoms: C_52  and  C_53
REMARK   16  A    between atoms: C_53  and  C_54
REMARK   17  A    between atoms: C_60  and  C_61
REMARK   18  A    between atoms: C_61  and  C_62
REMARK   19  A    between atoms: N_70  and  C_71
REMARK   20  A    between atoms: C_71  and  C_72
REMARK                            x       y       z     vdW  Elec       q    Type
REMARK                         _______ _______ _______ _____ _____    ______ ____
ROOT
ATOM      1  C   UNL     1       4.710   1.170   7.730  0.00  0.00    +0.000 C 
ATOM      2  C   UNL     1       4.425   2.086  10.083  0.00  0.00    +0.000 C 
ATOM      3  S   UNL     1       5.211   2.282  12.814  0.00  0.00    +0.000 S 
ATOM      4  S   UNL     1       6.249   2.024  15.497  0.00  0.00    +0.000 S 
ATOM      5  C   UNL     1       8.234   1.856  15.726  0.00  0.00    +0.000 C 
ATOM      6  C   UNL     1       9.320   1.172  16.524  0.00  0.00    +0.000 C 
ATOM      7  C   UNL     1      10.668   0.927  15.803  0.00  0.00    +0.000 C 
ATOM      8  O   UNL     1      11.641   0.524  16.447  0.00  0.00    +0.000 OA
ATOM      9  N   UNL     1      10.752   1.144  14.440  0.00  0.00    +0.000 N 
ATOM     10  C   UNL     1       9.662   1.598  13.597  0.00  0.00    +0.000 C 
ATOM     11  C   UNL     1       8.503   0.388  13.607  0.00  0.00    +0.000 C 
ATOM     12  O   UNL     1       7.985  -0.177  14.623  0.00  0.00    +0.000 OA
ATOM     13  N   UNL     1       7.962   0.067  12.472  0.00  0.00    +0.000 N 
ATOM     14  C   UNL     1       8.504   0.400  11.243  0.00  0.00    +0.000 C 
ATOM     15  C   UNL     1       8.119   2.032  10.963  0.00  0.00    +0.000 C 
ATOM     16  O   UNL     1       8.385   3.021  11.674  0.00  0.00    +0.000 OA
ATOM     17  N   UNL     1       7.675   2.486   9.869  0.00  0.00    +0.000 N 
ATOM     18  C   UNL     1       7.338   1.628   9.050  0.00  0.00    +0.000 C 
ATOM     19  C   UNL     1       8.802   0.778   8.339  0.00  0.00    +0.000 C 
ATOM     20  O   UNL     1       9.439  -0.128   8.793  0.00  0.00    +0.000 OA
ATOM     21  N   UNL     1       9.011   0.857   6.926  0.00  0.00    +0.000 N 
ATOM     22  C   UNL     1       7.516   1.512   5.653  0.00  0.00    +0.000 C 
ATOM     23  C   UNL     1       6.215  -0.158   6.445  0.00  0.00    +0.000 C 
ATOM     24  O   UNL     1       5.509  -0.255   7.441  0.00  0.00    +0.000 OA
ATOM     25  N   UNL     1       4.781   0.078   6.114  0.00  0.00    +0.000 N 
ATOM     26  H   UNL     1      11.643   1.025  13.945  0.00  0.00    +0.000 HD
ATOM     27  H   UNL     1       7.229  -0.598  12.591  0.00  0.00    +0.000 HD
ATOM     28  H   UNL     1       7.469   3.403   9.667  0.00  0.00    +0.000 HD
ATOM     29  H   UNL     1       9.077  -0.151   6.510  0.00  0.00    +0.000 HD
ATOM     30  H   UNL     1       4.127   0.013   5.109  0.00  0.00    +0.000 HD
ENDROOT
BRANCH   1  36
ATOM     31  C   UNL     1       8.338  -1.253   4.003  0.00  0.00    +0.000 C 
ATOM     32  C   UNL     1       9.928  -0.931   4.089  0.00  0.00    +0.000 C 
ATOM     33  C   UNL     1      10.376  -0.915   2.699  0.00  0.00    +0.000 C 
ATOM     34  C   UNL     1       8.572  -0.218   2.265  0.00  0.00    +0.000 C 
ATOM     35  N   UNL     1       6.892  -0.115   3.706  0.00  0.00    +0.000 N 
ATOM     36  C   UNL     1       5.627   0.713   5.270  0.00  0.00    +0.000 C 
ATOM     37  O   UNL     1       5.776   0.956   3.750  0.00  0.00    +0.000 OA
BRANCH  31  39
ATOM     38  N   UNL     1       8.083  -0.143   5.827  0.00  0.00    +0.000 N 
ATOM     39  C   UNL     1       7.752  -1.185   5.201  0.00  0.00    +0.000 C 
ATOM     40  O   UNL     1       6.839  -1.796   5.644  0.00  0.00    +0.000 OA
ATOM     41  H   UNL     1       8.837   0.756   5.536  0.00  0.00    +0.000 HD
BRANCH  38  42
ATOM     42  C   UNL     1       7.226   0.980   7.169  0.00  0.00    +0.000 C 
BRANCH  42  43
ATOM     43  C   UNL     1       7.057  -0.399   8.131  0.00  0.00    +0.000 C 
ATOM     44  O   UNL     1       7.336  -1.495   7.737  0.00  0.00    +0.000 OA
ATOM     45  N   UNL     1       5.894  -0.027   9.175  0.00  0.00    +0.000 N 
ATOM     46  H   UNL     1       5.536   0.973   9.145  0.00  0.00    +0.000 HD
BRANCH  45  47
ATOM     47  C   UNL     1       5.527  -0.817  10.246  0.00  0.00    +0.000 C 
BRANCH  47  48
ATOM     48  C   UNL     1       5.077  -0.201  11.386  0.00  0.00    +0.000 C 
ATOM     49  N   UNL     1       4.749   0.673  10.634  0.00  0.00    +0.000 N 
ATOM     50  O   UNL     1       4.573  -0.580  12.367  0.00  0.00    +0.000 OA
ATOM     51  H   UNL     1       5.668   1.768  10.131  0.00  0.00    +0.000 HD
ATOM     52  H   UNL     1       3.565   1.130  11.079  0.00  0.00    +0.000 HD
ENDBRANCH  47  48
ENDBRANCH  45  47
ENDBRANCH  42  43
BRANCH  42  53
ATOM     53  C   UNL     1       5.778   2.204   6.204  0.00  0.00    +0.000 C 
BRANCH  53  54
ATOM     54  C   UNL     1       4.918   2.823   7.083  0.00  0.00    +0.000 C 
BRANCH  54  55
ATOM     55  C   UNL     1       3.402   2.992   6.821  0.00  0.00    +0.000 C 
BRANCH  55  59
ATOM     56  N   UNL     1       1.298   5.323   8.553  0.00  0.00    +0.000 NA
ATOM     57  C   UNL     1       1.722   4.523   7.634  0.00  0.00    +0.000 C 
ATOM     58  N   UNL     1       1.226   4.433   6.350  0.00  0.00    +0.000 N 
ATOM     59  N   UNL     1       2.702   3.532   8.042  0.00  0.00    +0.000 N 
ATOM     60  H   UNL     1       0.432   5.797   8.311  0.00  0.00    +0.000 HD
ATOM     61  H   UNL     1       0.357   4.888   6.108  0.00  0.00    +0.000 HD
ATOM     62  H   UNL     1       1.642   3.899   5.593  0.00  0.00    +0.000 HD
ATOM     63  H   UNL     1       3.366   4.104   8.724  0.00  0.00    +0.000 HD
ENDBRANCH  55  59
ENDBRANCH  54  55
ENDBRANCH  53  54
ENDBRANCH  42  53
ENDBRANCH  38  42
ENDBRANCH  31  39
ENDBRANCH   1  36
BRANCH  14  64
ATOM     64  C   UNL     1       8.026  -0.530  10.359  0.00  0.00    +0.000 C 
BRANCH  64  65
ATOM     65  C   UNL     1       8.083  -1.942  10.378  0.00  0.00    +0.000 A 
ATOM     66  C   UNL     1       8.858  -2.657   9.545  0.00  0.00    +0.000 A 
ATOM     67  C   UNL     1       8.742  -4.006   9.630  0.00  0.00    +0.000 A 
ATOM     68  C   UNL     1       8.096  -4.617  10.665  0.00  0.00    +0.000 A 
ATOM     69  C   UNL     1       7.315  -3.870  11.470  0.00  0.00    +0.000 A 
ATOM     70  C   UNL     1       7.332  -2.549  11.344  0.00  0.00    +0.000 A 
ENDBRANCH  64  65
ENDBRANCH  14  64
BRANCH  10  71
ATOM     71  C   UNL     1      10.261   1.814  12.298  0.00  0.00    +0.000 C 
BRANCH  71  72
ATOM     72  C   UNL     1      11.190   2.874  12.074  0.00  0.00    +0.000 A 
ATOM     73  C   UNL     1      11.674   3.505  13.186  0.00  0.00    +0.000 A 
ATOM     74  C   UNL     1      12.800   4.277  13.111  0.00  0.00    +0.000 A 
ATOM     75  C   UNL     1      13.410   4.445  11.891  0.00  0.00    +0.000 A 
ATOM     76  C   UNL     1      12.869   3.869  10.757  0.00  0.00    +0.000 A 
ATOM     77  C   UNL     1      11.747   3.086  10.842  0.00  0.00    +0.000 A 
BRANCH  75  78
ATOM     78  O   UNL     1      14.537   5.179  11.702  0.00  0.00    +0.000 OA
ATOM     79  H   UNL     1      14.911   5.578  12.503  0.00  0.00    +0.000 HD
ENDBRANCH  75  78
ENDBRANCH  71  72
ENDBRANCH  10  71
BRANCH  18  80
ATOM     80  C   UNL     1       6.603   2.545   8.290  0.00  0.00    +0.000 C 
BRANCH  80  81
ATOM     81  C   UNL     1       5.037   3.669   8.856  0.00  0.00    +0.000 C 
BRANCH  81  82
ATOM     82  C   UNL     1       4.673   4.679   7.355  0.00  0.00    +0.000 C 
ATOM     83  N   UNL     1       5.049   4.251   5.707  0.00  0.00    +0.000 N 
ATOM     84  O   UNL     1       3.670   5.291   7.374  0.00  0.00    +0.000 OA
ATOM     85  H   UNL     1       5.361   3.406   5.347  0.00  0.00    +0.000 HD
ATOM     86  H   UNL     1       4.321   4.104   4.991  0.00  0.00    +0.000 HD
ENDBRANCH  81  82
ENDBRANCH  80  81
ENDBRANCH  18  80
BRANCH  22  87
ATOM     87  C   UNL     1       7.937   1.582   4.290  0.00  0.00    +0.000 C 
BRANCH  87  88
ATOM     88  C   UNL     1       9.304   1.784   4.161  0.00  0.00    +0.000 C 
ATOM     89  N   UNL     1       9.959   2.091   5.341  0.00  0.00    +0.000 N 
ATOM     90  O   UNL     1       9.832   1.567   3.106  0.00  0.00    +0.000 OA
ATOM     91  H   UNL     1       9.589   2.125   6.312  0.00  0.00    +0.000 HD
ATOM     92  H   UNL     1      10.931   2.329   5.293  0.00  0.00    +0.000 HD
ENDBRANCH  87  88
ENDBRANCH  22  87
TORSDOF 20
