REMARK  Name = CHEMBL328348
REMARK  16 active torsions:
REMARK  status: ('A' for Active; 'I' for Inactive)
REMARK    1  A    between atoms: C_1  and  C_2
REMARK    2  A    between atoms: C_2  and  C_3
REMARK    3  A    between atoms: C_3  and  C_4
REMARK    4  A    between atoms: C_3  and  C_5
REMARK    5  A    between atoms: C_9  and  C_10
REMARK    6  A    between atoms: C_10  and  C_11
REMARK    7  A    between atoms: C_10  and  C_12
REMARK    8  A    between atoms: C_12  and  C_13
REMARK    9  A    between atoms: C_17  and  C_18
REMARK   10  A    between atoms: C_18  and  C_19
REMARK   11  A    between atoms: C_36  and  C_37
REMARK   12  A    between atoms: C_37  and  C_38
REMARK   13  A    between atoms: C_38  and  C_39
REMARK   14  A    between atoms: C_39  and  N_40
REMARK   15  A    between atoms: C_44  and  C_45
REMARK   16  A    between atoms: C_45  and  C_46
REMARK                            x       y       z     vdW  Elec       q    Type
REMARK                         _______ _______ _______ _____ _____    ______ ____
ROOT
ATOM      1  C   UNL     1       5.186   0.824   1.006  0.00  0.00    +0.000 C 
ATOM      2  N   UNL     1       6.654   1.871   0.383  0.00  0.00    +0.000 N 
ATOM      3  C   UNL     1       6.291   3.444   0.400  0.00  0.00    +0.000 C 
ATOM      4  O   UNL     1       5.251   3.928   1.659  0.00  0.00    +0.000 OA
ATOM      5  C   UNL     1       5.162   3.446  -1.307  0.00  0.00    +0.000 C 
ATOM      6  N   UNL     1       3.310   3.582  -1.314  0.00  0.00    +0.000 N 
ATOM      7  C   UNL     1       2.456   4.443  -0.882  0.00  0.00    +0.000 C 
ATOM      8  O   UNL     1       1.289   4.017  -0.974  0.00  0.00    +0.000 OA
ATOM      9  C   UNL     1       3.145   5.680  -0.285  0.00  0.00    +0.000 C 
ATOM     10  N   UNL     1       2.538   6.583  -1.145  0.00  0.00    +0.000 N 
ATOM     11  C   UNL     1       1.214   6.837  -1.169  0.00  0.00    +0.000 C 
ATOM     12  O   UNL     1       0.814   7.588  -2.054  0.00  0.00    +0.000 OA
ATOM     13  C   UNL     1       0.244   6.233  -0.138  0.00  0.00    +0.000 C 
ATOM     14  C   UNL     1       0.764   5.491   1.059  0.00  0.00    +0.000 C 
ATOM     15  C   UNL     1      -0.242   4.696   1.827  0.00  0.00    +0.000 C 
ATOM     16  S   UNL     1       0.464   4.126   3.326  0.00  0.00    +0.000 S 
ATOM     17  C   UNL     1      -0.294   2.694   4.088  0.00  0.00    +0.000 C 
ATOM     18  C   UNL     1       0.608   1.757   4.961  0.00  0.00    +0.000 C 
ATOM     19  N   UNL     1       1.125   0.694   4.185  0.00  0.00    +0.000 N 
ATOM     20  C   UNL     1       2.015   0.903   3.262  0.00  0.00    +0.000 C 
ATOM     21  O   UNL     1       2.408  -0.131   2.752  0.00  0.00    +0.000 OA
ATOM     22  C   UNL     1       2.448   2.324   3.052  0.00  0.00    +0.000 C 
ATOM     23  N   UNL     1       3.822   2.398   3.512  0.00  0.00    +0.000 N 
ATOM     24  C   UNL     1       4.724   1.435   3.177  0.00  0.00    +0.000 C 
ATOM     25  O   UNL     1       5.838   1.757   3.994  0.00  0.00    +0.000 OA
ATOM     26  H   UNL     1       7.317   2.075   1.196  0.00  0.00    +0.000 HD
ATOM     27  H   UNL     1       2.544   2.827  -1.235  0.00  0.00    +0.000 HD
ATOM     28  H   UNL     1       3.147   6.863  -1.900  0.00  0.00    +0.000 HD
ATOM     29  H   UNL     1       1.007  -0.302   4.307  0.00  0.00    +0.000 HD
ATOM     30  H   UNL     1       4.233   3.334   3.760  0.00  0.00    +0.000 HD
ENDROOT
BRANCH   1  31
ATOM     31  C   UNL     1       5.244  -0.900  -0.078  0.00  0.00    +0.000 C 
ATOM     32  C   UNL     1       5.138  -0.535  -1.614  0.00  0.00    +0.000 C 
BRANCH  31  34
ATOM     33  C   UNL     1       7.274  -0.923   0.551  0.00  0.00    +0.000 C 
ATOM     34  C   UNL     1       6.123  -1.825   0.692  0.00  0.00    +0.000 C 
ENDBRANCH  31  34
ENDBRANCH   1  31
BRANCH   5  35
ATOM     35  C   UNL     1       5.275   4.098  -2.547  0.00  0.00    +0.000 C 
ATOM     36  C   UNL     1       4.460   3.357  -3.549  0.00  0.00    +0.000 C 
BRANCH  35  37
ATOM     37  C   UNL     1       6.747   4.044  -2.374  0.00  0.00    +0.000 C 
ATOM     38  C   UNL     1       7.278   2.609  -2.559  0.00  0.00    +0.000 C 
ENDBRANCH  35  37
ENDBRANCH   5  35
BRANCH   9  39
ATOM     39  C   UNL     1       4.600   5.927  -0.387  0.00  0.00    +0.000 C 
BRANCH  39  40
ATOM     40  C   UNL     1       5.264   5.008   0.397  0.00  0.00    +0.000 A 
ATOM     41  C   UNL     1       6.540   5.156   1.689  0.00  0.00    +0.000 A 
ATOM     42  N   UNL     1       6.579   3.622   2.707  0.00  0.00    +0.000 N 
ATOM     43  C   UNL     1       5.706   2.287   1.925  0.00  0.00    +0.000 A 
ATOM     44  C   UNL     1       5.904   0.272   2.469  0.00  0.00    +0.000 A 
ATOM     45  C   UNL     1       4.426  -0.698   1.692  0.00  0.00    +0.000 A 
ATOM     46  C   UNL     1       3.611   0.086   0.061  0.00  0.00    +0.000 A 
ATOM     47  C   UNL     1       4.096   1.641  -0.716  0.00  0.00    +0.000 A 
ATOM     48  C   UNL     1       4.626   3.024   0.482  0.00  0.00    +0.000 A 
ATOM     49  H   UNL     1       6.609   3.393   3.694  0.00  0.00    +0.000 HD
ENDBRANCH  39  40
ENDBRANCH   9  39
BRANCH  18  50
ATOM     50  C   UNL     1       1.719   2.453   5.771  0.00  0.00    +0.000 C 
BRANCH  50  51
ATOM     51  C   UNL     1       2.612   1.458   6.484  0.00  0.00    +0.000 C 
BRANCH  51  52
ATOM     52  C   UNL     1       3.765   2.183   7.150  0.00  0.00    +0.000 C 
BRANCH  52  53
ATOM     53  N   UNL     1       4.571   1.217   7.872  0.00  0.00    +0.000 NA
ATOM     54  H   UNL     1       4.004   0.760   8.582  0.00  0.00    +0.000 HD
ATOM     55  H   UNL     1       5.326   1.700   8.351  0.00  0.00    +0.000 HD
ENDBRANCH  52  53
ENDBRANCH  51  52
ENDBRANCH  50  51
ENDBRANCH  18  50
BRANCH  22  56
ATOM     56  C   UNL     1       1.883   2.754   1.599  0.00  0.00    +0.000 C 
BRANCH  56  57
ATOM     57  C   UNL     1       2.065   1.814   0.568  0.00  0.00    +0.000 C 
ATOM     58  N   UNL     1       3.181   1.997   1.162  0.00  0.00    +0.000 N 
ATOM     59  O   UNL     1       1.749   1.583  -0.568  0.00  0.00    +0.000 OA
ATOM     60  H   UNL     1       3.542   1.754   2.041  0.00  0.00    +0.000 HD
ATOM     61  H   UNL     1       4.015   1.743   0.806  0.00  0.00    +0.000 HD
ENDBRANCH  56  57
ENDBRANCH  22  56
TORSDOF 12
