REMARK  Name = CHEMBL2037495
REMARK  7 active torsions:
REMARK  status: ('A' for Active; 'I' for Inactive)
REMARK    1  A    between atoms: C_1  and  C_2
REMARK    2  A    between atoms: C_5  and  C_6
REMARK    3  A    between atoms: C_6  and  C_7
REMARK    4  A    between atoms: C_6  and  N_15
REMARK    5  A    between atoms: CA_18  and  C_19
REMARK    6  A    between atoms: CA_31  and  C_32
REMARK    7  A    between atoms: C_32  and  C_33
REMARK                            x       y       z     vdW  Elec       q    Type
REMARK                         _______ _______ _______ _____ _____    ______ ____
ROOT
ATOM      1  N   UNL     1      -4.012  -1.069  -0.183  0.00  0.00    +0.000 N 
ATOM      2  C   UNL     1      -4.018  -1.898   0.967  0.00  0.00    +0.000 C 
ATOM      3  O   UNL     1      -3.434  -1.564   1.986  0.00  0.00    +0.000 OA
ATOM      4  CA  UNL     1      -4.599  -3.367   0.746  0.00  0.00    +0.000 C 
ATOM      5  N   UNL     1      -5.900  -3.223   0.151  0.00  0.00    +0.000 N 
ATOM      6  C   UNL     1      -6.118  -2.415  -0.923  0.00  0.00    +0.000 C 
ATOM      7  O   UNL     1      -7.147  -2.506  -1.525  0.00  0.00    +0.000 OA
ATOM      8  CA  UNL     1      -4.934  -1.495  -1.298  0.00  0.00    +0.000 C 
ATOM      9  H   UNL     1      -6.679  -3.835   0.362  0.00  0.00    +0.000 HD
ENDROOT
BRANCH   4  10
ATOM     10  C   UNL     1      -4.754  -4.219   2.008  0.00  0.00    +0.000 C 
ATOM     11  C   UNL     1      -3.462  -4.651   2.706  0.00  0.00    +0.000 C 
ATOM     12  C   UNL     1      -3.829  -4.680   4.136  0.00  0.00    +0.000 A 
ATOM     13  C   UNL     1      -3.037  -5.109   5.184  0.00  0.00    +0.000 A 
ATOM     14  C   UNL     1      -3.548  -4.957   6.465  0.00  0.00    +0.000 A 
ATOM     15  C   UNL     1      -4.787  -4.324   6.666  0.00  0.00    +0.000 A 
ATOM     16  C   UNL     1      -5.516  -3.801   5.599  0.00  0.00    +0.000 A 
ATOM     17  C   UNL     1      -5.025  -3.993   4.333  0.00  0.00    +0.000 A 
ATOM     18  C   UNL     1      -5.567  -3.444   3.061  0.00  0.00    +0.000 C 
ENDBRANCH   4  10
BRANCH   1  19
ATOM     19  C   UNL     1      -2.976   0.147  -0.207  0.00  0.00    +0.000 C 
BRANCH  19  20
ATOM     20  C   UNL     1      -1.479   0.002   0.069  0.00  0.00    +0.000 C 
ATOM     21  O   UNL     1      -0.789   1.034   0.077  0.00  0.00    +0.000 OA
ATOM     22  N   UNL     1      -0.885  -1.183   0.352  0.00  0.00    +0.000 N 
ATOM     23  C   UNL     1      -1.251  -2.525  -0.070  0.00  0.00    +0.000 C 
ATOM     24  C   UNL     1      -1.094  -3.421   1.142  0.00  0.00    +0.000 C 
ATOM     25  O   UNL     1       0.216  -3.412   1.706  0.00  0.00    +0.000 OA
ATOM     26  C   UNL     1       0.462  -2.078   2.198  0.00  0.00    +0.000 C 
ATOM     27  C   UNL     1       0.407  -1.111   1.020  0.00  0.00    +0.000 C 
ENDBRANCH  19  20
BRANCH  19  32
ATOM     28  C   UNL     1      -4.713   3.601  -4.591  0.00  0.00    +0.000 C 
ATOM     29  C   UNL     1      -4.017   2.743  -3.574  0.00  0.00    +0.000 A 
ATOM     30  C   UNL     1      -4.832   2.086  -2.762  0.00  0.00    +0.000 A 
ATOM     31  C   UNL     1      -4.286   1.581  -1.581  0.00  0.00    +0.000 A 
ATOM     32  C   UNL     1      -3.057   1.142  -1.390  0.00  0.00    +0.000 A 
ATOM     33  C   UNL     1      -2.260   1.741  -2.322  0.00  0.00    +0.000 A 
ATOM     34  N   UNL     1      -2.695   2.601  -3.356  0.00  0.00    +0.000 NA
ENDBRANCH  19  32
ENDBRANCH   1  19
BRANCH   8  35
ATOM     35  C   UNL     1      -5.732  -0.398  -2.072  0.00  0.00    +0.000 C 
BRANCH  35  36
ATOM     36  C   UNL     1      -6.718   0.655  -1.039  0.00  0.00    +0.000 C 
ATOM     37  C   UNL     1      -6.384   2.139  -0.255  0.00  0.00    +0.000 C 
ATOM     38  C   UNL     1      -7.402   2.037  -1.328  0.00  0.00    +0.000 C 
ENDBRANCH  35  36
ENDBRANCH   8  35
TORSDOF 6
