REMARK  Name = CHEMBL1093709
REMARK  9 active torsions:
REMARK  status: ('A' for Active; 'I' for Inactive)
REMARK    1  A    between atoms: C_1  and  C_2
REMARK    2  A    between atoms: C_2  and  N_3
REMARK    3  A    between atoms: N_3  and  C_21
REMARK    4  A    between atoms: C_4  and  C_6
REMARK    5  A    between atoms: C_9  and  C_10
REMARK    6  A    between atoms: C_13  and  O_14
REMARK    7  A    between atoms: O_14  and  C_15
REMARK    8  A    between atoms: C_24  and  O_25
REMARK    9  A    between atoms: O_25  and  C_26
REMARK                            x       y       z     vdW  Elec       q    Type
REMARK                         _______ _______ _______ _____ _____    ______ ____
ROOT
ATOM      1  C   UNL     1       0.483   0.667   2.288  0.00  0.00    +0.000 A 
ATOM      2  C   UNL     1      -0.290   1.756   2.487  0.00  0.00    +0.000 A 
ATOM      3  C   UNL     1      -1.724   1.729   2.245  0.00  0.00    +0.000 A 
ATOM      4  C   UNL     1      -2.285   0.639   1.695  0.00  0.00    +0.000 A 
ATOM      5  N   UNL     1      -1.512  -0.476   1.494  0.00  0.00    +0.000 N 
ATOM      6  C   UNL     1      -0.216  -0.616   1.963  0.00  0.00    +0.000 A 
ATOM      7  O   UNL     1       0.348  -1.695   1.962  0.00  0.00    +0.000 OA
ATOM      8  H   UNL     1      -1.915  -1.283   1.032  0.00  0.00    +0.000 HD
ENDROOT
BRANCH   4   9
ATOM      9  C   UNL     1      -3.713   0.542   1.357  0.00  0.00    +0.000 A 
ATOM     10  C   UNL     1      -4.473  -0.531   1.845  0.00  0.00    +0.000 A 
ATOM     11  C   UNL     1      -5.803  -0.700   1.448  0.00  0.00    +0.000 A 
ATOM     12  C   UNL     1      -6.418   0.244   0.625  0.00  0.00    +0.000 A 
ATOM     13  C   UNL     1      -5.667   1.317   0.141  0.00  0.00    +0.000 A 
ATOM     14  C   UNL     1      -4.323   1.463   0.500  0.00  0.00    +0.000 A 
BRANCH  12  15
ATOM     15  O   UNL     1      -7.745   0.030   0.371  0.00  0.00    +0.000 OA
ATOM     16  C   UNL     1      -8.419   1.059  -0.348  0.00  0.00    +0.000 C 
ENDBRANCH  12  15
ENDBRANCH   4   9
BRANCH   1  18
ATOM     17  N   UNL     1       2.833   0.548   1.288  0.00  0.00    +0.000 N 
ATOM     18  C   UNL     1       1.973   0.810   2.384  0.00  0.00    +0.000 C 
ATOM     19  O   UNL     1       2.392   1.310   3.437  0.00  0.00    +0.000 OA
BRANCH  17  20
ATOM     20  C   UNL     1       4.276   0.618   1.520  0.00  0.00    +0.000 A 
ATOM     21  C   UNL     1       5.158   1.108   0.551  0.00  0.00    +0.000 A 
ATOM     22  C   UNL     1       6.531   1.206   0.807  0.00  0.00    +0.000 A 
ATOM     23  C   UNL     1       7.027   0.782   2.027  0.00  0.00    +0.000 A 
ATOM     24  N   UNL     1       6.221   0.259   2.972  0.00  0.00    +0.000 NA
ATOM     25  C   UNL     1       4.881   0.200   2.707  0.00  0.00    +0.000 A 
BRANCH  23  26
ATOM     26  O   UNL     1       8.345   0.852   2.396  0.00  0.00    +0.000 OA
ATOM     27  C   UNL     1       9.240   1.433   1.454  0.00  0.00    +0.000 C 
ENDBRANCH  23  26
ENDBRANCH  17  20
BRANCH  17  29
ATOM     28  C   UNL     1       1.037   0.169  -0.527  0.00  0.00    +0.000 C 
ATOM     29  C   UNL     1       2.481   0.116  -0.102  0.00  0.00    +0.000 C 
ENDBRANCH  17  29
ENDBRANCH   1  18
TORSDOF 6
