REMARK  Name = CHEMBL592494
REMARK  7 active torsions:
REMARK  status: ('A' for Active; 'I' for Inactive)
REMARK    1  A    between atoms: C_1  and  O_2
REMARK    2  A    between atoms: O_2  and  C_3
REMARK    3  A    between atoms: C_6  and  N_7
REMARK    4  A    between atoms: C_8  and  C_9
REMARK    5  A    between atoms: C_16  and  O_17
REMARK    6  A    between atoms: O_17  and  C_18
REMARK    7  A    between atoms: C_24  and  C_25
REMARK                            x       y       z     vdW  Elec       q    Type
REMARK                         _______ _______ _______ _____ _____    ______ ____
ROOT
ATOM      1  N   UNL     1       5.346  -0.187  -4.865  0.00  0.00    +0.000 N 
ATOM      2  C   UNL     1       5.578  -1.258  -5.731  0.00  0.00    +0.000 A 
ATOM      3  C   UNL     1       5.079  -2.659  -5.657  0.00  0.00    +0.000 C 
ATOM      4  N   UNL     1       6.262  -0.816  -6.773  0.00  0.00    +0.000 NA
ATOM      5  N   UNL     1       6.489   0.519  -6.618  0.00  0.00    +0.000 NA
ATOM      6  C   UNL     1       6.015   0.900  -5.438  0.00  0.00    +0.000 A 
ATOM      7  N   UNL     1       6.110   2.139  -4.898  0.00  0.00    +0.000 N 
ATOM      8  C   UNL     1       5.777   3.300  -5.691  0.00  0.00    +0.000 C 
ATOM      9  C   UNL     1       7.017   4.187  -5.881  0.00  0.00    +0.000 C 
ATOM     10  C   UNL     1       7.458   4.735  -4.544  0.00  0.00    +0.000 C 
ATOM     11  C   UNL     1       7.823   3.472  -3.717  0.00  0.00    +0.000 C 
ATOM     12  C   UNL     1       6.660   2.461  -3.582  0.00  0.00    +0.000 C 
ENDROOT
BRANCH   1  16
ATOM     13  C   UNL     1       3.171   0.009  -1.301  0.00  0.00    +0.000 A 
ATOM     14  C   UNL     1       2.806   0.857  -2.337  0.00  0.00    +0.000 A 
ATOM     15  C   UNL     1       3.511   0.787  -3.547  0.00  0.00    +0.000 A 
ATOM     16  C   UNL     1       4.546  -0.142  -3.692  0.00  0.00    +0.000 A 
ATOM     17  C   UNL     1       4.867  -0.921  -2.595  0.00  0.00    +0.000 A 
ATOM     18  N   UNL     1       4.206  -0.856  -1.406  0.00  0.00    +0.000 NA
BRANCH  13  20
ATOM     19  C   UNL     1       1.164   0.062  -0.062  0.00  0.00    +0.000 C 
ATOM     20  O   UNL     1       2.590   0.057  -0.059  0.00  0.00    +0.000 OA
ENDBRANCH  13  20
ENDBRANCH   1  16
BRANCH  10  21
ATOM     21  O   UNL     1       6.425   5.548  -3.919  0.00  0.00    +0.000 OA
BRANCH  21  22
ATOM     22  C   UNL     1       6.005   6.741  -4.504  0.00  0.00    +0.000 A 
ATOM     23  C   UNL     1       6.203   7.900  -3.708  0.00  0.00    +0.000 A 
ATOM     24  C   UNL     1       5.612   9.135  -4.044  0.00  0.00    +0.000 A 
ATOM     25  C   UNL     1       4.800   9.224  -5.157  0.00  0.00    +0.000 A 
ATOM     26  F   UNL     1       4.170  10.363  -5.468  0.00  0.00    +0.000 F 
ATOM     27  C   UNL     1       4.601   8.123  -5.955  0.00  0.00    +0.000 A 
ATOM     28  C   UNL     1       5.177   6.873  -5.658  0.00  0.00    +0.000 A 
ATOM     29  C   UNL     1       4.708   5.848  -6.653  0.00  0.00    +0.000 C 
ENDBRANCH  21  22
ENDBRANCH  10  21
TORSDOF 4
