REMARK  Name = CHEMBL1254210
REMARK  7 active torsions:
REMARK  status: ('A' for Active; 'I' for Inactive)
REMARK    1  A    between atoms: C_1  and  O_2
REMARK    2  A    between atoms: O_2  and  N_3
REMARK    3  A    between atoms: C_6  and  C_7
REMARK    4  A    between atoms: C_9  and  C_10
REMARK    5  A    between atoms: C_14  and  C_16
REMARK    6  A    between atoms: C_19  and  C_20
REMARK    7  A    between atoms: C_25  and  C_26
REMARK                            x       y       z     vdW  Elec       q    Type
REMARK                         _______ _______ _______ _____ _____    ______ ____
ROOT
ATOM      1  N   UNL     1       3.157  -0.426   1.044  0.00  0.00    +0.000 NA
ATOM      2  C   UNL     1       4.457  -0.363   0.992  0.00  0.00    +0.000 C 
ATOM      3  C   UNL     1       5.315  -0.759   2.163  0.00  0.00    +0.000 C 
ATOM      4  C   UNL     1       6.460   0.236   1.986  0.00  0.00    +0.000 C 
ATOM      5  N   UNL     1       6.561   0.432   0.525  0.00  0.00    +0.000 N 
ATOM      6  C   UNL     1       7.758   0.812  -0.071  0.00  0.00    +0.000 C 
ATOM      7  O   UNL     1       8.795   0.993   0.575  0.00  0.00    +0.000 OA
ATOM      8  C   UNL     1       5.313   0.091  -0.171  0.00  0.00    +0.000 C 
ENDROOT
BRANCH   4   9
ATOM      9  C   UNL     1       6.209   1.545   2.686  0.00  0.00    +0.000 A 
ATOM     10  N   UNL     1       6.936   2.171   3.589  0.00  0.00    +0.000 NA
ATOM     11  C   UNL     1       6.260   3.355   3.740  0.00  0.00    +0.000 A 
ATOM     12  C   UNL     1       6.782   4.476   4.548  0.00  0.00    +0.000 C 
ATOM     13  N   UNL     1       5.124   3.448   3.037  0.00  0.00    +0.000 NA
ATOM     14  O   UNL     1       5.083   2.241   2.337  0.00  0.00    +0.000 OA
ENDBRANCH   4   9
BRANCH   6  15
ATOM     15  C   UNL     1       7.819   1.019  -1.543  0.00  0.00    +0.000 A 
ATOM     16  C   UNL     1       8.810   0.406  -2.323  0.00  0.00    +0.000 A 
ATOM     17  C   UNL     1       8.906   0.696  -3.695  0.00  0.00    +0.000 A 
ATOM     18  C   UNL     1       7.975   1.539  -4.327  0.00  0.00    +0.000 A 
ATOM     19  C   UNL     1       7.006   2.154  -3.522  0.00  0.00    +0.000 A 
ATOM     20  C   UNL     1       6.955   1.934  -2.143  0.00  0.00    +0.000 A 
BRANCH  18  21
ATOM     21  C   UNL     1       8.034   1.771  -5.787  0.00  0.00    +0.000 A 
ATOM     22  C   UNL     1       7.953   0.670  -6.664  0.00  0.00    +0.000 A 
ATOM     23  C   UNL     1       8.115   0.822  -8.044  0.00  0.00    +0.000 A 
ATOM     24  C   UNL     1       8.289   2.089  -8.585  0.00  0.00    +0.000 A 
ATOM     25  C   UNL     1       8.329   3.200  -7.745  0.00  0.00    +0.000 A 
ATOM     26  C   UNL     1       8.205   3.057  -6.351  0.00  0.00    +0.000 A 
ATOM     27  C   UNL     1       8.259   4.291  -5.491  0.00  0.00    +0.000 C 
ENDBRANCH  18  21
ENDBRANCH   6  15
BRANCH   1  29
ATOM     28  C   UNL     1       1.149   0.022  -0.045  0.00  0.00    +0.000 C 
ATOM     29  O   UNL     1       2.577   0.038  -0.154  0.00  0.00    +0.000 OA
ENDBRANCH   1  29
TORSDOF 4
