REMARK  Name = CHEMBL401858
REMARK  9 active torsions:
REMARK  status: ('A' for Active; 'I' for Inactive)
REMARK    1  A    between atoms: CD1_1  and  CG1_2
REMARK    2  A    between atoms: CG1_2  and  CB_3
REMARK    3  A    between atoms: CB_3  and  CG2_4
REMARK    4  A    between atoms: CB_3  and  CA_5
REMARK    5  A    between atoms: C_9  and  C_10
REMARK    6  A    between atoms: N_21  and  C_22
REMARK    7  A    between atoms: C_22  and  C_23
REMARK    8  A    between atoms: C_22  and  C_31
REMARK    9  A    between atoms: C_34  and  C_35
REMARK                            x       y       z     vdW  Elec       q    Type
REMARK                         _______ _______ _______ _____ _____    ______ ____
ROOT
ATOM      1  CA  ILE A   2       4.942  -1.187  -0.254  0.00  0.00    +0.000 C 
ATOM      2  C   ILE A   2       5.436  -2.408  -1.113  0.00  0.00    +0.000 C 
ATOM      3  O   ILE A   2       5.229  -2.852  -2.204  0.00  0.00    +0.000 OA
ATOM      4  N   UNK A   1       6.506  -2.992  -0.608  0.00  0.00    +0.000 N 
ATOM      5  C   UNK A   1       7.382  -2.269   0.229  0.00  0.00    +0.000 C 
ATOM      6  C   UNK A   1       6.568  -1.967   1.486  0.00  0.00    +0.000 C 
ATOM      7  O   UNK A   1       7.133  -2.080   2.549  0.00  0.00    +0.000 OA
ATOM      8  N   ILE A   2       5.215  -1.577   1.215  0.00  0.00    +0.000 N 
ATOM      9  H   UNK A   1       6.805  -3.604  -1.357  0.00  0.00    +0.000 HD
ENDROOT
BRANCH   5  10
ATOM     10  C   UNK A   1       8.561  -3.188   0.519  0.00  0.00    +0.000 C 
ATOM     11  C   UNK A   1       9.310  -3.438  -0.810  0.00  0.00    +0.000 C 
ATOM     12  C   UNK A   1       8.648  -4.694  -1.319  0.00  0.00    +0.000 A 
ATOM     13  C   UNK A   1       8.489  -5.082  -2.642  0.00  0.00    +0.000 A 
ATOM     14  C   UNK A   1       7.661  -6.174  -2.921  0.00  0.00    +0.000 A 
ATOM     15  C   UNK A   1       6.980  -6.843  -1.891  0.00  0.00    +0.000 A 
ATOM     16  C   UNK A   1       7.099  -6.417  -0.566  0.00  0.00    +0.000 A 
ATOM     17  C   UNK A   1       7.942  -5.347  -0.291  0.00  0.00    +0.000 A 
ATOM     18  C   UNK A   1       8.082  -4.594   1.007  0.00  0.00    +0.000 C 
ENDBRANCH   5  10
BRANCH   1  19
ATOM     19  CB  ILE A   2       3.516  -0.809  -0.638  0.00  0.00    +0.000 C 
ATOM     20  CG2 ILE A   2       3.173  -1.620  -2.116  0.00  0.00    +0.000 C 
BRANCH  19  22
ATOM     21  CD1 ILE A   2       1.450   0.826   0.270  0.00  0.00    +0.000 C 
ATOM     22  CG1 ILE A   2       2.958   0.637  -0.120  0.00  0.00    +0.000 C 
ENDBRANCH  19  22
ENDBRANCH   1  19
BRANCH   8  23
ATOM     23  C   UNK A   0       4.157  -1.618   2.335  0.00  0.00    +0.000 C 
BRANCH  23  24
ATOM     24  C   UNK A   0       2.789  -2.683   2.284  0.00  0.00    +0.000 C 
ATOM     25  O   UNK A   0       2.518  -3.382   3.271  0.00  0.00    +0.000 OA
ATOM     26  N   UNK A   0       1.766  -2.607   1.292  0.00  0.00    +0.000 N 
ATOM     27  C   UNK A   0       1.884  -2.923  -0.136  0.00  0.00    +0.000 C 
ATOM     28  C   UNK A   0       0.942  -1.843  -0.924  0.00  0.00    +0.000 C 
ATOM     29  O   UNK A   0      -0.383  -1.719  -0.499  0.00  0.00    +0.000 OA
ATOM     30  C   UNK A   0      -0.519  -1.714   0.902  0.00  0.00    +0.000 C 
ATOM     31  C   UNK A   0       0.350  -2.779   1.601  0.00  0.00    +0.000 C 
ENDBRANCH  23  24
BRANCH  23  32
ATOM     32  C   UNK A   0       4.841  -1.696   3.760  0.00  0.00    +0.000 A 
ATOM     33  C   UNK A   0       4.709  -2.660   4.738  0.00  0.00    +0.000 A 
ATOM     34  O   UNK A   0       5.634  -2.466   5.708  0.00  0.00    +0.000 OA
ATOM     35  C   UNK A   0       6.299  -1.341   5.323  0.00  0.00    +0.000 A 
ATOM     36  C   UNK A   0       7.441  -0.979   6.200  0.00  0.00    +0.000 C 
ATOM     37  N   UNK A   0       5.795  -0.766   4.236  0.00  0.00    +0.000 NA
ENDBRANCH  23  32
ENDBRANCH   8  23
TORSDOF 6
