REMARK  Name = CHEMBL142324
REMARK  6 active torsions:
REMARK  status: ('A' for Active; 'I' for Inactive)
REMARK    1  A    between atoms: C_1  and  C_2
REMARK    2  A    between atoms: C_8  and  C_9
REMARK    3  A    between atoms: C_9  and  O_10
REMARK    4  A    between atoms: O_10  and  C_11
REMARK    5  A    between atoms: C_14  and  C_15
REMARK    6  A    between atoms: C_20  and  N_21
REMARK                            x       y       z     vdW  Elec       q    Type
REMARK                         _______ _______ _______ _____ _____    ______ ____
ROOT
ATOM      1  C   UNL     1       4.381  11.184  -0.056  0.00  0.00    +0.000 C 
ATOM      2  O   UNL     1       5.288  11.860  -0.541  0.00  0.00    +0.000 OA
ATOM      3  N   UNL     1       3.122  11.739   0.287  0.00  0.00    +0.000 N 
ATOM      4  C   UNL     1       2.312  12.432  -0.714  0.00  0.00    +0.000 C 
ATOM      5  C   UNL     1       1.687  13.706  -0.167  0.00  0.00    +0.000 C 
ATOM      6  C   UNL     1       0.476  13.318   1.086  0.00  0.00    +0.000 C 
ATOM      7  C   UNL     1       1.733  12.758   2.098  0.00  0.00    +0.000 C 
ATOM      8  C   UNL     1       2.452  11.518   1.571  0.00  0.00    +0.000 C 
ENDROOT
BRANCH   6   9
ATOM      9  N   UNL     1      -1.192  12.868   0.437  0.00  0.00    +0.000 N 
ATOM     10  C   UNL     1      -1.248  14.254   0.073  0.00  0.00    +0.000 C 
ATOM     11  O   UNL     1      -0.408  14.977  -0.529  0.00  0.00    +0.000 OA
ATOM     12  O   UNL     1      -2.208  14.937   0.646  0.00  0.00    +0.000 OA
ATOM     13  C   UNL     1      -3.078  14.898  -0.414  0.00  0.00    +0.000 C 
ATOM     14  C   UNL     1      -3.843  13.801   0.158  0.00  0.00    +0.000 A 
ATOM     15  C   UNL     1      -5.315  14.171   0.067  0.00  0.00    +0.000 A 
ATOM     16  C   UNL     1      -6.346  13.334   0.323  0.00  0.00    +0.000 A 
ATOM     17  C   UNL     1      -5.843  12.054   0.376  0.00  0.00    +0.000 A 
ATOM     18  C   UNL     1      -4.227  11.688   0.445  0.00  0.00    +0.000 A 
ATOM     19  C   UNL     1      -3.033  12.653   0.559  0.00  0.00    +0.000 A 
ENDBRANCH   6   9
BRANCH   1  23
ATOM     20  C   UNL     1       4.776   6.848  -0.131  0.00  0.00    +0.000 A 
ATOM     21  C   UNL     1       5.863   7.655  -0.480  0.00  0.00    +0.000 A 
ATOM     22  C   UNL     1       5.780   9.062  -0.358  0.00  0.00    +0.000 A 
ATOM     23  C   UNL     1       4.575   9.682   0.033  0.00  0.00    +0.000 A 
ATOM     24  C   UNL     1       3.509   8.847   0.358  0.00  0.00    +0.000 A 
ATOM     25  C   UNL     1       3.609   7.457   0.302  0.00  0.00    +0.000 A 
BRANCH  20  26
ATOM     26  O   UNL     1       4.952   5.490  -0.134  0.00  0.00    +0.000 OA
BRANCH  26  27
ATOM     27  C   UNL     1       3.807   4.714  -0.523  0.00  0.00    +0.000 C 
BRANCH  27  35
ATOM     28  C   UNL     1       1.065   0.056   0.090  0.00  0.00    +0.000 C 
ATOM     29  C   UNL     1       2.580   0.028   0.054  0.00  0.00    +0.000 C 
ATOM     30  O   UNL     1       3.199  -0.863   0.634  0.00  0.00    +0.000 OA
ATOM     31  N   UNL     1       3.197   0.945  -0.789  0.00  0.00    +0.000 N 
ATOM     32  C   UNL     1       4.402   0.566  -1.515  0.00  0.00    +0.000 C 
ATOM     33  C   UNL     1       5.629   1.334  -1.045  0.00  0.00    +0.000 C 
ATOM     34  C   UNL     1       5.387   2.838  -1.079  0.00  0.00    +0.000 C 
ATOM     35  C   UNL     1       4.096   3.217  -0.337  0.00  0.00    +0.000 C 
ATOM     36  C   UNL     1       2.891   2.372  -0.823  0.00  0.00    +0.000 C 
ENDBRANCH  27  35
ENDBRANCH  26  27
ENDBRANCH  20  26
ENDBRANCH   1  23
TORSDOF 5
