REMARK  Name = CHEMBL1090654
REMARK  9 active torsions:
REMARK  status: ('A' for Active; 'I' for Inactive)
REMARK    1  A    between atoms: C_1  and  C_2
REMARK    2  A    between atoms: C_2  and  N_3
REMARK    3  A    between atoms: N_3  and  C_20
REMARK    4  A    between atoms: C_4  and  C_6
REMARK    5  A    between atoms: C_9  and  C_10
REMARK    6  A    between atoms: C_14  and  C_15
REMARK    7  A    between atoms: C_16  and  C_17
REMARK    8  A    between atoms: C_23  and  O_24
REMARK    9  A    between atoms: O_24  and  C_25
REMARK                            x       y       z     vdW  Elec       q    Type
REMARK                         _______ _______ _______ _____ _____    ______ ____
ROOT
ATOM      1  C   UNL     1       0.549   2.349  -0.226  0.00  0.00    +0.000 A 
ATOM      2  C   UNL     1      -0.058   1.886   0.929  0.00  0.00    +0.000 A 
ATOM      3  N   UNL     1      -1.371   1.515   0.978  0.00  0.00    +0.000 NA
ATOM      4  C   UNL     1      -2.106   1.759  -0.139  0.00  0.00    +0.000 A 
ATOM      5  C   UNL     1      -1.521   2.426  -1.214  0.00  0.00    +0.000 A 
ATOM      6  N   UNL     1      -0.190   2.683  -1.314  0.00  0.00    +0.000 NA
ENDROOT
BRANCH   4   7
ATOM      7  C   UNL     1      -3.532   1.378  -0.115  0.00  0.00    +0.000 A 
ATOM      8  C   UNL     1      -4.293   1.760   1.006  0.00  0.00    +0.000 A 
ATOM      9  C   UNL     1      -5.667   1.548   1.062  0.00  0.00    +0.000 A 
ATOM     10  C   UNL     1      -6.309   0.901   0.013  0.00  0.00    +0.000 A 
ATOM     11  C   UNL     1      -5.587   0.450  -1.102  0.00  0.00    +0.000 A 
ATOM     12  C   UNL     1      -6.333  -0.276  -2.192  0.00  0.00    +0.000 C 
ATOM     13  C   UNL     1      -4.191   0.690  -1.179  0.00  0.00    +0.000 A 
ATOM     14  C   UNL     1      -3.407   0.210  -2.381  0.00  0.00    +0.000 C 
ENDBRANCH   4   7
BRANCH   1  16
ATOM     15  N   UNL     1       2.893   1.314  -0.228  0.00  0.00    +0.000 N 
ATOM     16  C   UNL     1       2.033   2.452  -0.352  0.00  0.00    +0.000 C 
ATOM     17  O   UNL     1       2.450   3.575  -0.618  0.00  0.00    +0.000 OA
BRANCH  15  18
ATOM     18  C   UNL     1       4.333   1.556  -0.275  0.00  0.00    +0.000 A 
ATOM     19  C   UNL     1       5.211   0.685  -0.928  0.00  0.00    +0.000 A 
ATOM     20  C   UNL     1       6.583   0.957  -0.988  0.00  0.00    +0.000 A 
ATOM     21  C   UNL     1       7.082   2.087  -0.363  0.00  0.00    +0.000 A 
ATOM     22  N   UNL     1       6.278   2.930   0.315  0.00  0.00    +0.000 NA
ATOM     23  C   UNL     1       4.939   2.661   0.327  0.00  0.00    +0.000 A 
BRANCH  21  24
ATOM     24  O   UNL     1       8.399   2.463  -0.368  0.00  0.00    +0.000 OA
ATOM     25  C   UNL     1       9.296   1.637  -1.102  0.00  0.00    +0.000 C 
ENDBRANCH  21  24
ENDBRANCH  15  18
BRANCH  15  27
ATOM     26  C   UNL     1       1.073  -0.538  -0.120  0.00  0.00    +0.000 C 
ATOM     27  C   UNL     1       2.525  -0.125  -0.051  0.00  0.00    +0.000 C 
ENDBRANCH  15  27
ENDBRANCH   1  16
TORSDOF 5
