REMARK  Name = CHEMBL467185
REMARK  10 active torsions:
REMARK  status: ('A' for Active; 'I' for Inactive)
REMARK    1  A    between atoms: C_1  and  O_2
REMARK    2  A    between atoms: O_2  and  C_3
REMARK    3  A    between atoms: C_3  and  C_4
REMARK    4  A    between atoms: C_7  and  C_8
REMARK    5  A    between atoms: C_11  and  C_12
REMARK    6  A    between atoms: C_17  and  O_18
REMARK    7  A    between atoms: O_18  and  C_19
REMARK    8  A    between atoms: N_22  and  C_23
REMARK    9  A    between atoms: C_26  and  O_27
REMARK   10  A    between atoms: O_27  and  C_28
REMARK                            x       y       z     vdW  Elec       q    Type
REMARK                         _______ _______ _______ _____ _____    ______ ____
ROOT
ATOM      1  C   UNL     1       4.480  -1.399   0.129  0.00  0.00    +0.000 A 
ATOM      2  N   UNL     1       5.345  -1.527  -0.864  0.00  0.00    +0.000 NA
ATOM      3  N   UNL     1       6.623  -1.396  -0.351  0.00  0.00    +0.000 NA
ATOM      4  C   UNL     1       6.527  -1.207   0.954  0.00  0.00    +0.000 A 
ATOM      5  N   UNL     1       5.183  -1.172   1.287  0.00  0.00    +0.000 N 
ENDROOT
BRANCH   4   6
ATOM      6  C   UNL     1       7.600  -1.161   1.949  0.00  0.00    +0.000 A 
ATOM      7  C   UNL     1       8.610  -0.201   1.903  0.00  0.00    +0.000 A 
ATOM      8  C   UNL     1       9.580  -0.162   2.913  0.00  0.00    +0.000 A 
ATOM      9  C   UNL     1       9.481  -0.988   4.047  0.00  0.00    +0.000 A 
ATOM     10  C   UNL     1       8.370  -1.824   4.159  0.00  0.00    +0.000 A 
ATOM     11  C   UNL     1       7.532  -2.010   3.065  0.00  0.00    +0.000 A 
BRANCH   9  12
ATOM     12  C   UNL     1      10.559  -1.028   5.045  0.00  0.00    +0.000 A 
ATOM     13  C   UNL     1      10.771   0.152   5.796  0.00  0.00    +0.000 A 
ATOM     14  C   UNL     1      11.830   0.275   6.694  0.00  0.00    +0.000 A 
ATOM     15  C   UNL     1      12.667  -0.808   6.916  0.00  0.00    +0.000 A 
ATOM     16  C   UNL     1      12.461  -1.995   6.213  0.00  0.00    +0.000 A 
ATOM     17  C   UNL     1      11.430  -2.123   5.263  0.00  0.00    +0.000 A 
BRANCH  17  18
ATOM     18  O   UNL     1      11.480  -3.353   4.652  0.00  0.00    +0.000 OA
ATOM     19  C   UNL     1      10.518  -3.718   3.679  0.00  0.00    +0.000 C 
ENDBRANCH  17  18
ENDBRANCH   9  12
ENDBRANCH   4   6
BRANCH   5  20
ATOM     20  C   UNL     1       4.672  -1.025   2.588  0.00  0.00    +0.000 A 
ATOM     21  C   UNL     1       3.911  -2.038   3.157  0.00  0.00    +0.000 A 
ATOM     22  C   UNL     1       3.537  -1.905   4.488  0.00  0.00    +0.000 A 
ATOM     23  C   UNL     1       3.947  -0.782   5.200  0.00  0.00    +0.000 A 
ATOM     24  N   UNL     1       4.710   0.189   4.655  0.00  0.00    +0.000 NA
ATOM     25  C   UNL     1       5.069   0.051   3.363  0.00  0.00    +0.000 A 
BRANCH  23  26
ATOM     26  O   UNL     1       3.641  -0.540   6.509  0.00  0.00    +0.000 OA
ATOM     27  C   UNL     1       2.838  -1.516   7.152  0.00  0.00    +0.000 C 
ENDBRANCH  23  26
ENDBRANCH   5  20
BRANCH   1  28
ATOM     28  C   UNL     1       2.992  -1.444   0.055  0.00  0.00    +0.000 C 
BRANCH  28  30
ATOM     29  C   UNL     1       1.073  -0.088  -0.071  0.00  0.00    +0.000 C 
ATOM     30  O   UNL     1       2.499  -0.109  -0.079  0.00  0.00    +0.000 OA
ENDBRANCH  28  30
ENDBRANCH   1  28
TORSDOF 7
