REMARK  Name = CHEMBL1643591
REMARK  14 active torsions:
REMARK  status: ('A' for Active; 'I' for Inactive)
REMARK    1  A    between atoms: C_1  and  O_2
REMARK    2  A    between atoms: O_2  and  C_3
REMARK    3  A    between atoms: C_6  and  C_7
REMARK    4  A    between atoms: C_7  and  N_8
REMARK    5  A    between atoms: N_8  and  C_9
REMARK    6  A    between atoms: C_9  and  C_10
REMARK    7  A    between atoms: C_13  and  C_14
REMARK    8  A    between atoms: C_16  and  C_17
REMARK    9  A    between atoms: C_17  and  N_18
REMARK   10  A    between atoms: N_18  and  C_19
REMARK   11  A    between atoms: N_18  and  S_24
REMARK   12  A    between atoms: S_24  and  C_27
REMARK   13  A    between atoms: C_30  and  O_31
REMARK   14  A    between atoms: O_31  and  C_32
REMARK                            x       y       z     vdW  Elec       q    Type
REMARK                         _______ _______ _______ _____ _____    ______ ____
ROOT
ATOM      1  C   UNL     1       3.380  10.165   6.223  0.00  0.00    +0.000 A 
ATOM      2  N   UNL     1       3.610   9.853   7.480  0.00  0.00    +0.000 NA
ATOM      3  C   UNL     1       3.056  10.746   8.369  0.00  0.00    +0.000 A 
ATOM      4  C   UNL     1       2.163  11.607   7.756  0.00  0.00    +0.000 A 
ATOM      5  S   UNL     1       2.219  11.410   6.037  0.00  0.00    +0.000 S 
ENDROOT
BRANCH   1   9
ATOM      6  C   UNL     1       4.881   7.771   2.967  0.00  0.00    +0.000 A 
ATOM      7  C   UNL     1       4.995   9.167   2.908  0.00  0.00    +0.000 A 
ATOM      8  C   UNL     1       4.578   9.970   3.984  0.00  0.00    +0.000 A 
ATOM      9  C   UNL     1       3.935   9.400   5.094  0.00  0.00    +0.000 A 
ATOM     10  C   UNL     1       3.848   8.006   5.158  0.00  0.00    +0.000 A 
ATOM     11  C   UNL     1       4.299   7.205   4.110  0.00  0.00    +0.000 A 
BRANCH   6  12
ATOM     12  C   UNL     1       5.520   6.916   1.890  0.00  0.00    +0.000 C 
BRANCH  12  13
ATOM     13  N   UNL     1       4.842   5.641   1.740  0.00  0.00    +0.000 NA
ATOM     14  H   UNL     1       4.895   5.141   2.623  0.00  0.00    +0.000 HD
BRANCH  13  15
ATOM     15  C   UNL     1       5.466   4.779   0.744  0.00  0.00    +0.000 C 
BRANCH  15  19
ATOM     16  C   UNL     1       3.175   1.164   0.111  0.00  0.00    +0.000 A 
ATOM     17  C   UNL     1       4.333   1.418  -0.627  0.00  0.00    +0.000 A 
ATOM     18  C   UNL     1       5.113   2.548  -0.364  0.00  0.00    +0.000 A 
ATOM     19  C   UNL     1       4.697   3.483   0.589  0.00  0.00    +0.000 A 
ATOM     20  C   UNL     1       3.538   3.205   1.333  0.00  0.00    +0.000 A 
ATOM     21  C   UNL     1       2.789   2.055   1.105  0.00  0.00    +0.000 A 
BRANCH  16  23
ATOM     22  C   UNL     1       1.123   0.010  -0.029  0.00  0.00    +0.000 C 
ATOM     23  O   UNL     1       2.542  -0.021  -0.143  0.00  0.00    +0.000 OA
ENDBRANCH  16  23
ENDBRANCH  15  19
ENDBRANCH  13  15
ENDBRANCH  12  13
ENDBRANCH   6  12
ENDBRANCH   1   9
BRANCH   3  24
ATOM     24  C   UNL     1       3.531  10.772   9.820  0.00  0.00    +0.000 C 
BRANCH  24  25
ATOM     25  N   UNL     1       4.828  10.000  10.079  0.00  0.00    +0.000 NA
BRANCH  25  26
ATOM     26  C   UNL     1       6.011  10.458   9.265  0.00  0.00    +0.000 C 
ATOM     27  C   UNL     1       6.342   9.557   8.077  0.00  0.00    +0.000 C 
ATOM     28  C   UNL     1       7.111  10.463   7.122  0.00  0.00    +0.000 C 
ATOM     29  C   UNL     1       6.783  11.911   7.483  0.00  0.00    +0.000 C 
ATOM     30  C   UNL     1       5.904  11.877   8.712  0.00  0.00    +0.000 C 
ENDBRANCH  25  26
BRANCH  25  31
ATOM     31  S   UNL     1       5.150  10.016  11.781  0.00  0.00    +0.000 S 
ATOM     32  O   UNL     1       5.576  11.357  12.106  0.00  0.00    +0.000 OA
ATOM     33  O   UNL     1       4.007   9.429  12.465  0.00  0.00    +0.000 OA
BRANCH  31  34
ATOM     34  C   UNL     1       6.541   8.923  12.055  0.00  0.00    +0.000 A 
ATOM     35  C   UNL     1       6.391   7.537  11.986  0.00  0.00    +0.000 A 
ATOM     36  C   UNL     1       7.446   6.707  12.404  0.00  0.00    +0.000 A 
ATOM     37  C   UNL     1       8.673   7.247  12.815  0.00  0.00    +0.000 A 
ATOM     38  C   UNL     1       8.811   8.633  12.876  0.00  0.00    +0.000 A 
ATOM     39  C   UNL     1       7.750   9.468  12.508  0.00  0.00    +0.000 A 
BRANCH  37  40
ATOM     40  O   UNL     1       9.655   6.343  13.124  0.00  0.00    +0.000 OA
ATOM     41  C   UNL     1      10.947   6.877  13.413  0.00  0.00    +0.000 C 
ENDBRANCH  37  40
ENDBRANCH  31  34
ENDBRANCH  25  31
ENDBRANCH  24  25
ENDBRANCH   3  24
TORSDOF 12
