REMARK  Name = CHEMBL194584
REMARK  13 active torsions:
REMARK  status: ('A' for Active; 'I' for Inactive)
REMARK    1  A    between atoms: CD1_1  and  CG_2
REMARK    2  A    between atoms: CG_2  and  CD2_3
REMARK    3  A    between atoms: CG_2  and  CB_4
REMARK    4  A    between atoms: CB_4  and  CA_5
REMARK    5  A    between atoms: C_9  and  C_10
REMARK    6  A    between atoms: N_21  and  C_22
REMARK    7  A    between atoms: C_22  and  C_23
REMARK    8  A    between atoms: C_22  and  C_29
REMARK    9  A    between atoms: N_25  and  C_26
REMARK   10  A    between atoms: C_26  and  C_27
REMARK   11  A    between atoms: C_26  and  C_28
REMARK   12  A    between atoms: C_32  and  S_33
REMARK   13  A    between atoms: S_33  and  C_34
REMARK                            x       y       z     vdW  Elec       q    Type
REMARK                         _______ _______ _______ _____ _____    ______ ____
ROOT
ATOM      1  CA  LEU A   2       4.727  -0.016  -1.585  0.00  0.00    +0.000 C 
ATOM      2  C   LEU A   2       5.242  -1.401  -1.148  0.00  0.00    +0.000 C 
ATOM      3  O   LEU A   2       4.729  -2.508  -1.389  0.00  0.00    +0.000 OA
ATOM      4  N   UNK A   1       6.343  -1.320  -0.407  0.00  0.00    +0.000 N 
ATOM      5  C   UNK A   1       7.178  -0.159  -0.543  0.00  0.00    +0.000 C 
ATOM      6  C   UNK A   1       6.386   1.122  -0.238  0.00  0.00    +0.000 C 
ATOM      7  O   UNK A   1       6.997   2.061   0.263  0.00  0.00    +0.000 OA
ATOM      8  N   LEU A   2       5.051   1.131  -0.641  0.00  0.00    +0.000 N 
ATOM      9  H   UNK A   1       6.648  -2.207  -0.024  0.00  0.00    +0.000 HD
ENDROOT
BRANCH   5  10
ATOM     10  C   UNK A   1       8.359  -0.186   0.428  0.00  0.00    +0.000 C 
ATOM     11  C   UNK A   1       9.221  -1.434   0.207  0.00  0.00    +0.000 C 
ATOM     12  C   UNK A   1       8.579  -2.399   1.159  0.00  0.00    +0.000 A 
ATOM     13  C   UNK A   1       8.582  -3.778   1.085  0.00  0.00    +0.000 A 
ATOM     14  C   UNK A   1       7.797  -4.488   1.995  0.00  0.00    +0.000 A 
ATOM     15  C   UNK A   1       7.013  -3.817   2.949  0.00  0.00    +0.000 A 
ATOM     16  C   UNK A   1       6.997  -2.424   3.006  0.00  0.00    +0.000 A 
ATOM     17  C   UNK A   1       7.792  -1.730   2.110  0.00  0.00    +0.000 A 
ATOM     18  C   UNK A   1       7.858  -0.249   1.900  0.00  0.00    +0.000 C 
ENDBRANCH   5  10
BRANCH   1  19
ATOM     19  CB  LEU A   2       3.295  -0.282  -1.660  0.00  0.00    +0.000 C 
BRANCH  19  21
ATOM     20  CD1 LEU A   2       1.468  -0.931  -0.645  0.00  0.00    +0.000 C 
ATOM     21  CG  LEU A   2       2.854  -0.673  -0.271  0.00  0.00    +0.000 C 
ATOM     22  CD2 LEU A   2       3.209  -1.758   0.760  0.00  0.00    +0.000 C 
ENDBRANCH  19  21
ENDBRANCH   1  19
BRANCH   8  23
ATOM     23  C   UNK A   0       4.059   2.322  -0.277  0.00  0.00    +0.000 C 
BRANCH  23  24
ATOM     24  C   UNK A   0       4.793   3.571   0.288  0.00  0.00    +0.000 A 
ATOM     25  C   UNK A   0       4.528   4.087   1.572  0.00  0.00    +0.000 A 
ATOM     26  C   UNK A   0       5.128   5.231   2.056  0.00  0.00    +0.000 A 
ATOM     27  C   UNK A   0       6.179   5.767   1.341  0.00  0.00    +0.000 A 
ATOM     28  C   UNK A   0       6.548   5.244   0.102  0.00  0.00    +0.000 A 
ATOM     29  C   UNK A   0       5.806   4.200  -0.456  0.00  0.00    +0.000 A 
BRANCH  27  30
ATOM     30  S   UNK A   0       7.113   7.038   2.120  0.00  0.00    +0.000 S 
ATOM     31  C   UNK A   0       5.959   8.376   2.269  0.00  0.00    +0.000 C 
ATOM     32  O   UNK A   0       7.451   6.578   3.442  0.00  0.00    +0.000 OA
ATOM     33  O   UNK A   0       8.149   7.452   1.174  0.00  0.00    +0.000 OA
ENDBRANCH  27  30
ENDBRANCH  23  24
BRANCH  23  34
ATOM     34  C   UNK A   0       2.719   2.052   0.735  0.00  0.00    +0.000 C 
ATOM     35  O   UNK A   0       2.813   1.973   1.964  0.00  0.00    +0.000 OA
ATOM     36  N   UNK A   0       1.503   1.612   0.175  0.00  0.00    +0.000 N 
ATOM     37  H   UNK A   0       1.535   1.567  -0.834  0.00  0.00    +0.000 HD
BRANCH  36  38
ATOM     38  C   UNK A   0       0.468   0.739   1.065  0.00  0.00    +0.000 C 
ATOM     39  C   UNK A   0      -0.455   1.800   1.526  0.00  0.00    +0.000 C 
ATOM     40  C   UNK A   0      -0.661  -0.520   0.548  0.00  0.00    +0.000 C 
ENDBRANCH  36  38
ENDBRANCH  23  34
ENDBRANCH   8  23
TORSDOF 8
