REMARK  Name = CHEMBL287042
REMARK  6 active torsions:
REMARK  status: ('A' for Active; 'I' for Inactive)
REMARK    1  A    between atoms: C_1  and  S_2
REMARK    2  A    between atoms: S_2  and  N_5
REMARK    3  A    between atoms: C_9  and  C_10
REMARK    4  A    between atoms: C_10  and  N_11
REMARK    5  A    between atoms: C_16  and  C_17
REMARK    6  A    between atoms: C_22  and  N_23
REMARK                            x       y       z     vdW  Elec       q    Type
REMARK                         _______ _______ _______ _____ _____    ______ ____
ROOT
ATOM      1  N   UNL     1       1.373  -1.598   4.527  0.00  0.00    +0.000 N 
ATOM      2  C   UNL     1       0.465  -0.801   5.191  0.00  0.00    +0.000 A 
ATOM      3  C   UNL     1      -0.489  -1.615   5.768  0.00  0.00    +0.000 A 
ATOM      4  C   UNL     1      -0.176  -2.974   5.459  0.00  0.00    +0.000 A 
ATOM      5  C   UNL     1      -0.772  -4.258   5.755  0.00  0.00    +0.000 A 
ATOM      6  C   UNL     1      -0.210  -5.483   5.277  0.00  0.00    +0.000 A 
ATOM      7  C   UNL     1       0.929  -5.374   4.523  0.00  0.00    +0.000 A 
ATOM      8  C   UNL     1       1.591  -4.164   4.354  0.00  0.00    +0.000 A 
ATOM      9  C   UNL     1       1.021  -2.938   4.729  0.00  0.00    +0.000 A 
ENDROOT
BRANCH   6  10
ATOM     10  C   UNL     1      -0.806  -6.883   5.478  0.00  0.00    +0.000 C 
ATOM     11  O   UNL     1      -1.933  -6.925   5.978  0.00  0.00    +0.000 OA
ATOM     12  N   UNL     1      -0.101  -8.092   5.051  0.00  0.00    +0.000 N 
ATOM     13  C   UNL     1      -0.694  -9.037   4.086  0.00  0.00    +0.000 C 
ATOM     14  C   UNL     1      -0.406 -10.551   4.401  0.00  0.00    +0.000 C 
ATOM     15  C   UNL     1       1.307 -11.041   4.427  0.00  0.00    +0.000 C 
ATOM     16  C   UNL     1       1.657  -9.888   5.641  0.00  0.00    +0.000 C 
ATOM     17  C   UNL     1       1.319  -8.377   5.313  0.00  0.00    +0.000 C 
BRANCH  15  18
ATOM     18  N   UNL     1       2.136 -12.217   3.295  0.00  0.00    +0.000 N 
ATOM     19  C   UNL     1       0.847 -12.595   2.925  0.00  0.00    +0.000 C 
ATOM     20  O   UNL     1       0.037 -13.199   3.739  0.00  0.00    +0.000 OA
ATOM     21  O   UNL     1       0.363 -12.139   1.774  0.00  0.00    +0.000 OA
ATOM     22  C   UNL     1       0.790 -13.158   0.927  0.00  0.00    +0.000 C 
ATOM     23  C   UNL     1       2.117 -12.580   0.694  0.00  0.00    +0.000 A 
ATOM     24  C   UNL     1       2.618 -11.736  -0.296  0.00  0.00    +0.000 A 
ATOM     25  C   UNL     1       3.682 -12.173  -1.075  0.00  0.00    +0.000 A 
ATOM     26  C   UNL     1       4.263 -13.292  -0.559  0.00  0.00    +0.000 A 
ATOM     27  C   UNL     1       3.925 -13.569   0.933  0.00  0.00    +0.000 A 
ATOM     28  C   UNL     1       2.939 -12.644   1.727  0.00  0.00    +0.000 A 
ENDBRANCH  15  18
ENDBRANCH   6  10
BRANCH   1  29
ATOM     29  C   UNL     1       2.471  -1.031   3.713  0.00  0.00    +0.000 C 
BRANCH  29  34
ATOM     30  N   UNL     1       3.388  -0.691   1.327  0.00  0.00    +0.000 NA
ATOM     31  C   UNL     1       4.363  -1.818   1.043  0.00  0.00    +0.000 C 
ATOM     32  C   UNL     1       3.446  -3.000   0.792  0.00  0.00    +0.000 C 
ATOM     33  C   UNL     1       2.469  -2.791   1.908  0.00  0.00    +0.000 C 
ATOM     34  C   UNL     1       2.314  -1.311   2.196  0.00  0.00    +0.000 C 
BRANCH  30  36
ATOM     35  C   UNL     1       1.096   0.025  -0.125  0.00  0.00    +0.000 C 
ATOM     36  S   UNL     1       2.884   0.065  -0.150  0.00  0.00    +0.000 S 
ATOM     37  O   UNL     1       3.294  -0.773  -1.257  0.00  0.00    +0.000 OA
ATOM     38  O   UNL     1       3.307   1.447  -0.074  0.00  0.00    +0.000 OA
ENDBRANCH  30  36
ENDBRANCH  29  34
ENDBRANCH   1  29
TORSDOF 5
