REMARK  Name = CHEMBL286979
REMARK  7 active torsions:
REMARK  status: ('A' for Active; 'I' for Inactive)
REMARK    1  A    between atoms: C_1  and  C_2
REMARK    2  A    between atoms: N_4  and  C_5
REMARK    3  A    between atoms: N_4  and  C_6
REMARK    4  A    between atoms: C_6  and  C_7
REMARK    5  A    between atoms: C_7  and  N_8
REMARK    6  A    between atoms: C_13  and  C_14
REMARK    7  A    between atoms: C_19  and  N_20
REMARK                            x       y       z     vdW  Elec       q    Type
REMARK                         _______ _______ _______ _____ _____    ______ ____
ROOT
ATOM      1  C   UNL     1      10.835  -3.985   2.747  0.00  0.00    +0.000 C 
ATOM      2  O   UNL     1      11.999  -3.586   2.794  0.00  0.00    +0.000 OA
ATOM      3  N   UNL     1      10.514  -5.361   2.855  0.00  0.00    +0.000 N 
ATOM      4  C   UNL     1      10.261  -5.816   4.213  0.00  0.00    +0.000 C 
ATOM      5  C   UNL     1      10.386  -7.315   4.351  0.00  0.00    +0.000 C 
ATOM      6  C   UNL     1       9.022  -8.070   3.523  0.00  0.00    +0.000 C 
ATOM      7  C   UNL     1       9.717  -7.576   2.006  0.00  0.00    +0.000 C 
ATOM      8  C   UNL     1       9.744  -6.064   1.814  0.00  0.00    +0.000 C 
ENDROOT
BRANCH   6   9
ATOM      9  N   UNL     1       7.455  -8.101   4.523  0.00  0.00    +0.000 N 
ATOM     10  C   UNL     1       8.163  -9.097   5.275  0.00  0.00    +0.000 C 
ATOM     11  O   UNL     1       9.320  -9.078   5.777  0.00  0.00    +0.000 OA
ATOM     12  O   UNL     1       7.634 -10.293   5.221  0.00  0.00    +0.000 OA
ATOM     13  C   UNL     1       6.946 -10.195   6.402  0.00  0.00    +0.000 C 
ATOM     14  C   UNL     1       5.698  -9.947   5.695  0.00  0.00    +0.000 A 
ATOM     15  C   UNL     1       4.653 -10.938   6.156  0.00  0.00    +0.000 A 
ATOM     16  C   UNL     1       3.313 -10.815   5.969  0.00  0.00    +0.000 A 
ATOM     17  C   UNL     1       3.055  -9.503   5.659  0.00  0.00    +0.000 A 
ATOM     18  C   UNL     1       4.247  -8.444   5.231  0.00  0.00    +0.000 A 
ATOM     19  C   UNL     1       5.744  -8.758   4.881  0.00  0.00    +0.000 A 
ENDBRANCH   6   9
BRANCH   1  25
ATOM     20  N   UNL     1       6.808   0.006   2.744  0.00  0.00    +0.000 N 
ATOM     21  C   UNL     1       7.573   1.142   2.767  0.00  0.00    +0.000 A 
ATOM     22  C   UNL     1       8.895   0.761   2.769  0.00  0.00    +0.000 A 
ATOM     23  C   UNL     1       8.944  -0.659   2.759  0.00  0.00    +0.000 A 
ATOM     24  C   UNL     1      10.003  -1.600   2.746  0.00  0.00    +0.000 A 
ATOM     25  C   UNL     1       9.717  -2.976   2.735  0.00  0.00    +0.000 A 
ATOM     26  C   UNL     1       8.381  -3.371   2.773  0.00  0.00    +0.000 A 
ATOM     27  C   UNL     1       7.316  -2.471   2.766  0.00  0.00    +0.000 A 
ATOM     28  C   UNL     1       7.619  -1.110   2.758  0.00  0.00    +0.000 A 
BRANCH  20  29
ATOM     29  C   UNL     1       5.356   0.018   2.750  0.00  0.00    +0.000 C 
BRANCH  29  30
ATOM     30  C   UNL     1       4.734   0.040   1.349  0.00  0.00    +0.000 C 
BRANCH  30  34
ATOM     31  C   UNL     1       1.106   0.056   0.068  0.00  0.00    +0.000 C 
ATOM     32  C   UNL     1       2.620   0.054   0.078  0.00  0.00    +0.000 C 
ATOM     33  O   UNL     1       3.247   0.056  -0.981  0.00  0.00    +0.000 OA
ATOM     34  N   UNL     1       3.253   0.047   1.321  0.00  0.00    +0.000 N 
ATOM     35  C   UNL     1       2.529   0.051   2.585  0.00  0.00    +0.000 C 
ENDBRANCH  30  34
ENDBRANCH  29  30
ENDBRANCH  20  29
ENDBRANCH   1  25
TORSDOF 5
