REMARK  Name = CHEMBL382518
REMARK  11 active torsions:
REMARK  status: ('A' for Active; 'I' for Inactive)
REMARK    1  A    between atoms: CD1_1  and  CG_2
REMARK    2  A    between atoms: CG_2  and  CD2_3
REMARK    3  A    between atoms: CG_2  and  CB_4
REMARK    4  A    between atoms: CB_4  and  CA_5
REMARK    5  A    between atoms: C_9  and  C_10
REMARK    6  A    between atoms: N_21  and  C_22
REMARK    7  A    between atoms: C_22  and  C_23
REMARK    8  A    between atoms: C_22  and  C_29
REMARK    9  A    between atoms: N_25  and  C_26
REMARK   10  A    between atoms: C_26  and  C_27
REMARK   11  A    between atoms: C_26  and  C_28
REMARK                            x       y       z     vdW  Elec       q    Type
REMARK                         _______ _______ _______ _____ _____    ______ ____
ROOT
ATOM      1  CA  LEU A   2       4.646   1.272   0.212  0.00  0.00    +0.000 C 
ATOM      2  C   LEU A   2       5.146  -0.006   0.917  0.00  0.00    +0.000 C 
ATOM      3  O   LEU A   2       4.627  -1.085   1.046  0.00  0.00    +0.000 OA
ATOM      4  N   UNK A   1       6.401   0.092   1.358  0.00  0.00    +0.000 N 
ATOM      5  C   UNK A   1       7.215   1.244   1.162  0.00  0.00    +0.000 C 
ATOM      6  C   UNK A   1       6.393   2.504   1.457  0.00  0.00    +0.000 C 
ATOM      7  O   UNK A   1       6.987   3.441   1.974  0.00  0.00    +0.000 OA
ATOM      8  N   LEU A   2       5.047   2.479   1.045  0.00  0.00    +0.000 N 
ATOM      9  H   UNK A   1       6.703  -0.779   1.771  0.00  0.00    +0.000 HD
ENDROOT
BRANCH   5  10
ATOM     10  C   UNK A   1       8.399   1.222   2.145  0.00  0.00    +0.000 C 
ATOM     11  C   UNK A   1       9.259  -0.033   1.932  0.00  0.00    +0.000 C 
ATOM     12  C   UNK A   1       8.623  -0.999   2.890  0.00  0.00    +0.000 A 
ATOM     13  C   UNK A   1       8.617  -2.379   2.812  0.00  0.00    +0.000 A 
ATOM     14  C   UNK A   1       7.826  -3.089   3.719  0.00  0.00    +0.000 A 
ATOM     15  C   UNK A   1       7.042  -2.417   4.672  0.00  0.00    +0.000 A 
ATOM     16  C   UNK A   1       7.033  -1.023   4.731  0.00  0.00    +0.000 A 
ATOM     17  C   UNK A   1       7.836  -0.328   3.841  0.00  0.00    +0.000 A 
ATOM     18  C   UNK A   1       7.895   1.154   3.622  0.00  0.00    +0.000 C 
ENDBRANCH   5  10
BRANCH   1  19
ATOM     19  CB  LEU A   2       3.167   1.093   0.092  0.00  0.00    +0.000 C 
BRANCH  19  21
ATOM     20  CD1 LEU A   2       1.029  -0.102  -0.467  0.00  0.00    +0.000 C 
ATOM     21  CG  LEU A   2       2.518  -0.224  -0.302  0.00  0.00    +0.000 C 
ATOM     22  CD2 LEU A   2       3.105  -0.769  -1.557  0.00  0.00    +0.000 C 
ENDBRANCH  19  21
ENDBRANCH   1  19
BRANCH   8  23
ATOM     23  C   UNK A   0       4.054   3.597   1.435  0.00  0.00    +0.000 C 
BRANCH  23  24
ATOM     24  C   UNK A   0       4.742   4.886   1.999  0.00  0.00    +0.000 A 
ATOM     25  C   UNK A   0       4.475   5.425   3.273  0.00  0.00    +0.000 A 
ATOM     26  C   UNK A   0       5.104   6.571   3.754  0.00  0.00    +0.000 A 
ATOM     27  C   UNK A   0       6.150   7.128   3.043  0.00  0.00    +0.000 A 
ATOM     28  C   UNK A   0       6.498   6.589   1.810  0.00  0.00    +0.000 A 
ATOM     29  C   UNK A   0       5.752   5.537   1.259  0.00  0.00    +0.000 A 
ENDBRANCH  23  24
BRANCH  23  30
ATOM     30  C   UNK A   0       2.835   3.118   2.402  0.00  0.00    +0.000 C 
ATOM     31  O   UNK A   0       2.865   3.229   3.630  0.00  0.00    +0.000 OA
ATOM     32  N   UNK A   0       1.722   2.454   1.889  0.00  0.00    +0.000 N 
ATOM     33  H   UNK A   0       1.483   2.471   0.908  0.00  0.00    +0.000 HD
BRANCH  32  34
ATOM     34  C   UNK A   0       0.784   1.812   2.817  0.00  0.00    +0.000 C 
ATOM     35  C   UNK A   0      -0.186   2.908   3.157  0.00  0.00    +0.000 C 
ATOM     36  C   UNK A   0      -0.029   0.618   2.312  0.00  0.00    +0.000 C 
ENDBRANCH  32  34
ENDBRANCH  23  30
ENDBRANCH   8  23
TORSDOF 7
