REMARK  Name = CHEMBL4204210
REMARK  9 active torsions:
REMARK  status: ('A' for Active; 'I' for Inactive)
REMARK    1  A    between atoms: C_1  and  C_2
REMARK    2  A    between atoms: C_4  and  C_5
REMARK    3  A    between atoms: N_12  and  C_13
REMARK    4  A    between atoms: C_24  and  C_25
REMARK    5  A    between atoms: C_25  and  N_26
REMARK    6  A    between atoms: C_33  and  C_34
REMARK    7  A    between atoms: C_34  and  N_36
REMARK    8  A    between atoms: N_36  and  C_37
REMARK    9  A    between atoms: N_36  and  C_38
REMARK                            x       y       z     vdW  Elec       q    Type
REMARK                         _______ _______ _______ _____ _____    ______ ____
ROOT
ATOM      1  C   UNL     1       2.457  -0.336  -0.006  0.00  0.00    +0.000 C 
ATOM      2  C   UNL     1       0.977  -0.095  -0.022  0.00  0.00    +0.000 A 
ATOM      3  C   UNL     1       0.152  -1.245  -0.056  0.00  0.00    +0.000 A 
ATOM      4  C   UNL     1      -1.251  -1.158  -0.097  0.00  0.00    +0.000 A 
ATOM      5  C   UNL     1      -1.814   0.104  -0.023  0.00  0.00    +0.000 A 
ATOM      6  C   UNL     1      -1.015   1.255  -0.009  0.00  0.00    +0.000 A 
ATOM      7  C   UNL     1       0.399   1.196  -0.032  0.00  0.00    +0.000 A 
ENDROOT
BRANCH   4   8
ATOM      8  C   UNL     1      -2.080  -2.408  -0.103  0.00  0.00    +0.000 C 
ATOM      9  O   UNL     1      -1.432  -3.457  -0.080  0.00  0.00    +0.000 OA
ATOM     10  N   UNL     1      -3.492  -2.306   0.038  0.00  0.00    +0.000 N 
ATOM     11  C   UNL     1      -4.336  -1.629  -1.002  0.00  0.00    +0.000 C 
ATOM     12  C   UNL     1      -5.262  -0.581  -0.455  0.00  0.00    +0.000 A 
ATOM     13  C   UNL     1      -5.682   0.683  -0.973  0.00  0.00    +0.000 A 
ATOM     14  N   UNL     1      -6.562   1.320  -0.182  0.00  0.00    +0.000 NA
ATOM     15  N   UNL     1      -6.726   0.468   0.844  0.00  0.00    +0.000 N 
ATOM     16  C   UNL     1      -7.618   0.756   1.949  0.00  0.00    +0.000 C 
ATOM     17  C   UNL     1      -5.953  -0.660   0.726  0.00  0.00    +0.000 A 
ATOM     18  N   UNL     1      -5.982  -1.590   1.684  0.00  0.00    +0.000 N 
ATOM     19  C   UNL     1      -5.241  -2.776   1.793  0.00  0.00    +0.000 A 
ATOM     20  C   UNL     1      -5.645  -3.583   2.889  0.00  0.00    +0.000 A 
ATOM     21  C   UNL     1      -5.050  -4.800   3.176  0.00  0.00    +0.000 A 
ATOM     22  C   UNL     1      -4.045  -5.251   2.349  0.00  0.00    +0.000 A 
ATOM     23  C   UNL     1      -3.610  -4.458   1.281  0.00  0.00    +0.000 A 
ATOM     24  C   UNL     1      -4.156  -3.190   0.988  0.00  0.00    +0.000 A 
ATOM     25  H   UNL     1      -6.642  -1.487   2.445  0.00  0.00    +0.000 HD
ENDBRANCH   4   8
BRANCH   7  26
ATOM     26  C   UNL     1       1.148   2.543  -0.045  0.00  0.00    +0.000 C 
BRANCH  26  27
ATOM     27  N   UNL     1       2.599   2.503  -0.238  0.00  0.00    +0.000 N 
ATOM     28  C   UNL     1       3.463   3.515   0.052  0.00  0.00    +0.000 C 
ATOM     29  O   UNL     1       3.071   4.631   0.397  0.00  0.00    +0.000 OA
ATOM     30  N   UNL     1       4.799   3.106   0.056  0.00  0.00    +0.000 N 
ATOM     31  C   UNL     1       5.453   2.090  -0.773  0.00  0.00    +0.000 C 
ATOM     32  C   UNL     1       6.605   1.620   0.094  0.00  0.00    +0.000 C 
ATOM     33  C   UNL     1       7.077   2.914   0.744  0.00  0.00    +0.000 C 
ATOM     34  C   UNL     1       5.828   3.847   0.802  0.00  0.00    +0.000 C 
ATOM     35  H   UNL     1       3.070   1.683   0.055  0.00  0.00    +0.000 HD
BRANCH  34  36
ATOM     36  C   UNL     1       6.206   5.261   0.233  0.00  0.00    +0.000 C 
ATOM     37  S   UNL     1       5.612   5.751  -1.288  0.00  0.00    +0.000 S 
BRANCH  36  38
ATOM     38  N   UNL     1       7.105   6.050   0.979  0.00  0.00    +0.000 N 
ATOM     39  C   UNL     1       7.797   5.615   2.196  0.00  0.00    +0.000 C 
ATOM     40  C   UNL     1       7.468   7.403   0.550  0.00  0.00    +0.000 C 
ENDBRANCH  36  38
ENDBRANCH  34  36
ENDBRANCH  26  27
ENDBRANCH   7  26
TORSDOF 5
