REMARK  Name = CHEMBL197378
REMARK  12 active torsions:
REMARK  status: ('A' for Active; 'I' for Inactive)
REMARK    1  A    between atoms: C_1  and  C_2
REMARK    2  A    between atoms: C_2  and  O_3
REMARK    3  A    between atoms: O_3  and  C_4
REMARK    4  A    between atoms: C_7  and  S_8
REMARK    5  A    between atoms: S_8  and  N_11
REMARK    6  A    between atoms: N_11  and  C_12
REMARK    7  A    between atoms: N_11  and  C_29
REMARK    8  A    between atoms: C_12  and  C_13
REMARK    9  A    between atoms: C_24  and  C_25
REMARK   10  A    between atoms: C_25  and  C_26
REMARK   11  A    between atoms: C_32  and  O_33
REMARK   12  A    between atoms: O_33  and  C_34
REMARK                            x       y       z     vdW  Elec       q    Type
REMARK                         _______ _______ _______ _____ _____    ______ ____
ROOT
ATOM      1  N   UNL     1       9.586  -1.958   0.654  0.00  0.00    +0.000 N 
ENDROOT
BRANCH   1   2
ATOM      2  C   UNL     1      11.087  -1.995   0.742  0.00  0.00    +0.000 A 
ATOM      3  C   UNL     1      11.720  -2.241   1.986  0.00  0.00    +0.000 A 
ATOM      4  C   UNL     1      13.117  -2.112   2.168  0.00  0.00    +0.000 A 
ATOM      5  C   UNL     1      13.940  -1.805   1.090  0.00  0.00    +0.000 A 
ATOM      6  C   UNL     1      13.336  -1.508  -0.131  0.00  0.00    +0.000 A 
ATOM      7  C   UNL     1      11.931  -1.577  -0.293  0.00  0.00    +0.000 A 
BRANCH   5   8
ATOM      8  O   UNL     1      15.289  -1.832   1.330  0.00  0.00    +0.000 OA
ATOM      9  C   UNL     1      16.131  -1.687   0.188  0.00  0.00    +0.000 C 
ENDBRANCH   5   8
ENDBRANCH   1   2
BRANCH   1  10
ATOM     10  S   UNL     1       8.793  -2.549  -0.791  0.00  0.00    +0.000 S 
ATOM     11  O   UNL     1       9.084  -3.943  -0.835  0.00  0.00    +0.000 OA
ATOM     12  O   UNL     1       9.264  -1.682  -1.896  0.00  0.00    +0.000 OA
BRANCH  10  16
ATOM     13  C   UNL     1       4.156  -1.556  -1.256  0.00  0.00    +0.000 A 
ATOM     14  C   UNL     1       4.834  -2.178  -2.278  0.00  0.00    +0.000 A 
ATOM     15  C   UNL     1       6.234  -2.583  -2.123  0.00  0.00    +0.000 A 
ATOM     16  C   UNL     1       6.944  -2.452  -0.910  0.00  0.00    +0.000 A 
ATOM     17  C   UNL     1       6.113  -2.238   0.146  0.00  0.00    +0.000 A 
ATOM     18  C   UNL     1       4.806  -1.721  -0.084  0.00  0.00    +0.000 A 
BRANCH  13  19
ATOM     19  O   UNL     1       2.854  -1.109  -1.219  0.00  0.00    +0.000 OA
BRANCH  19  21
ATOM     20  C   UNL     1       1.001   0.077  -0.113  0.00  0.00    +0.000 C 
ATOM     21  C   UNL     1       2.509   0.008  -0.316  0.00  0.00    +0.000 C 
ENDBRANCH  19  21
ENDBRANCH  13  19
ENDBRANCH  10  16
ENDBRANCH   1  10
BRANCH   1  22
ATOM     22  C   UNL     1       8.983  -1.079   1.690  0.00  0.00    +0.000 C 
BRANCH  22  23
ATOM     23  C   UNL     1       7.646  -0.368   1.453  0.00  0.00    +0.000 C 
ATOM     24  O   UNL     1       7.501   0.128   0.326  0.00  0.00    +0.000 OA
ATOM     25  N   UNL     1       6.597  -0.249   2.407  0.00  0.00    +0.000 N 
ATOM     26  C   UNL     1       5.317   0.145   1.938  0.00  0.00    +0.000 C 
ATOM     27  C   UNL     1       4.312   0.599   2.947  0.00  0.00    +0.000 A 
ATOM     28  C   UNL     1       4.111   1.944   3.063  0.00  0.00    +0.000 A 
ATOM     29  C   UNL     1       3.588   2.394   4.255  0.00  0.00    +0.000 A 
ATOM     30  C   UNL     1       3.001   1.504   5.173  0.00  0.00    +0.000 A 
ATOM     31  C   UNL     1       3.101   0.120   5.008  0.00  0.00    +0.000 A 
ATOM     32  C   UNL     1       3.927  -0.308   3.975  0.00  0.00    +0.000 A 
ATOM     33  C   UNL     1       4.950  -1.488   4.071  0.00  0.00    +0.000 C 
ATOM     34  C   UNL     1       6.472  -0.613   3.850  0.00  0.00    +0.000 C 
BRANCH  34  35
ATOM     35  C   UNL     1       7.908  -0.454   4.347  0.00  0.00    +0.000 C 
BRANCH  35  36
ATOM     36  C   UNL     1       8.502   0.461   5.368  0.00  0.00    +0.000 C 
ATOM     37  N   UNL     1       7.679   1.207   6.114  0.00  0.00    +0.000 N 
ATOM     38  O   UNL     1       9.737   0.595   5.438  0.00  0.00    +0.000 OA
ATOM     39  H   UNL     1       6.725   1.388   5.833  0.00  0.00    +0.000 HD
ATOM     40  H   UNL     1       8.117   1.853   6.759  0.00  0.00    +0.000 HD
ENDBRANCH  35  36
ENDBRANCH  34  35
ENDBRANCH  22  23
ENDBRANCH   1  22
TORSDOF 10
