REMARK  Name = CHEMBL511215
REMARK  10 active torsions:
REMARK  status: ('A' for Active; 'I' for Inactive)
REMARK    1  A    between atoms: C_1  and  O_2
REMARK    2  A    between atoms: O_2  and  C_3
REMARK    3  A    between atoms: C_3  and  C_4
REMARK    4  A    between atoms: C_7  and  C_8
REMARK    5  A    between atoms: C_11  and  C_12
REMARK    6  A    between atoms: C_15  and  C_16
REMARK    7  A    between atoms: C_17  and  C_18
REMARK    8  A    between atoms: N_22  and  C_23
REMARK    9  A    between atoms: C_26  and  O_27
REMARK   10  A    between atoms: O_27  and  C_28
REMARK                            x       y       z     vdW  Elec       q    Type
REMARK                         _______ _______ _______ _____ _____    ______ ____
ROOT
ATOM      1  C   UNL     1       4.437  -0.726   1.060  0.00  0.00    +0.000 A 
ATOM      2  N   UNL     1       5.297   0.278   1.096  0.00  0.00    +0.000 NA
ATOM      3  N   UNL     1       6.580  -0.241   1.155  0.00  0.00    +0.000 NA
ATOM      4  C   UNL     1       6.499  -1.562   1.157  0.00  0.00    +0.000 A 
ATOM      5  N   UNL     1       5.158  -1.899   1.144  0.00  0.00    +0.000 N 
ENDROOT
BRANCH   4   6
ATOM      6  C   UNL     1       7.582  -2.548   1.056  0.00  0.00    +0.000 A 
ATOM      7  C   UNL     1       7.642  -3.464   0.002  0.00  0.00    +0.000 A 
ATOM      8  N   UNL     1       8.530  -4.492  -0.056  0.00  0.00    +0.000 NA
ATOM      9  C   UNL     1       9.378  -4.603   0.996  0.00  0.00    +0.000 A 
ATOM     10  C   UNL     1       9.316  -3.685   2.047  0.00  0.00    +0.000 A 
ATOM     11  N   UNL     1       8.424  -2.652   2.109  0.00  0.00    +0.000 NA
BRANCH   9  12
ATOM     12  C   UNL     1      10.346  -5.709   0.961  0.00  0.00    +0.000 A 
ATOM     13  C   UNL     1      11.252  -5.838  -0.100  0.00  0.00    +0.000 A 
ATOM     14  C   UNL     1      12.185  -6.881  -0.132  0.00  0.00    +0.000 A 
ATOM     15  C   UNL     1      12.236  -7.838   0.893  0.00  0.00    +0.000 A 
ATOM     16  C   UNL     1      13.231  -8.962   0.800  0.00  0.00    +0.000 C 
ATOM     17  C   UNL     1      11.344  -7.724   1.974  0.00  0.00    +0.000 A 
ATOM     18  C   UNL     1      11.343  -8.687   3.131  0.00  0.00    +0.000 C 
ATOM     19  C   UNL     1      10.411  -6.665   1.991  0.00  0.00    +0.000 A 
ENDBRANCH   9  12
ENDBRANCH   4   6
BRANCH   5  20
ATOM     20  C   UNL     1       4.647  -3.203   1.164  0.00  0.00    +0.000 A 
ATOM     21  C   UNL     1       3.848  -3.640   0.118  0.00  0.00    +0.000 A 
ATOM     22  C   UNL     1       3.439  -4.966   0.122  0.00  0.00    +0.000 A 
ATOM     23  C   UNL     1       3.833  -5.794   1.169  0.00  0.00    +0.000 A 
ATOM     24  N   UNL     1       4.607  -5.363   2.191  0.00  0.00    +0.000 NA
ATOM     25  C   UNL     1       5.016  -4.080   2.170  0.00  0.00    +0.000 A 
BRANCH  23  26
ATOM     26  O   UNL     1       3.492  -7.112   1.282  0.00  0.00    +0.000 OA
ATOM     27  C   UNL     1       2.695  -7.642   0.233  0.00  0.00    +0.000 C 
ENDBRANCH  23  26
ENDBRANCH   5  20
BRANCH   1  28
ATOM     28  C   UNL     1       2.941  -0.662   1.146  0.00  0.00    +0.000 C 
BRANCH  28  30
ATOM     29  C   UNL     1       0.992  -0.040  -0.023  0.00  0.00    +0.000 C 
ATOM     30  O   UNL     1       2.420  -0.057  -0.040  0.00  0.00    +0.000 OA
ENDBRANCH  28  30
ENDBRANCH   1  28
TORSDOF 6
