REMARK  Name = CHEMBL2369831
REMARK  20 active torsions:
REMARK  status: ('A' for Active; 'I' for Inactive)
REMARK    1  A    between atoms: C_1  and  C_2
REMARK    2  A    between atoms: C_2  and  O_3
REMARK    3  A    between atoms: C_2  and  C_4
REMARK    4  A    between atoms: C_8  and  C_9
REMARK    5  A    between atoms: C_9  and  C_10
REMARK    6  A    between atoms: C_19  and  C_20
REMARK    7  A    between atoms: C_20  and  C_21
REMARK    8  A    between atoms: C_24  and  O_25
REMARK    9  A    between atoms: C_36  and  C_37
REMARK   10  A    between atoms: C_43  and  C_44
REMARK   11  A    between atoms: N_46  and  C_47
REMARK   12  A    between atoms: C_47  and  C_48
REMARK   13  A    between atoms: C_47  and  C_55
REMARK   14  A    between atoms: C_48  and  C_49
REMARK   15  A    between atoms: C_49  and  C_50
REMARK   16  A    between atoms: C_50  and  N_51
REMARK   17  A    between atoms: N_57  and  C_58
REMARK   18  A    between atoms: C_58  and  C_59
REMARK   19  A    between atoms: C_65  and  C_66
REMARK   20  A    between atoms: C_66  and  C_67
REMARK                            x       y       z     vdW  Elec       q    Type
REMARK                         _______ _______ _______ _____ _____    ______ ____
ROOT
ATOM      1  C   UNL     1       2.970  -0.942   1.787  0.00  0.00    +0.000 C 
ATOM      2  N   UNL     1       3.686  -2.255   2.051  0.00  0.00    +0.000 N 
ATOM      3  C   UNL     1       3.933  -3.281   1.144  0.00  0.00    +0.000 C 
ATOM      4  O   UNL     1       5.045  -3.801   1.028  0.00  0.00    +0.000 OA
ATOM      5  C   UNL     1       2.707  -3.802   0.420  0.00  0.00    +0.000 C 
ATOM      6  N   UNL     1       2.491  -3.161  -0.851  0.00  0.00    +0.000 N 
ATOM      7  C   UNL     1       2.928  -3.673  -2.049  0.00  0.00    +0.000 C 
ATOM      8  O   UNL     1       2.029  -3.709  -2.901  0.00  0.00    +0.000 OA
ATOM      9  C   UNL     1       4.481  -4.294  -2.308  0.00  0.00    +0.000 C 
ATOM     10  N   UNL     1       4.217  -5.266  -3.348  0.00  0.00    +0.000 N 
ATOM     11  C   UNL     1       3.937  -5.064  -4.666  0.00  0.00    +0.000 C 
ATOM     12  O   UNL     1       3.712  -6.099  -5.308  0.00  0.00    +0.000 OA
ATOM     13  C   UNL     1       3.894  -3.704  -5.431  0.00  0.00    +0.000 C 
ATOM     14  C   UNL     1       4.148  -2.390  -4.755  0.00  0.00    +0.000 C 
ATOM     15  S   UNL     1       3.956  -0.582  -5.774  0.00  0.00    +0.000 S 
ATOM     16  S   UNL     1       3.030   1.210  -4.602  0.00  0.00    +0.000 S 
ATOM     17  C   UNL     1       4.343   2.330  -3.760  0.00  0.00    +0.000 C 
ATOM     18  C   UNL     1       4.679   3.144  -2.452  0.00  0.00    +0.000 C 
ATOM     19  N   UNL     1       3.663   3.127  -1.387  0.00  0.00    +0.000 N 
ATOM     20  C   UNL     1       3.300   2.146  -0.567  0.00  0.00    +0.000 C 
ATOM     21  O   UNL     1       2.260   2.242   0.147  0.00  0.00    +0.000 OA
ATOM     22  C   UNL     1       4.106   0.927  -0.489  0.00  0.00    +0.000 C 
ATOM     23  N   UNL     1       4.487   0.825   1.062  0.00  0.00    +0.000 N 
ATOM     24  C   UNL     1       4.080   0.003   2.067  0.00  0.00    +0.000 C 
ATOM     25  O   UNL     1       4.943  -0.262   2.922  0.00  0.00    +0.000 OA
ATOM     26  H   UNL     1       4.585  -2.122   2.536  0.00  0.00    +0.000 HD
ATOM     27  H   UNL     1       1.568  -2.736  -0.945  0.00  0.00    +0.000 HD
ATOM     28  H   UNL     1       4.112  -6.227  -3.040  0.00  0.00    +0.000 HD
ATOM     29  H   UNL     1       3.185   4.005  -1.187  0.00  0.00    +0.000 HD
ATOM     30  H   UNL     1       5.456   0.607   1.315  0.00  0.00    +0.000 HD
ENDROOT
BRANCH  18  31
ATOM     31  C   UNL     1       4.920   4.658  -2.830  0.00  0.00    +0.000 C 
ATOM     32  O   UNL     1       4.347   5.536  -2.178  0.00  0.00    +0.000 OA
ATOM     33  N   UNL     1       5.898   4.959  -3.769  0.00  0.00    +0.000 N 
ATOM     34  C   UNL     1       6.184   4.301  -5.035  0.00  0.00    +0.000 C 
ATOM     35  C   UNL     1       7.638   4.629  -5.233  0.00  0.00    +0.000 C 
ATOM     36  C   UNL     1       7.687   6.096  -4.850  0.00  0.00    +0.000 C 
ATOM     37  C   UNL     1       6.569   6.278  -3.803  0.00  0.00    +0.000 C 
BRANCH  37  38
ATOM     38  C   UNL     1       5.684   7.397  -4.377  0.00  0.00    +0.000 C 
ATOM     39  O   UNL     1       4.688   7.126  -5.048  0.00  0.00    +0.000 OA
ATOM     40  N   UNL     1       6.129   8.699  -4.193  0.00  0.00    +0.000 N 
ATOM     41  H   UNL     1       7.094   8.889  -3.939  0.00  0.00    +0.000 HD
BRANCH  40  42
ATOM     42  C   UNL     1       5.293   9.874  -4.514  0.00  0.00    +0.000 C 
BRANCH  42  43
ATOM     43  C   UNL     1       6.157  11.179  -4.520  0.00  0.00    +0.000 C 
ATOM     44  O   UNL     1       7.363  11.161  -4.272  0.00  0.00    +0.000 OA
ATOM     45  N   UNL     1       5.484  12.349  -4.827  0.00  0.00    +0.000 N 
ATOM     46  H   UNL     1       4.504  12.300  -5.045  0.00  0.00    +0.000 HD
BRANCH  45  47
ATOM     47  C   UNL     1       6.147  13.655  -4.848  0.00  0.00    +0.000 C 
BRANCH  47  48
ATOM     48  C   UNL     1       5.264  14.869  -5.194  0.00  0.00    +0.000 C 
ATOM     49  N   UNL     1       3.939  14.654  -5.447  0.00  0.00    +0.000 N 
ATOM     50  O   UNL     1       5.705  16.015  -5.247  0.00  0.00    +0.000 OA
ATOM     51  H   UNL     1       3.470  13.767  -5.439  0.00  0.00    +0.000 HD
ATOM     52  H   UNL     1       3.379  15.467  -5.677  0.00  0.00    +0.000 HD
ENDBRANCH  47  48
ENDBRANCH  45  47
ENDBRANCH  42  43
BRANCH  42  53
ATOM     53  C   UNL     1       4.147  10.022  -3.488  0.00  0.00    +0.000 C 
BRANCH  53  54
ATOM     54  C   UNL     1       3.263   8.782  -3.419  0.00  0.00    +0.000 C 
BRANCH  54  55
ATOM     55  C   UNL     1       2.134   8.864  -2.432  0.00  0.00    +0.000 C 
BRANCH  55  56
ATOM     56  N   UNL     1       1.404   7.598  -2.492  0.00  0.00    +0.000 NA
ATOM     57  C   UNL     1       0.433   7.463  -1.667  0.00  0.00    +0.000 C 
ATOM     58  N   UNL     1       0.018   8.380  -0.778  0.00  0.00    +0.000 N 
ATOM     59  N   UNL     1      -0.286   6.331  -1.647  0.00  0.00    +0.000 N 
ATOM     60  H   UNL     1       0.515   9.254  -0.709  0.00  0.00    +0.000 HD
ATOM     61  H   UNL     1      -0.751   8.230  -0.151  0.00  0.00    +0.000 HD
ATOM     62  H   UNL     1       0.001   5.589  -2.273  0.00  0.00    +0.000 HD
ATOM     63  H   UNL     1      -1.049   6.157  -1.017  0.00  0.00    +0.000 HD
ENDBRANCH  55  56
ENDBRANCH  54  55
ENDBRANCH  53  54
ENDBRANCH  42  53
ENDBRANCH  40  42
ENDBRANCH  37  38
ENDBRANCH  18  31
BRANCH   1  65
ATOM     64  C   UNL     1       0.537  -1.347   1.892  0.00  0.00    +0.000 C 
ATOM     65  C   UNL     1       1.644  -0.430   2.344  0.00  0.00    +0.000 C 
BRANCH  65  66
ATOM     66  O   UNL     1       1.215   0.849   1.850  0.00  0.00    +0.000 OA
ATOM     67  H   UNL     1       1.272   0.957   0.876  0.00  0.00    +0.000 HD
ENDBRANCH  65  66
ENDBRANCH   1  65
BRANCH   9  68
ATOM     68  C   UNL     1       5.993  -3.713  -2.577  0.00  0.00    +0.000 C 
BRANCH  68  69
ATOM     69  C   UNL     1       6.496  -2.504  -1.859  0.00  0.00    +0.000 A 
ATOM     70  C   UNL     1       5.668  -2.134  -0.895  0.00  0.00    +0.000 A 
ATOM     71  C   UNL     1       5.905  -1.064  -0.096  0.00  0.00    +0.000 A 
ATOM     72  C   UNL     1       6.870  -0.113  -0.297  0.00  0.00    +0.000 A 
ATOM     73  C   UNL     1       7.727  -0.416  -1.307  0.00  0.00    +0.000 A 
ATOM     74  C   UNL     1       7.576  -1.634  -2.044  0.00  0.00    +0.000 A 
BRANCH  72  75
ATOM     75  O   UNL     1       6.958   1.144   0.245  0.00  0.00    +0.000 OA
ATOM     76  H   UNL     1       6.190   1.650   0.592  0.00  0.00    +0.000 HD
ENDBRANCH  72  75
ENDBRANCH  68  69
ENDBRANCH   9  68
BRANCH   5  77
ATOM     77  C   UNL     1       2.632  -5.318   0.339  0.00  0.00    +0.000 C 
BRANCH  77  78
ATOM     78  C   UNL     1       3.123  -6.019   1.573  0.00  0.00    +0.000 A 
ATOM     79  C   UNL     1       3.445  -5.349   2.767  0.00  0.00    +0.000 A 
ATOM     80  C   UNL     1       4.325  -5.893   3.676  0.00  0.00    +0.000 A 
ATOM     81  C   UNL     1       4.624  -7.234   3.564  0.00  0.00    +0.000 A 
ATOM     82  C   UNL     1       4.167  -7.972   2.468  0.00  0.00    +0.000 A 
ATOM     83  C   UNL     1       3.459  -7.357   1.446  0.00  0.00    +0.000 A 
ENDBRANCH  77  78
ENDBRANCH   5  77
BRANCH  22  84
ATOM     84  C   UNL     1       3.304  -0.121  -1.222  0.00  0.00    +0.000 C 
BRANCH  84  85
ATOM     85  C   UNL     1       3.707  -0.526  -2.561  0.00  0.00    +0.000 C 
ATOM     86  N   UNL     1       4.976  -0.383  -3.061  0.00  0.00    +0.000 N 
ATOM     87  O   UNL     1       2.747  -1.041  -3.141  0.00  0.00    +0.000 OA
ATOM     88  H   UNL     1       5.716   0.219  -2.745  0.00  0.00    +0.000 HD
ATOM     89  H   UNL     1       5.150  -0.585  -4.046  0.00  0.00    +0.000 HD
ENDBRANCH  84  85
ENDBRANCH  22  84
TORSDOF 19
