REMARK  Name = CHEMBL3301668
REMARK  23 active torsions:
REMARK  status: ('A' for Active; 'I' for Inactive)
REMARK    1  A    between atoms: C_1  and  C_2
REMARK    2  A    between atoms: C_2  and  C_3
REMARK    3  A    between atoms: C_3  and  C_4
REMARK    4  A    between atoms: C_3  and  C_5
REMARK    5  A    between atoms: C_9  and  C_10
REMARK    6  A    between atoms: C_10  and  C_11
REMARK    7  A    between atoms: C_14  and  O_15
REMARK    8  A    between atoms: O_15  and  C_16
REMARK    9  A    between atoms: C_27  and  C_28
REMARK   10  A    between atoms: C_34  and  C_35
REMARK   11  A    between atoms: N_37  and  C_38
REMARK   12  A    between atoms: C_38  and  C_39
REMARK   13  A    between atoms: C_38  and  C_43
REMARK   14  A    between atoms: C_39  and  C_40
REMARK   15  A    between atoms: C_40  and  C_41
REMARK   16  A    between atoms: C_40  and  C_42
REMARK   17  A    between atoms: N_45  and  C_46
REMARK   18  A    between atoms: C_46  and  C_47
REMARK   19  A    between atoms: C_53  and  C_54
REMARK   20  A    between atoms: C_54  and  C_55
REMARK   21  A    between atoms: C_61  and  C_62
REMARK   22  A    between atoms: C_62  and  C_63
REMARK   23  A    between atoms: C_63  and  C_64
REMARK                            x       y       z     vdW  Elec       q    Type
REMARK                         _______ _______ _______ _____ _____    ______ ____
ROOT
ATOM      1  C   UNL     1       5.019   2.827   0.878  0.00  0.00    +0.000 C 
ATOM      2  N   UNL     1       4.796   4.707   1.437  0.00  0.00    +0.000 N 
ATOM      3  C   UNL     1       4.501   5.914   2.371  0.00  0.00    +0.000 C 
ATOM      4  O   UNL     1       4.303   7.055   1.858  0.00  0.00    +0.000 OA
ATOM      5  C   UNL     1       4.465   6.025   4.036  0.00  0.00    +0.000 C 
ATOM      6  N   UNL     1       5.072   7.335   4.490  0.00  0.00    +0.000 N 
ATOM      7  C   UNL     1       4.504   8.543   4.837  0.00  0.00    +0.000 C 
ATOM      8  O   UNL     1       5.226   9.390   5.383  0.00  0.00    +0.000 OA
ATOM      9  C   UNL     1       3.015   8.906   4.633  0.00  0.00    +0.000 C 
ATOM     10  C   UNL     1       2.118   7.924   3.949  0.00  0.00    +0.000 C 
ATOM     11  C   UNL     1       0.663   8.268   3.778  0.00  0.00    +0.000 C 
ATOM     12  S   UNL     1      -0.317   6.741   3.836  0.00  0.00    +0.000 S 
ATOM     13  C   UNL     1      -1.565   6.844   2.552  0.00  0.00    +0.000 C 
ATOM     14  C   UNL     1      -2.213   5.583   1.996  0.00  0.00    +0.000 C 
ATOM     15  N   UNL     1      -1.666   5.291   0.664  0.00  0.00    +0.000 N 
ATOM     16  C   UNL     1      -0.472   4.789   0.450  0.00  0.00    +0.000 C 
ATOM     17  O   UNL     1      -0.240   4.114  -0.546  0.00  0.00    +0.000 OA
ATOM     18  C   UNL     1       0.541   5.260   1.383  0.00  0.00    +0.000 C 
ATOM     19  N   UNL     1       1.286   4.143   1.217  0.00  0.00    +0.000 N 
ATOM     20  C   UNL     1       2.266   3.710   0.469  0.00  0.00    +0.000 C 
ATOM     21  O   UNL     1       3.078   3.289   1.053  0.00  0.00    +0.000 OA
ATOM     22  C   UNL     1       2.868   3.799  -0.808  0.00  0.00    +0.000 C 
ATOM     23  N   UNL     1       4.332   4.087  -1.042  0.00  0.00    +0.000 N 
ATOM     24  C   UNL     1       5.385   3.401  -0.458  0.00  0.00    +0.000 C 
ATOM     25  O   UNL     1       6.590   3.591  -0.677  0.00  0.00    +0.000 OA
ATOM     26  H   UNL     1       4.648   5.439   0.698  0.00  0.00    +0.000 HD
ATOM     27  H   UNL     1       6.058   7.281   4.727  0.00  0.00    +0.000 HD
ATOM     28  H   UNL     1      -2.268   5.060  -0.118  0.00  0.00    +0.000 HD
ATOM     29  H   UNL     1       1.548   4.102   2.143  0.00  0.00    +0.000 HD
ATOM     30  H   UNL     1       4.485   4.987  -0.640  0.00  0.00    +0.000 HD
ENDROOT
BRANCH  14  31
ATOM     31  C   UNL     1      -3.719   5.705   1.761  0.00  0.00    +0.000 C 
ATOM     32  O   UNL     1      -4.060   5.349   0.630  0.00  0.00    +0.000 OA
ATOM     33  N   UNL     1      -4.570   5.975   2.836  0.00  0.00    +0.000 N 
ATOM     34  C   UNL     1      -4.380   6.943   3.893  0.00  0.00    +0.000 C 
ATOM     35  C   UNL     1      -4.964   6.248   5.087  0.00  0.00    +0.000 C 
ATOM     36  C   UNL     1      -6.242   5.680   4.536  0.00  0.00    +0.000 C 
ATOM     37  C   UNL     1      -5.964   5.453   3.047  0.00  0.00    +0.000 C 
BRANCH  37  38
ATOM     38  C   UNL     1      -7.128   6.339   2.464  0.00  0.00    +0.000 C 
ATOM     39  O   UNL     1      -6.900   7.477   2.051  0.00  0.00    +0.000 OA
ATOM     40  N   UNL     1      -8.361   5.690   2.273  0.00  0.00    +0.000 N 
ATOM     41  H   UNL     1      -8.571   4.807   2.734  0.00  0.00    +0.000 HD
BRANCH  40  42
ATOM     42  C   UNL     1      -9.335   6.123   1.228  0.00  0.00    +0.000 C 
BRANCH  42  43
ATOM     43  C   UNL     1     -10.712   5.433   1.493  0.00  0.00    +0.000 C 
ATOM     44  O   UNL     1     -10.836   4.556   2.348  0.00  0.00    +0.000 OA
ATOM     45  N   UNL     1     -11.773   5.844   0.709  0.00  0.00    +0.000 N 
ATOM     46  H   UNL     1     -11.627   6.551   0.010  0.00  0.00    +0.000 HD
BRANCH  45  47
ATOM     47  C   UNL     1     -13.120   5.290   0.867  0.00  0.00    +0.000 C 
BRANCH  47  48
ATOM     48  C   UNL     1     -14.194   5.870  -0.074  0.00  0.00    +0.000 C 
ATOM     49  N   UNL     1     -13.812   6.830  -0.972  0.00  0.00    +0.000 N 
ATOM     50  O   UNL     1     -15.366   5.500  -0.044  0.00  0.00    +0.000 OA
ATOM     51  H   UNL     1     -12.888   7.203  -1.083  0.00  0.00    +0.000 HD
ATOM     52  H   UNL     1     -14.522   7.208  -1.588  0.00  0.00    +0.000 HD
ENDBRANCH  47  48
ENDBRANCH  45  47
ENDBRANCH  42  43
BRANCH  42  53
ATOM     53  C   UNL     1      -8.921   5.819  -0.255  0.00  0.00    +0.000 C 
BRANCH  53  54
ATOM     54  C   UNL     1      -7.585   6.413  -0.686  0.00  0.00    +0.000 C 
ATOM     55  C   UNL     1      -6.462   5.667  -0.062  0.00  0.00    +0.000 C 
ATOM     56  C   UNL     1      -7.204   6.225  -2.125  0.00  0.00    +0.000 C 
ENDBRANCH  53  54
ENDBRANCH  42  53
ENDBRANCH  40  42
ENDBRANCH  37  38
ENDBRANCH  14  31
BRANCH   1  57
ATOM     57  C   UNL     1       3.704   1.358   0.682  0.00  0.00    +0.000 C 
ATOM     58  C   UNL     1       3.052  -0.121   0.276  0.00  0.00    +0.000 C 
BRANCH  57  60
ATOM     59  C   UNL     1       3.446   2.403   2.978  0.00  0.00    +0.000 C 
ATOM     60  C   UNL     1       2.627   1.443   1.835  0.00  0.00    +0.000 C 
ENDBRANCH  57  60
ENDBRANCH   1  57
BRANCH  18  61
ATOM     61  C   UNL     1       1.566   6.341   1.369  0.00  0.00    +0.000 C 
BRANCH  61  62
ATOM     62  C   UNL     1       2.185   6.581   0.022  0.00  0.00    +0.000 C 
ATOM     63  N   UNL     1       1.393   6.243  -1.046  0.00  0.00    +0.000 N 
ATOM     64  O   UNL     1       3.376   6.733  -0.223  0.00  0.00    +0.000 OA
ATOM     65  H   UNL     1       0.741   5.484  -0.880  0.00  0.00    +0.000 HD
ATOM     66  H   UNL     1       1.996   5.843  -1.765  0.00  0.00    +0.000 HD
ENDBRANCH  61  62
ENDBRANCH  18  61
BRANCH   5  67
ATOM     67  C   UNL     1       3.332   5.680   5.265  0.00  0.00    +0.000 C 
BRANCH  67  68
ATOM     68  C   UNL     1       2.127   4.800   5.072  0.00  0.00    +0.000 A 
ATOM     69  C   UNL     1       2.086   4.169   3.961  0.00  0.00    +0.000 A 
ATOM     70  C   UNL     1       1.150   3.044   3.483  0.00  0.00    +0.000 A 
ATOM     71  C   UNL     1      -0.009   2.654   3.869  0.00  0.00    +0.000 A 
ATOM     72  C   UNL     1      -0.115   3.382   4.982  0.00  0.00    +0.000 A 
ATOM     73  C   UNL     1       0.943   4.388   5.577  0.00  0.00    +0.000 A 
BRANCH  71  74
ATOM     74  O   UNL     1      -0.599   1.815   3.003  0.00  0.00    +0.000 OA
ATOM     75  C   UNL     1      -1.643   1.193   3.658  0.00  0.00    +0.000 C 
ENDBRANCH  71  74
ENDBRANCH  67  68
ENDBRANCH   5  67
BRANCH  22  76
ATOM     76  C   UNL     1       2.204   3.023  -1.839  0.00  0.00    +0.000 C 
BRANCH  76  77
ATOM     77  C   UNL     1       2.336   1.511  -1.779  0.00  0.00    +0.000 C 
BRANCH  77  78
ATOM     78  C   UNL     1       2.179   0.568  -2.868  0.00  0.00    +0.000 C 
ATOM     79  N   UNL     1       1.893   1.293  -3.946  0.00  0.00    +0.000 N 
ATOM     80  O   UNL     1       2.446  -0.621  -2.815  0.00  0.00    +0.000 OA
ATOM     81  H   UNL     1       1.768   2.287  -3.835  0.00  0.00    +0.000 HD
ATOM     82  H   UNL     1       1.841   0.808  -4.808  0.00  0.00    +0.000 HD
ENDBRANCH  77  78
ENDBRANCH  76  77
ENDBRANCH  22  76
TORSDOF 18
