REMARK  Name = CHEMBL473443
REMARK  6 active torsions:
REMARK  status: ('A' for Active; 'I' for Inactive)
REMARK    1  A    between atoms: C_2  and  C_3
REMARK    2  A    between atoms: C_6  and  C_7
REMARK    3  A    between atoms: N_16  and  C_17
REMARK    4  A    between atoms: N_16  and  C_21
REMARK    5  A    between atoms: C_17  and  C_18
REMARK    6  A    between atoms: C_21  and  C_22
REMARK                            x       y       z     vdW  Elec       q    Type
REMARK                         _______ _______ _______ _____ _____    ______ ____
ROOT
ATOM      1  O   UNL     1       1.541  -0.319  -0.979  0.00  0.00    +0.000 OA
ATOM      2  C   UNL     1       2.569  -0.133  -0.356  0.00  0.00    +0.000 C 
ATOM      3  N   UNL     1       3.066  -0.651   0.861  0.00  0.00    +0.000 N 
ENDROOT
BRANCH   2   4
ATOM      4  C   UNL     1       3.330   0.838  -1.098  0.00  0.00    +0.000 A 
ATOM      5  C   UNL     1       4.327   0.327  -1.910  0.00  0.00    +0.000 A 
ATOM      6  C   UNL     1       4.923   1.164  -2.816  0.00  0.00    +0.000 A 
ATOM      7  C   UNL     1       4.394   2.445  -3.034  0.00  0.00    +0.000 A 
ATOM      8  C   UNL     1       3.326   2.923  -2.255  0.00  0.00    +0.000 A 
ATOM      9  C   UNL     1       2.787   2.117  -1.272  0.00  0.00    +0.000 A 
BRANCH   7  10
ATOM     10  C   UNL     1       4.962   3.273  -4.079  0.00  0.00    +0.000 A 
ATOM     11  C   UNL     1       4.969   2.858  -5.420  0.00  0.00    +0.000 A 
ATOM     12  C   UNL     1       5.587   3.646  -6.387  0.00  0.00    +0.000 A 
ATOM     13  C   UNL     1       6.121   4.882  -6.025  0.00  0.00    +0.000 A 
ATOM     14 CL   UNL     1       6.755   5.925  -7.235  0.00  0.00    +0.000 Cl
ATOM     15  C   UNL     1       6.111   5.304  -4.698  0.00  0.00    +0.000 A 
ATOM     16  C   UNL     1       5.541   4.494  -3.726  0.00  0.00    +0.000 A 
ENDBRANCH   7  10
ENDBRANCH   2   4
BRANCH   3  17
ATOM     17  C   UNL     1       2.249  -1.418   1.841  0.00  0.00    +0.000 C 
BRANCH  17  18
ATOM     18  C   UNL     1       0.755  -1.306   1.844  0.00  0.00    +0.000 C 
ATOM     19  C   UNL     1       0.042  -0.202   1.136  0.00  0.00    +0.000 C 
ATOM     20  C   UNL     1       0.057  -1.631   0.565  0.00  0.00    +0.000 C 
ENDBRANCH  17  18
ENDBRANCH   3  17
BRANCH   3  21
ATOM     21  C   UNL     1       4.541  -0.747   1.020  0.00  0.00    +0.000 C 
BRANCH  21  22
ATOM     22  C   UNL     1       5.106  -1.632   2.148  0.00  0.00    +0.000 C 
ATOM     23  C   UNL     1       6.605  -1.881   2.033  0.00  0.00    +0.000 C 
ATOM     24  C   UNL     1       6.755  -3.266   2.624  0.00  0.00    +0.000 C 
ATOM     25  C   UNL     1       5.482  -3.956   2.210  0.00  0.00    +0.000 C 
ATOM     26  O   UNL     1       4.502  -2.936   2.101  0.00  0.00    +0.000 OA
ENDBRANCH  21  22
ENDBRANCH   3  21
TORSDOF 6
