REMARK  Name = CHEMBL2172290
REMARK  39 active torsions:
REMARK  status: ('A' for Active; 'I' for Inactive)
REMARK    1  A    between atoms: C_1  and  C_2
REMARK    2  A    between atoms: C_2  and  N_3
REMARK    3  A    between atoms: C_5  and  C_6
REMARK    4  A    between atoms: C_7  and  C_8
REMARK    5  A    between atoms: C_9  and  C_10
REMARK    6  A    between atoms: N_11  and  C_12
REMARK    7  A    between atoms: C_12  and  C_13
REMARK    8  A    between atoms: C_17  and  S_18
REMARK    9  A    between atoms: C_24  and  C_25
REMARK   10  A    between atoms: C_24  and  C_26
REMARK   11  A    between atoms: C_27  and  C_28
REMARK   12  A    between atoms: C_27  and  C_29
REMARK   13  A    between atoms: C_29  and  C_30
REMARK   14  A    between atoms: C_30  and  C_31
REMARK   15  A    between atoms: C_31  and  C_32
REMARK   16  A    between atoms: N_34  and  C_35
REMARK   17  A    between atoms: C_35  and  C_36
REMARK   18  A    between atoms: C_36  and  O_37
REMARK   19  A    between atoms: O_37  and  C_38
REMARK   20  A    between atoms: C_38  and  C_39
REMARK   21  A    between atoms: C_39  and  O_40
REMARK   22  A    between atoms: O_40  and  C_41
REMARK   23  A    between atoms: C_41  and  C_42
REMARK   24  A    between atoms: C_42  and  O_43
REMARK   25  A    between atoms: O_43  and  C_44
REMARK   26  A    between atoms: C_44  and  C_45
REMARK   27  A    between atoms: C_45  and  N_46
REMARK   28  A    between atoms: C_48  and  C_49
REMARK   29  A    between atoms: C_49  and  N_50
REMARK   30  A    between atoms: C_51  and  C_53
REMARK   31  A    between atoms: C_53  and  C_54
REMARK   32  A    between atoms: C_54  and  C_55
REMARK   33  A    between atoms: N_57  and  C_58
REMARK   34  A    between atoms: C_63  and  C_65
REMARK   35  A    between atoms: C_68  and  N_69
REMARK   36  A    between atoms: C_70  and  C_72
REMARK   37  A    between atoms: C_77  and  C_78
REMARK   38  A    between atoms: C_96  and  S_97
REMARK   39  A    between atoms: S_97  and  O_100
REMARK                            x       y       z     vdW  Elec       q    Type
REMARK                         _______ _______ _______ _____ _____    ______ ____
ROOT
ATOM      1  C   UNL     1      -1.299  14.126  12.475  0.00  0.00    +0.000 C 
ENDROOT
BRANCH   1   2
ATOM      2  O   UNL     1      -1.438  15.537  12.630  0.00  0.00    +0.000 OA
BRANCH   2   3
ATOM      3  C   UNL     1      -2.017  15.816  13.893  0.00  0.00    +0.000 C 
BRANCH   3   4
ATOM      4  C   UNL     1      -2.185  17.311  14.102  0.00  0.00    +0.000 C 
BRANCH   4   5
ATOM      5  N   UNL     1      -2.782  17.578  15.395  0.00  0.00    +0.000 N 
ATOM      6  C   UNL     1      -3.286  16.661  16.264  0.00  0.00    +0.000 A 
ATOM      7  C   UNL     1      -3.678  17.362  17.371  0.00  0.00    +0.000 A 
ATOM      8  N   UNL     1      -3.414  18.694  17.135  0.00  0.00    +0.000 NA
ATOM      9  N   UNL     1      -2.868  18.812  15.919  0.00  0.00    +0.000 NA
BRANCH   7  10
ATOM     10  C   UNL     1      -4.285  16.817  18.628  0.00  0.00    +0.000 C 
BRANCH  10  11
ATOM     11  N   UNL     1      -4.442  15.328  18.581  0.00  0.00    +0.000 N 
ATOM     12  C   UNL     1      -4.989  14.602  19.645  0.00  0.00    +0.000 C 
ATOM     13  O   UNL     1      -5.359  15.192  20.658  0.00  0.00    +0.000 OA
ATOM     14  H   UNL     1      -4.134  14.864  17.740  0.00  0.00    +0.000 HD
BRANCH  12  15
ATOM     15  C   UNL     1      -5.127  13.008  19.532  0.00  0.00    +0.000 C 
BRANCH  15  16
ATOM     16  C   UNL     1      -5.814  12.157  20.967  0.00  0.00    +0.000 C 
BRANCH  16  17
ATOM     17  C   UNL     1      -5.937  10.210  21.026  0.00  0.00    +0.000 C 
ATOM     18  O   UNL     1      -5.584   9.946  19.844  0.00  0.00    +0.000 OA
ATOM     19  N   UNL     1      -6.281   9.011  22.381  0.00  0.00    +0.000 N 
ATOM     20  H   UNL     1      -6.767   9.864  22.766  0.00  0.00    +0.000 HD
BRANCH  19  21
ATOM     21  C   UNL     1      -6.644   7.208  23.263  0.00  0.00    +0.000 C 
ATOM     22  C   UNL     1      -7.664   8.059  23.715  0.00  0.00    +0.000 C 
ATOM     23  C   UNL     1      -7.754   6.676  22.985  0.00  0.00    +0.000 C 
ATOM     24  C   UNL     1      -8.620   6.399  24.040  0.00  0.00    +0.000 C 
ATOM     25  N   UNL     1      -8.738   4.924  23.283  0.00  0.00    +0.000 N 
ATOM     26  C   UNL     1      -7.712   3.988  22.448  0.00  0.00    +0.000 C 
ATOM     27  O   UNL     1      -7.684   2.749  22.529  0.00  0.00    +0.000 OA
ATOM     28  C   UNL     1      -8.468   4.670  24.530  0.00  0.00    +0.000 A 
ATOM     29  C   UNL     1      -9.926   4.644  25.463  0.00  0.00    +0.000 A 
ATOM     30  C   UNL     1     -10.240   4.021  26.614  0.00  0.00    +0.000 A 
ATOM     31  C   UNL     1      -9.167   3.259  26.620  0.00  0.00    +0.000 A 
ATOM     32  C   UNL     1      -7.730   3.937  25.615  0.00  0.00    +0.000 A 
ATOM     33  C   UNL     1      -6.960   5.246  24.506  0.00  0.00    +0.000 A 
BRANCH  26  34
ATOM     34  C   UNL     1      -6.805   4.626  21.364  0.00  0.00    +0.000 A 
ATOM     35  C   UNL     1      -5.597   5.439  21.448  0.00  0.00    +0.000 A 
ATOM     36  C   UNL     1      -5.470   6.614  20.661  0.00  0.00    +0.000 A 
ATOM     37  C   UNL     1      -6.217   6.696  19.525  0.00  0.00    +0.000 A 
ATOM     38  C   UNL     1      -7.009   5.582  19.251  0.00  0.00    +0.000 A 
ATOM     39  C   UNL     1      -7.443   4.655  20.182  0.00  0.00    +0.000 A 
BRANCH  37  40
ATOM     40  N   UNL     1      -6.072   7.786  18.642  0.00  0.00    +0.000 N 
ATOM     41  C   UNL     1      -6.550   7.725  17.346  0.00  0.00    +0.000 C 
ATOM     42  O   UNL     1      -7.159   6.770  16.875  0.00  0.00    +0.000 OA
ATOM     43  H   UNL     1      -5.600   8.635  18.981  0.00  0.00    +0.000 HD
BRANCH  41  44
ATOM     44  C   UNL     1      -6.366   8.892  16.453  0.00  0.00    +0.000 A 
ATOM     45  C   UNL     1      -5.126   9.513  16.287  0.00  0.00    +0.000 A 
ATOM     46  C   UNL     1      -5.051  10.761  15.669  0.00  0.00    +0.000 A 
ATOM     47  C   UNL     1      -6.147  11.254  14.986  0.00  0.00    +0.000 A 
ATOM     48  C   UNL     1      -7.301  10.480  14.902  0.00  0.00    +0.000 A 
ATOM     49  C   UNL     1      -7.480   9.361  15.731  0.00  0.00    +0.000 A 
BRANCH  49  50
ATOM     50  C   UNL     1      -8.806   8.737  15.865  0.00  0.00    +0.000 A 
ATOM     51  C   UNL     1      -9.430   8.611  17.120  0.00  0.00    +0.000 A 
ATOM     52  C   UNL     1     -10.509   7.752  17.303  0.00  0.00    +0.000 A 
ATOM     53  C   UNL     1     -11.139   7.220  16.196  0.00  0.00    +0.000 A 
ATOM     54  C   UNL     1     -10.679   7.548  14.927  0.00  0.00    +0.000 A 
ATOM     55  C   UNL     1      -9.452   8.186  14.765  0.00  0.00    +0.000 A 
ENDBRANCH  49  50
ENDBRANCH  41  44
ENDBRANCH  37  40
ENDBRANCH  26  34
ENDBRANCH  19  21
ENDBRANCH  16  17
ENDBRANCH  15  16
ENDBRANCH  12  15
ENDBRANCH  10  11
ENDBRANCH   7  10
ENDBRANCH   4   5
ENDBRANCH   3   4
ENDBRANCH   2   3
ENDBRANCH   1   2
BRANCH   1  56
ATOM     56  C   UNL     1      -0.680  13.831  11.130  0.00  0.00    +0.000 C 
BRANCH  56  57
ATOM     57  O   UNL     1      -0.542  12.422  10.972  0.00  0.00    +0.000 OA
BRANCH  57  58
ATOM     58  C   UNL     1       0.044  12.145   9.703  0.00  0.00    +0.000 C 
BRANCH  58  59
ATOM     59  C   UNL     1       0.193  10.649   9.532  0.00  0.00    +0.000 C 
BRANCH  59  60
ATOM     60  O   UNL     1       0.778  10.366   8.263  0.00  0.00    +0.000 OA
BRANCH  60  61
ATOM     61  C   UNL     1       0.919   8.957   8.101  0.00  0.00    +0.000 C 
BRANCH  61  62
ATOM     62  C   UNL     1       1.542   8.635   6.751  0.00  0.00    +0.000 C 
BRANCH  62  65
ATOM     63  C   UNL     1       2.262   6.721   5.373  0.00  0.00    +0.000 C 
ATOM     64  O   UNL     1       2.640   7.470   4.476  0.00  0.00    +0.000 OA
ATOM     65  N   UNL     1       1.710   7.199   6.541  0.00  0.00    +0.000 N 
ATOM     66  H   UNL     1       1.405   6.569   7.271  0.00  0.00    +0.000 HD
BRANCH  63  67
ATOM     67  C   UNL     1       2.399   5.202   5.272  0.00  0.00    +0.000 C 
BRANCH  67  68
ATOM     68  C   UNL     1       3.024   4.858   3.956  0.00  0.00    +0.000 C 
BRANCH  68  69
ATOM     69  C   UNL     1       3.186   3.376   3.694  0.00  0.00    +0.000 C 
BRANCH  69  73
ATOM     70  N   UNL     1       2.969   1.443   0.797  0.00  0.00    +0.000 N 
ATOM     71  C   UNL     1       3.818   1.548   2.023  0.00  0.00    +0.000 C 
ATOM     72  C   UNL     1       4.527   0.715   2.868  0.00  0.00    +0.000 C 
ATOM     73  C   UNL     1       3.869   3.058   2.354  0.00  0.00    +0.000 C 
ATOM     74  C   UNL     1       5.267   3.606   2.129  0.00  0.00    +0.000 C 
ATOM     75  C   UNL     1       3.062   3.720   1.285  0.00  0.00    +0.000 A 
ATOM     76  C   UNL     1       2.914   5.135   1.199  0.00  0.00    +0.000 A 
ATOM     77  C   UNL     1       2.082   5.715   0.297  0.00  0.00    +0.000 A 
ATOM     78  C   UNL     1       1.523   4.843  -0.623  0.00  0.00    +0.000 A 
ATOM     79  C   UNL     1       1.771   3.390  -0.577  0.00  0.00    +0.000 A 
ATOM     80  C   UNL     1       2.542   2.777   0.417  0.00  0.00    +0.000 A 
BRANCH  77  81
ATOM     81  S   UNL     1       1.873   7.496   0.379  0.00  0.00    +0.000 S 
ATOM     82  O   UNL     1       1.097   7.804   1.561  0.00  0.00    +0.000 OA
ATOM     83  O   UNL     1       3.173   8.096   0.162  0.00  0.00    +0.000 OA
BRANCH  81  84
ATOM     84  O   UNL     1       0.945   7.846  -0.903  0.00  0.00    +0.000 OA
ATOM     85  H   UNL     1       0.050   7.459  -0.827  0.00  0.00    +0.000 HD
ENDBRANCH  81  84
ENDBRANCH  77  81
BRANCH  70  87
ATOM     86  C   UNL     1       0.957   0.093   0.007  0.00  0.00    +0.000 C 
ATOM     87  C   UNL     1       2.487   0.196   0.059  0.00  0.00    +0.000 C 
ENDBRANCH  70  87
BRANCH  72  88
ATOM     88  C   UNL     1       5.331   1.102   4.090  0.00  0.00    +0.000 C 
ATOM     89  C   UNL     1       6.013   0.276   4.906  0.00  0.00    +0.000 C 
BRANCH  89  90
ATOM     90  C   UNL     1       6.744   0.806   6.044  0.00  0.00    +0.000 C 
ATOM     91  C   UNL     1       7.479   0.142   6.935  0.00  0.00    +0.000 C 
BRANCH  91  92
ATOM     92  C   UNL     1       8.331   0.321   8.216  0.00  0.00    +0.000 C 
ATOM     93  N   UNL     1       8.672  -0.619   9.022  0.00  0.00    +0.000 N 
ATOM     94  C   UNL     1       9.268  -0.192  10.245  0.00  0.00    +0.000 A 
ATOM     95  C   UNL     1       8.840   0.812  11.173  0.00  0.00    +0.000 A 
ATOM     96  C   UNL     1       9.712   1.609  12.059  0.00  0.00    +0.000 A 
ATOM     97  C   UNL     1      10.991   1.221  12.248  0.00  0.00    +0.000 A 
ATOM     98  C   UNL     1      11.304   0.442  11.161  0.00  0.00    +0.000 A 
ATOM     99  C   UNL     1      10.323   0.433   9.802  0.00  0.00    +0.000 A 
ATOM    100  C   UNL     1       8.916   1.552   8.938  0.00  0.00    +0.000 C 
ATOM    101  C   UNL     1       9.962   2.461   8.469  0.00  0.00    +0.000 C 
ATOM    102  C   UNL     1       7.803   2.563   7.836  0.00  0.00    +0.000 C 
BRANCH  97 103
ATOM    103  S   UNL     1      12.065   1.974  13.584  0.00  0.00    +0.000 S 
ATOM    104  O   UNL     1      12.238   3.324  13.056  0.00  0.00    +0.000 OA
ATOM    105  O   UNL     1      11.218   1.890  14.772  0.00  0.00    +0.000 OA
ATOM    106  O   UNL     1      13.274   1.158  13.628  0.00  0.00    +0.000 OA
ENDBRANCH  97 103
BRANCH  93 107
ATOM    107  C   UNL     1       8.893  -2.018   8.680  0.00  0.00    +0.000 C 
ATOM    108  C   UNL     1       8.135  -2.347   7.448  0.00  0.00    +0.000 C 
ENDBRANCH  93 107
ENDBRANCH  91  92
ENDBRANCH  89  90
ENDBRANCH  72  88
ENDBRANCH  69  73
ENDBRANCH  68  69
ENDBRANCH  67  68
ENDBRANCH  63  67
ENDBRANCH  62  65
ENDBRANCH  61  62
ENDBRANCH  60  61
ENDBRANCH  59  60
ENDBRANCH  58  59
ENDBRANCH  57  58
ENDBRANCH  56  57
ENDBRANCH   1  56
TORSDOF 34
