REMARK  Name = CHEMBL378939
REMARK  12 active torsions:
REMARK  status: ('A' for Active; 'I' for Inactive)
REMARK    1  A    between atoms: CD1_1  and  CG_2
REMARK    2  A    between atoms: CG_2  and  CD2_3
REMARK    3  A    between atoms: CG_2  and  CB_4
REMARK    4  A    between atoms: CB_4  and  CA_5
REMARK    5  A    between atoms: C_9  and  C_10
REMARK    6  A    between atoms: N_21  and  C_22
REMARK    7  A    between atoms: C_22  and  C_23
REMARK    8  A    between atoms: C_22  and  C_30
REMARK    9  A    between atoms: N_25  and  C_26
REMARK   10  A    between atoms: C_26  and  C_27
REMARK   11  A    between atoms: C_26  and  C_28
REMARK   12  A    between atoms: C_26  and  C_29
REMARK                            x       y       z     vdW  Elec       q    Type
REMARK                         _______ _______ _______ _____ _____    ______ ____
ROOT
ATOM      1  CA  LEU A   2       4.724   1.122  -0.522  0.00  0.00    +0.000 C 
ATOM      2  C   LEU A   2       5.109   2.600  -0.275  0.00  0.00    +0.000 C 
ATOM      3  O   LEU A   2       4.452   3.450   0.278  0.00  0.00    +0.000 OA
ATOM      4  N   UNK A   1       6.369   2.878  -0.688  0.00  0.00    +0.000 N 
ATOM      5  C   UNK A   1       7.240   1.872  -1.248  0.00  0.00    +0.000 C 
ATOM      6  C   UNK A   1       6.473   1.044  -2.278  0.00  0.00    +0.000 C 
ATOM      7  O   UNK A   1       7.093   0.639  -3.245  0.00  0.00    +0.000 OA
ATOM      8  N   LEU A   2       5.130   0.780  -1.970  0.00  0.00    +0.000 N 
ATOM      9  H   UNK A   1       6.662   3.826  -0.489  0.00  0.00    +0.000 HD
ENDROOT
BRANCH   5  10
ATOM     10  C   UNK A   1       8.431   2.484  -2.018  0.00  0.00    +0.000 C 
ATOM     11  C   UNK A   1       9.315   3.320  -1.092  0.00  0.00    +0.000 C 
ATOM     12  C   UNK A   1       8.684   4.670  -1.243  0.00  0.00    +0.000 A 
ATOM     13  C   UNK A   1       8.715   5.714  -0.340  0.00  0.00    +0.000 A 
ATOM     14  C   UNK A   1       7.943   6.843  -0.616  0.00  0.00    +0.000 A 
ATOM     15  C   UNK A   1       7.147   6.909  -1.772  0.00  0.00    +0.000 A 
ATOM     16  C   UNK A   1       7.109   5.846  -2.674  0.00  0.00    +0.000 A 
ATOM     17  C   UNK A   1       7.892   4.738  -2.400  0.00  0.00    +0.000 A 
ATOM     18  C   UNK A   1       7.937   3.441  -3.144  0.00  0.00    +0.000 C 
ENDBRANCH   5  10
BRANCH   1  19
ATOM     19  CB  LEU A   2       3.255   1.080  -0.222  0.00  0.00    +0.000 C 
BRANCH  19  21
ATOM     20  CD1 LEU A   2       1.036  -0.156   0.117  0.00  0.00    +0.000 C 
ATOM     21  CG  LEU A   2       2.572  -0.227   0.165  0.00  0.00    +0.000 C 
ATOM     22  CD2 LEU A   2       2.989  -1.436  -0.651  0.00  0.00    +0.000 C 
ENDBRANCH  19  21
ENDBRANCH   1  19
BRANCH   8  23
ATOM     23  C   UNK A   0       4.177   0.256  -3.079  0.00  0.00    +0.000 C 
BRANCH  23  24
ATOM     24  C   UNK A   0       4.887  -0.348  -4.330  0.00  0.00    +0.000 A 
ATOM     25  C   UNK A   0       5.895  -1.344  -4.199  0.00  0.00    +0.000 A 
ATOM     26  C   UNK A   0       6.688  -1.726  -5.295  0.00  0.00    +0.000 A 
ATOM     27  C   UNK A   0       6.339  -1.257  -6.540  0.00  0.00    +0.000 A 
ATOM     28  C   UNK A   0       5.294  -0.386  -6.698  0.00  0.00    +0.000 A 
ATOM     29  C   UNK A   0       4.605   0.095  -5.624  0.00  0.00    +0.000 A 
ATOM     30  C   UNK A   0       5.092  -0.018  -8.107  0.00  0.00    +0.000 C 
ATOM     31  C   UNK A   0       5.948  -1.123  -8.707  0.00  0.00    +0.000 C 
ATOM     32  O   UNK A   0       6.933  -1.566  -7.731  0.00  0.00    +0.000 OA
ENDBRANCH  23  24
BRANCH  23  33
ATOM     33  C   UNK A   0       2.895   1.186  -3.511  0.00  0.00    +0.000 C 
ATOM     34  O   UNK A   0       2.729   1.646  -4.637  0.00  0.00    +0.000 OA
ATOM     35  N   UNK A   0       1.889   1.499  -2.629  0.00  0.00    +0.000 N 
ATOM     36  H   UNK A   0       1.660   0.880  -1.882  0.00  0.00    +0.000 HD
BRANCH  35  37
ATOM     37  C   UNK A   0       0.878   2.519  -2.832  0.00  0.00    +0.000 C 
ATOM     38  C   UNK A   0       1.529   3.815  -3.338  0.00  0.00    +0.000 C 
ATOM     39  C   UNK A   0      -0.124   1.864  -3.769  0.00  0.00    +0.000 C 
ATOM     40  C   UNK A   0       0.192   2.866  -1.488  0.00  0.00    +0.000 C 
ENDBRANCH  35  37
ENDBRANCH  23  33
ENDBRANCH   8  23
TORSDOF 7
