REMARK  Name = CHEMBL1765669
REMARK  24 active torsions:
REMARK  status: ('A' for Active; 'I' for Inactive)
REMARK    1  A    between atoms: CD1_1  and  CG_2
REMARK    2  A    between atoms: CG_2  and  CD2_3
REMARK    3  A    between atoms: CG_2  and  CB_4
REMARK    4  A    between atoms: CB_4  and  CA_5
REMARK    5  A    between atoms: CA_9  and  CB_10
REMARK    6  A    between atoms: CB_10  and  CG_11
REMARK    7  A    between atoms: CA_20  and  CB_21
REMARK    8  A    between atoms: CB_21  and  CG_22
REMARK    9  A    between atoms: CZ_25  and  OH_26
REMARK   10  A    between atoms: C_32  and  O_33
REMARK   11  A    between atoms: C_38  and  C_39
REMARK   12  A    between atoms: CA_45  and  C_46
REMARK   13  A    between atoms: N_48  and  CA_49
REMARK   14  A    between atoms: CA_49  and  CB_50
REMARK   15  A    between atoms: CA_49  and  C_55
REMARK   16  A    between atoms: CB_50  and  CG_51
REMARK   17  A    between atoms: CG_51  and  CD_52
REMARK   18  A    between atoms: CD_52  and  CE_53
REMARK   19  A    between atoms: CE_53  and  NZ_54
REMARK   20  A    between atoms: N_57  and  CA_58
REMARK   21  A    between atoms: CA_58  and  C_59
REMARK   22  A    between atoms: C_59  and  OXT_61
REMARK   23  A    between atoms: CA_65  and  CB_66
REMARK   24  A    between atoms: CB_66  and  CG_67
REMARK                            x       y       z     vdW  Elec       q    Type
REMARK                         _______ _______ _______ _____ _____    ______ ____
ROOT
ATOM      1  CA  TYR A   1       3.978  -0.661  -4.591  0.00  0.00    +0.000 C 
ATOM      2  N   TYR A   1       3.325  -1.627  -6.682  0.00  0.00    +0.000 N 
ATOM      3  C   TYR A   1       2.330  -2.292  -8.681  0.00  0.00    +0.000 C 
ATOM      4  O   TYR A   1       2.685  -2.051 -10.360  0.00  0.00    +0.000 OA
ATOM      5  CA  TYR A   1       1.136  -3.230 -10.462  0.00  0.00    +0.000 C 
ATOM      6  N   TYR A   1       0.195  -3.790  -9.678  0.00  0.00    +0.000 N 
ATOM      7  C   TYR A   1       0.313  -2.795  -8.809  0.00  0.00    +0.000 C 
ATOM      8  O   TYR A   1       0.117  -3.123  -7.670  0.00  0.00    +0.000 OA
ATOM      9  CA  TYR A   1       0.899  -1.248  -9.332  0.00  0.00    +0.000 C 
ATOM     10  N   TYR A   1       0.030  -0.323  -8.981  0.00  0.00    +0.000 N 
ATOM     11  C   UNK A   0      -0.271  -0.054  -7.679  0.00  0.00    +0.000 C 
ATOM     12  O   UNK A   0      -1.075   0.841  -7.444  0.00  0.00    +0.000 OA
ATOM     13  C   UNK A   0       0.353  -0.824  -6.497  0.00  0.00    +0.000 C 
ATOM     14  C   UNK A   0       1.116   0.085  -5.604  0.00  0.00    +0.000 C 
ATOM     15  S   UNK A   3      -0.142   1.247  -4.940  0.00  0.00    +0.000 S 
ATOM     16  S   UNK A   3       0.616   2.654  -3.906  0.00  0.00    +0.000 S 
ATOM     17  C   UNK A   3      -0.104   3.800  -2.888  0.00  0.00    +0.000 C 
ATOM     18  C   UNK A   3       0.709   4.720  -2.017  0.00  0.00    +0.000 C 
ATOM     19  N   UNK A   3       1.376   3.924  -0.957  0.00  0.00    +0.000 N 
ATOM     20  C   ASN A   2       2.310   2.909  -1.178  0.00  0.00    +0.000 C 
ATOM     21  O   ASN A   2       2.793   2.240  -0.271  0.00  0.00    +0.000 OA
ATOM     22  CA  ASN A   2       2.765   2.588  -2.599  0.00  0.00    +0.000 C 
ATOM     23  N   ASN A   2       4.059   2.638  -2.983  0.00  0.00    +0.000 N 
ATOM     24  C   TYR A   1       4.478   1.435  -3.664  0.00  0.00    +0.000 C 
ATOM     25  O   TYR A   1       5.670   1.784  -2.698  0.00  0.00    +0.000 OA
ATOM     26  H   TYR A   1       3.681  -2.637  -7.702  0.00  0.00    +0.000 HD
ATOM     27  H   TYR A   1      -0.032  -4.745  -9.401  0.00  0.00    +0.000 HD
ATOM     28  H   TYR A   1      -0.312   0.181  -9.766  0.00  0.00    +0.000 HD
ATOM     29  H   UNK A   3       1.101   4.142   0.010  0.00  0.00    +0.000 HD
ATOM     30  H   ASN A   2       4.435   3.442  -3.502  0.00  0.00    +0.000 HD
ENDROOT
BRANCH  18  31
ATOM     31  C   UNK A   3      -0.264   5.804  -1.427  0.00  0.00    +0.000 C 
ATOM     32  O   UNK A   3      -0.363   5.874  -0.199  0.00  0.00    +0.000 OA
ATOM     33  N   PRO A   4      -0.933   6.665  -2.335  0.00  0.00    +0.000 N 
ATOM     34  CD  PRO A   4      -1.635   6.248  -3.531  0.00  0.00    +0.000 C 
ATOM     35  CG  PRO A   4      -1.470   7.400  -4.468  0.00  0.00    +0.000 C 
ATOM     36  CB  PRO A   4      -1.758   8.583  -3.555  0.00  0.00    +0.000 C 
ATOM     37  CA  PRO A   4      -1.238   8.148  -2.168  0.00  0.00    +0.000 C 
BRANCH  37  38
ATOM     38  C   PRO A   4      -2.331   8.401  -1.149  0.00  0.00    +0.000 C 
ATOM     39  O   PRO A   4      -2.874   7.384  -0.708  0.00  0.00    +0.000 OA
ATOM     40  N   LYS A   5      -2.715   9.712  -0.821  0.00  0.00    +0.000 N 
ATOM     41  H   LYS A   5      -2.336  10.530  -1.297  0.00  0.00    +0.000 HD
BRANCH  40  42
ATOM     42  CA  LYS A   5      -3.733   9.999   0.237  0.00  0.00    +0.000 C 
BRANCH  42  43
ATOM     43  C   LYS A   5      -4.017  11.528   0.357  0.00  0.00    +0.000 C 
ATOM     44  O   LYS A   5      -3.403  12.309  -0.379  0.00  0.00    +0.000 OA
ATOM     45  N   GLY A   6      -4.955  11.979   1.288  0.00  0.00    +0.000 N 
ATOM     46  H   GLY A   6      -5.473  11.346   1.905  0.00  0.00    +0.000 HD
BRANCH  45  47
ATOM     47  CA  GLY A   6      -5.260  13.427   1.452  0.00  0.00    +0.000 C 
BRANCH  47  48
ATOM     48  C   GLY A   6      -6.318  13.663   2.538  0.00  0.00    +0.000 C 
ATOM     49  O   GLY A   6      -6.798  12.709   3.147  0.00  0.00    +0.000 OA
BRANCH  48  50
ATOM     50  OXT GLY A   6      -6.709  14.940   2.807  0.00  0.00    +0.000 OA
ATOM     51  HXT GLY A   6      -6.336  15.709   2.331  0.00  0.00    +0.000 HD
ENDBRANCH  48  50
ENDBRANCH  47  48
ENDBRANCH  45  47
ENDBRANCH  42  43
BRANCH  42  52
ATOM     52  CB  LYS A   5      -3.239   9.471   1.569  0.00  0.00    +0.000 C 
BRANCH  52  53
ATOM     53  CG  LYS A   5      -2.976   7.993   1.526  0.00  0.00    +0.000 C 
BRANCH  53  54
ATOM     54  CD  LYS A   5      -2.457   7.437   2.797  0.00  0.00    +0.000 C 
BRANCH  54  55
ATOM     55  CE  LYS A   5      -2.184   5.955   2.674  0.00  0.00    +0.000 C 
BRANCH  55  56
ATOM     56  NZ  LYS A   5      -1.704   5.444   3.951  0.00  0.00    +0.000 NA
ATOM     57  HZ1 LYS A   5      -0.834   5.917   4.196  0.00  0.00    +0.000 HD
ATOM     58  HZ2 LYS A   5      -1.509   4.447   3.865  0.00  0.00    +0.000 HD
ENDBRANCH  55  56
ENDBRANCH  54  55
ENDBRANCH  53  54
ENDBRANCH  52  53
ENDBRANCH  42  52
ENDBRANCH  40  42
ENDBRANCH  37  38
ENDBRANCH  18  31
BRANCH  13  59
ATOM     59  O   UNK A   0       1.214  -1.843  -6.668  0.00  0.00    +0.000 OA
ATOM     60  H   UNK A   0       1.764  -1.739  -7.386  0.00  0.00    +0.000 HD
ENDBRANCH  13  59
BRANCH  22  61
ATOM     61  CB  ASN A   2       2.332   1.178  -2.930  0.00  0.00    +0.000 C 
BRANCH  61  62
ATOM     62  CG  ASN A   2       3.098   0.041  -3.335  0.00  0.00    +0.000 C 
ATOM     63  ND2 ASN A   2       5.182  -0.088  -3.610  0.00  0.00    +0.000 N 
ATOM     64  OD1 ASN A   2       2.604  -1.214  -3.235  0.00  0.00    +0.000 OA
ATOM     65 HD21 ASN A   2       5.730   0.583  -3.015  0.00  0.00    +0.000 HD
ATOM     66 HD22 ASN A   2       5.639  -0.753  -2.995  0.00  0.00    +0.000 HD
ENDBRANCH  61  62
ENDBRANCH  22  61
BRANCH   9  67
ATOM     67  CB  TYR A   1       2.409  -0.580  -8.724  0.00  0.00    +0.000 C 
BRANCH  67  68
ATOM     68  CG  TYR A   1       3.957  -1.858  -9.149  0.00  0.00    +0.000 A 
ATOM     69  CD1 TYR A   1       3.307  -3.661  -9.190  0.00  0.00    +0.000 A 
ATOM     70  CE1 TYR A   1       3.934  -4.596  -9.720  0.00  0.00    +0.000 A 
ATOM     71  CZ  TYR A   1       5.190  -4.367  -9.414  0.00  0.00    +0.000 A 
ATOM     72  CE2 TYR A   1       5.602  -3.203  -8.713  0.00  0.00    +0.000 A 
ATOM     73  CD2 TYR A   1       5.103  -1.898  -8.685  0.00  0.00    +0.000 A 
BRANCH  71  74
ATOM     74  OH  TYR A   1       6.106  -5.327  -9.689  0.00  0.00    +0.000 OA
ATOM     75  HH  TYR A   1       5.780  -6.081 -10.215  0.00  0.00    +0.000 HD
ENDBRANCH  71  74
ENDBRANCH  67  68
ENDBRANCH   9  67
BRANCH   5  76
ATOM     76  CB  TYR A   1      -0.199  -2.567 -11.698  0.00  0.00    +0.000 C 
BRANCH  76  77
ATOM     77  CG  TYR A   1       0.025  -2.460 -13.180  0.00  0.00    +0.000 A 
ATOM     78  CD1 TYR A   1       0.887  -3.289 -13.847  0.00  0.00    +0.000 A 
ATOM     79  CE1 TYR A   1       1.286  -2.956 -15.124  0.00  0.00    +0.000 A 
ATOM     80  CZ  TYR A   1       0.625  -2.019 -15.866  0.00  0.00    +0.000 A 
ATOM     81  CE2 TYR A   1      -0.284  -1.233 -15.226  0.00  0.00    +0.000 A 
ATOM     82  CD2 TYR A   1      -0.604  -1.465 -13.906  0.00  0.00    +0.000 A 
ENDBRANCH  76  77
ENDBRANCH   5  76
BRANCH   1  83
ATOM     83  CB  TYR A   1       4.424  -0.235  -2.070  0.00  0.00    +0.000 C 
BRANCH  83  85
ATOM     84  CD1 TYR A   1       4.166  -1.580   0.347  0.00  0.00    +0.000 C 
ATOM     85  CG  TYR A   1       4.328  -0.174   0.171  0.00  0.00    +0.000 C 
ATOM     86  CD2 TYR A   1       5.020  -0.336   2.156  0.00  0.00    +0.000 C 
ENDBRANCH  83  85
ENDBRANCH   1  83
TORSDOF 22
