REMARK  Name = CHEMBL66749
REMARK  9 active torsions:
REMARK  status: ('A' for Active; 'I' for Inactive)
REMARK    1  A    between atoms: C_1  and  O_2
REMARK    2  A    between atoms: O_2  and  C_3
REMARK    3  A    between atoms: C_5  and  O_6
REMARK    4  A    between atoms: O_6  and  C_7
REMARK    5  A    between atoms: N_10  and  C_11
REMARK    6  A    between atoms: C_11  and  C_12
REMARK    7  A    between atoms: C_11  and  C_13
REMARK    8  A    between atoms: C_23  and  C_24
REMARK    9  A    between atoms: C_29  and  N_30
REMARK                            x       y       z     vdW  Elec       q    Type
REMARK                         _______ _______ _______ _____ _____    ______ ____
ROOT
ATOM      1  C   UNL     1       3.111  -0.334   0.700  0.00  0.00    +0.000 A 
ATOM      2  C   UNL     1       4.367   0.045   1.347  0.00  0.00    +0.000 A 
ATOM      3  C   UNL     1       5.098  -0.859   2.036  0.00  0.00    +0.000 A 
ATOM      4  C   UNL     1       4.349  -1.962   2.174  0.00  0.00    +0.000 A 
ATOM      5  C   UNL     1       3.280  -2.434   1.422  0.00  0.00    +0.000 A 
ATOM      6  C   UNL     1       2.540  -1.625   0.688  0.00  0.00    +0.000 A 
ENDROOT
BRANCH   6   7
ATOM      7  C   UNL     1       1.307  -2.410   0.195  0.00  0.00    +0.000 C 
ATOM      8  O   UNL     1       1.086  -3.570   0.569  0.00  0.00    +0.000 OA
ATOM      9  N   UNL     1       0.386  -1.764  -0.615  0.00  0.00    +0.000 N 
ATOM     10  C   UNL     1      -0.885  -1.351   0.034  0.00  0.00    +0.000 C 
ATOM     11  C   UNL     1      -1.956  -1.128  -1.010  0.00  0.00    +0.000 C 
ATOM     12  C   UNL     1      -1.564   0.149  -2.178  0.00  0.00    +0.000 C 
ATOM     13  C   UNL     1      -0.162  -0.699  -2.794  0.00  0.00    +0.000 C 
ATOM     14  C   UNL     1       0.893  -0.983  -1.747  0.00  0.00    +0.000 C 
BRANCH  12  15
ATOM     15  N   UNL     1      -2.141   1.899  -2.166  0.00  0.00    +0.000 N 
ATOM     16  C   UNL     1      -3.350   1.244  -1.685  0.00  0.00    +0.000 C 
ATOM     17  O   UNL     1      -3.972   0.215  -2.180  0.00  0.00    +0.000 OA
ATOM     18  O   UNL     1      -3.726   1.625  -0.493  0.00  0.00    +0.000 OA
ATOM     19  C   UNL     1      -4.821   2.382  -0.851  0.00  0.00    +0.000 C 
ATOM     20  C   UNL     1      -4.121   3.647  -1.010  0.00  0.00    +0.000 A 
ATOM     21  C   UNL     1      -5.042   4.759  -0.466  0.00  0.00    +0.000 A 
ATOM     22  C   UNL     1      -4.936   6.091  -0.709  0.00  0.00    +0.000 A 
ATOM     23  C   UNL     1      -3.844   6.283  -1.524  0.00  0.00    +0.000 A 
ATOM     24  C   UNL     1      -2.850   5.068  -2.081  0.00  0.00    +0.000 A 
ATOM     25  C   UNL     1      -2.909   3.552  -1.780  0.00  0.00    +0.000 A 
ENDBRANCH  12  15
ENDBRANCH   6   7
BRANCH   1  27
ATOM     26  C   UNL     1       1.257   0.896   0.543  0.00  0.00    +0.000 C 
ATOM     27  O   UNL     1       2.577   0.763   0.096  0.00  0.00    +0.000 OA
ENDBRANCH   1  27
BRANCH   3  28
ATOM     28  O   UNL     1       6.393  -0.779   2.478  0.00  0.00    +0.000 OA
BRANCH  28  29
ATOM     29  C   UNL     1       7.349  -1.945   2.573  0.00  0.00    +0.000 C 
ATOM     30  C   UNL     1       7.454  -2.846   1.330  0.00  0.00    +0.000 C 
ATOM     31  C   UNL     1       6.223  -3.723   1.197  0.00  0.00    +0.000 C 
ATOM     32  N   UNL     1       5.834  -4.464   2.503  0.00  0.00    +0.000 NA
ATOM     33  C   UNL     1       6.068  -3.714   3.822  0.00  0.00    +0.000 C 
ATOM     34  C   UNL     1       7.279  -2.833   3.826  0.00  0.00    +0.000 C 
BRANCH  32  35
ATOM     35  C   UNL     1       4.420  -5.010   2.453  0.00  0.00    +0.000 C 
ATOM     36  C   UNL     1       4.083  -5.629   1.071  0.00  0.00    +0.000 C 
BRANCH  35  37
ATOM     37  C   UNL     1       3.918  -5.778   3.644  0.00  0.00    +0.000 A 
ATOM     38  C   UNL     1       3.770  -5.163   4.903  0.00  0.00    +0.000 A 
ATOM     39  C   UNL     1       3.362  -5.890   5.990  0.00  0.00    +0.000 A 
ATOM     40  C   UNL     1       2.905  -7.162   5.734  0.00  0.00    +0.000 A 
ATOM     41  N   UNL     1       2.841  -7.730   4.509  0.00  0.00    +0.000 NA
ATOM     42  C   UNL     1       3.358  -7.027   3.491  0.00  0.00    +0.000 A 
ENDBRANCH  35  37
ENDBRANCH  32  35
ENDBRANCH  28  29
ENDBRANCH   3  28
TORSDOF 7
