REMARK  Name = CHEMBL2035014
REMARK  13 active torsions:
REMARK  status: ('A' for Active; 'I' for Inactive)
REMARK    1  A    between atoms: CD1_1  and  CG_2
REMARK    2  A    between atoms: CG_2  and  CD2_3
REMARK    3  A    between atoms: CG_2  and  CB_4
REMARK    4  A    between atoms: CB_4  and  CA_5
REMARK    5  A    between atoms: C_9  and  C_10
REMARK    6  A    between atoms: N_21  and  C_22
REMARK    7  A    between atoms: C_22  and  C_23
REMARK    8  A    between atoms: C_22  and  C_29
REMARK    9  A    between atoms: N_25  and  C_26
REMARK   10  A    between atoms: C_26  and  C_27
REMARK   11  A    between atoms: C_26  and  C_28
REMARK   12  A    between atoms: C_34  and  O_35
REMARK   13  A    between atoms: O_35  and  C_36
REMARK                            x       y       z     vdW  Elec       q    Type
REMARK                         _______ _______ _______ _____ _____    ______ ____
ROOT
ATOM      1  CA  LEU A   2       4.561  -1.299  -0.944  0.00  0.00    +0.000 C 
ATOM      2  C   LEU A   2       5.034  -1.907  -2.296  0.00  0.00    +0.000 C 
ATOM      3  O   LEU A   2       4.391  -1.854  -3.360  0.00  0.00    +0.000 OA
ATOM      4  N   UNK A   1       6.273  -2.481  -2.277  0.00  0.00    +0.000 N 
ATOM      5  C   UNK A   1       7.093  -2.370  -1.095  0.00  0.00    +0.000 C 
ATOM      6  C   UNK A   1       6.251  -2.874   0.050  0.00  0.00    +0.000 C 
ATOM      7  O   UNK A   1       6.791  -3.537   0.948  0.00  0.00    +0.000 OA
ATOM      8  N   LEU A   2       4.941  -2.380   0.091  0.00  0.00    +0.000 N 
ATOM      9  H   UNK A   1       6.625  -2.855  -3.150  0.00  0.00    +0.000 HD
ENDROOT
BRANCH   5  10
ATOM     10  C   UNK A   1       8.449  -3.083  -1.049  0.00  0.00    +0.000 C 
ATOM     11  C   UNK A   1       9.220  -2.742  -2.321  0.00  0.00    +0.000 C 
ATOM     12  C   UNK A   1       8.907  -3.945  -3.153  0.00  0.00    +0.000 A 
ATOM     13  C   UNK A   1       8.984  -4.065  -4.522  0.00  0.00    +0.000 A 
ATOM     14  C   UNK A   1       8.635  -5.290  -5.093  0.00  0.00    +0.000 A 
ATOM     15  C   UNK A   1       8.216  -6.369  -4.298  0.00  0.00    +0.000 A 
ATOM     16  C   UNK A   1       8.116  -6.234  -2.918  0.00  0.00    +0.000 A 
ATOM     17  C   UNK A   1       8.455  -5.012  -2.370  0.00  0.00    +0.000 A 
ATOM     18  C   UNK A   1       8.404  -4.629  -0.937  0.00  0.00    +0.000 C 
ENDBRANCH   5  10
BRANCH   1  19
ATOM     19  CB  LEU A   2       3.077  -0.949  -1.096  0.00  0.00    +0.000 C 
BRANCH  19  21
ATOM     20  CD1 LEU A   2       0.835   0.087  -0.153  0.00  0.00    +0.000 C 
ATOM     21  CG  LEU A   2       2.362   0.093  -0.155  0.00  0.00    +0.000 C 
ATOM     22  CD2 LEU A   2       2.711   0.090   1.310  0.00  0.00    +0.000 C 
ENDBRANCH  19  21
ENDBRANCH   1  19
BRANCH   8  23
ATOM     23  C   UNK A   0       4.114  -2.751   1.263  0.00  0.00    +0.000 C 
BRANCH  23  24
ATOM     24  C   UNK A   0       4.861  -3.203   2.549  0.00  0.00    +0.000 A 
ATOM     25  C   UNK A   0       4.445  -4.442   3.100  0.00  0.00    +0.000 A 
ATOM     26  C   UNK A   0       4.955  -4.988   4.260  0.00  0.00    +0.000 A 
ATOM     27  C   UNK A   0       6.012  -4.361   4.869  0.00  0.00    +0.000 A 
ATOM     28  C   UNK A   0       6.503  -3.164   4.346  0.00  0.00    +0.000 A 
ATOM     29  C   UNK A   0       5.948  -2.545   3.207  0.00  0.00    +0.000 A 
BRANCH  29  30
ATOM     30  O   UNK A   0       6.767  -1.489   2.853  0.00  0.00    +0.000 OA
BRANCH  30  31
ATOM     31  C   UNK A   0       6.324  -0.389   2.109  0.00  0.00    +0.000 C 
ATOM     32  F   UNK A   0       6.373  -0.616   0.796  0.00  0.00    +0.000 F 
ATOM     33  F   UNK A   0       5.102  -0.047   2.509  0.00  0.00    +0.000 F 
ATOM     34  F   UNK A   0       7.127   0.686   2.274  0.00  0.00    +0.000 F 
ENDBRANCH  30  31
ENDBRANCH  29  30
ENDBRANCH  23  24
BRANCH  23  35
ATOM     35  C   UNK A   0       2.847  -3.644   0.823  0.00  0.00    +0.000 C 
ATOM     36  O   UNK A   0       2.767  -4.871   0.923  0.00  0.00    +0.000 OA
ATOM     37  N   UNK A   0       1.797  -3.035   0.187  0.00  0.00    +0.000 N 
ATOM     38  H   UNK A   0       1.658  -2.052   0.251  0.00  0.00    +0.000 HD
BRANCH  37  39
ATOM     39  C   UNK A   0       0.782  -3.751  -0.557  0.00  0.00    +0.000 C 
ATOM     40  C   UNK A   0      -0.230  -4.125   0.497  0.00  0.00    +0.000 C 
ATOM     41  C   UNK A   0       0.144  -2.913  -1.679  0.00  0.00    +0.000 C 
ENDBRANCH  37  39
ENDBRANCH  23  35
ENDBRANCH   8  23
TORSDOF 9
