REMARK  Name = CHEMBL211443
REMARK  8 active torsions:
REMARK  status: ('A' for Active; 'I' for Inactive)
REMARK    1  A    between atoms: CD1_1  and  CG_2
REMARK    2  A    between atoms: CG_2  and  CD2_3
REMARK    3  A    between atoms: CG_2  and  CB_4
REMARK    4  A    between atoms: CB_4  and  CA_5
REMARK    5  A    between atoms: C_9  and  C_10
REMARK    6  A    between atoms: N_21  and  C_22
REMARK    7  A    between atoms: C_22  and  C_23
REMARK    8  A    between atoms: C_22  and  C_31
REMARK                            x       y       z     vdW  Elec       q    Type
REMARK                         _______ _______ _______ _____ _____    ______ ____
ROOT
ATOM      1  CA  LEU A   2       4.838  -0.997   0.341  0.00  0.00    +0.000 C 
ATOM      2  C   LEU A   2       5.134  -2.428   0.972  0.00  0.00    +0.000 C 
ATOM      3  O   LEU A   2       4.503  -3.474   0.845  0.00  0.00    +0.000 OA
ATOM      4  N   UNK A   1       6.305  -2.456   1.655  0.00  0.00    +0.000 N 
ATOM      5  C   UNK A   1       7.258  -1.383   1.469  0.00  0.00    +0.000 C 
ATOM      6  C   UNK A   1       6.566  -0.078   1.752  0.00  0.00    +0.000 C 
ATOM      7  O   UNK A   1       7.225   0.855   2.254  0.00  0.00    +0.000 OA
ATOM      8  N   LEU A   2       5.235  -0.037   1.404  0.00  0.00    +0.000 N 
ATOM      9  H   UNK A   1       6.565  -3.364   2.028  0.00  0.00    +0.000 HD
ENDROOT
BRANCH   5  10
ATOM     10  C   UNK A   1       8.410  -1.421   2.472  0.00  0.00    +0.000 C 
ATOM     11  C   UNK A   1       9.246  -2.671   2.252  0.00  0.00    +0.000 C 
ATOM     12  C   UNK A   1       8.578  -3.619   3.197  0.00  0.00    +0.000 A 
ATOM     13  C   UNK A   1       8.569  -4.996   3.119  0.00  0.00    +0.000 A 
ATOM     14  C   UNK A   1       7.778  -5.699   4.026  0.00  0.00    +0.000 A 
ATOM     15  C   UNK A   1       6.995  -5.025   4.978  0.00  0.00    +0.000 A 
ATOM     16  C   UNK A   1       6.987  -3.631   5.037  0.00  0.00    +0.000 A 
ATOM     17  C   UNK A   1       7.794  -2.944   4.147  0.00  0.00    +0.000 A 
ATOM     18  C   UNK A   1       7.873  -1.466   3.936  0.00  0.00    +0.000 C 
ENDBRANCH   5  10
BRANCH   1  19
ATOM     19  CB  LEU A   2       3.420  -0.844  -0.138  0.00  0.00    +0.000 C 
BRANCH  19  21
ATOM     20  CD1 LEU A   2       1.114   0.378  -0.676  0.00  0.00    +0.000 C 
ATOM     21  CG  LEU A   2       2.641   0.327  -0.817  0.00  0.00    +0.000 C 
ATOM     22  CD2 LEU A   2       2.907   1.653  -0.160  0.00  0.00    +0.000 C 
ENDBRANCH  19  21
ENDBRANCH   1  19
BRANCH   8  23
ATOM     23  C   UNK A   0       4.271   0.734   2.265  0.00  0.00    +0.000 C 
BRANCH  23  24
ATOM     24  C   UNK A   0       2.671   0.185   2.899  0.00  0.00    +0.000 C 
ATOM     25  O   UNK A   0       2.123   0.916   3.743  0.00  0.00    +0.000 OA
ATOM     26  N   UNK A   0       1.745  -0.809   2.350  0.00  0.00    +0.000 N 
ATOM     27  C   UNK A   0       1.924  -2.202   1.822  0.00  0.00    +0.000 C 
ATOM     28  C   UNK A   0       1.114  -2.458   0.502  0.00  0.00    +0.000 C 
ATOM     29  O   UNK A   0      -0.285  -2.228   0.685  0.00  0.00    +0.000 OA
ATOM     30  C   UNK A   0      -0.617  -0.999   1.357  0.00  0.00    +0.000 C 
ATOM     31  C   UNK A   0       0.296  -0.622   2.572  0.00  0.00    +0.000 C 
ENDBRANCH  23  24
BRANCH  23  32
ATOM     32  C   UNK A   0       4.915   2.074   2.840  0.00  0.00    +0.000 A 
ATOM     33  C   UNK A   0       5.823   2.905   2.073  0.00  0.00    +0.000 A 
ATOM     34  C   UNK A   0       6.597   3.890   2.702  0.00  0.00    +0.000 A 
ATOM     35  C   UNK A   0       6.334   4.179   4.030  0.00  0.00    +0.000 A 
ATOM     36  F   UNK A   0       7.092   5.062   4.688  0.00  0.00    +0.000 F 
ATOM     37  C   UNK A   0       5.317   3.534   4.712  0.00  0.00    +0.000 A 
ATOM     38  C   UNK A   0       4.649   2.477   4.129  0.00  0.00    +0.000 A 
ATOM     39  F   UNK A   0       3.797   1.818   4.903  0.00  0.00    +0.000 F 
ENDBRANCH  23  32
ENDBRANCH   8  23
TORSDOF 6
