REMARK  Name = CHEMBL1254025
REMARK  7 active torsions:
REMARK  status: ('A' for Active; 'I' for Inactive)
REMARK    1  A    between atoms: C_1  and  O_2
REMARK    2  A    between atoms: O_2  and  N_3
REMARK    3  A    between atoms: C_6  and  C_7
REMARK    4  A    between atoms: C_7  and  O_8
REMARK    5  A    between atoms: C_10  and  C_12
REMARK    6  A    between atoms: C_15  and  C_16
REMARK    7  A    between atoms: C_21  and  C_22
REMARK                            x       y       z     vdW  Elec       q    Type
REMARK                         _______ _______ _______ _____ _____    ______ ____
ROOT
ATOM      1  N   UNL     1       3.264  -0.635   1.005  0.00  0.00    +0.000 NA
ATOM      2  C   UNL     1       4.565  -0.581   0.965  0.00  0.00    +0.000 C 
ATOM      3  C   UNL     1       5.411  -1.196   2.038  0.00  0.00    +0.000 C 
ATOM      4  C   UNL     1       6.606  -0.228   2.030  0.00  0.00    +0.000 C 
ATOM      5  N   UNL     1       6.720   0.175   0.604  0.00  0.00    +0.000 N 
ATOM      6  C   UNL     1       7.865   0.768   0.078  0.00  0.00    +0.000 C 
ATOM      7  O   UNL     1       8.903   0.964   0.720  0.00  0.00    +0.000 OA
ATOM      8  C   UNL     1       5.437   0.032  -0.109  0.00  0.00    +0.000 C 
ENDROOT
BRANCH   6   9
ATOM      9  C   UNL     1       7.904   1.200  -1.333  0.00  0.00    +0.000 A 
ATOM     10  C   UNL     1       8.901   0.729  -2.198  0.00  0.00    +0.000 A 
ATOM     11  C   UNL     1       9.004   1.255  -3.493  0.00  0.00    +0.000 A 
ATOM     12  C   UNL     1       8.073   2.197  -3.965  0.00  0.00    +0.000 A 
ATOM     13  C   UNL     1       7.101   2.666  -3.068  0.00  0.00    +0.000 A 
ATOM     14  C   UNL     1       7.046   2.210  -1.753  0.00  0.00    +0.000 A 
BRANCH  12  15
ATOM     15  C   UNL     1       8.132   2.677  -5.359  0.00  0.00    +0.000 A 
ATOM     16  C   UNL     1       8.049   1.742  -6.410  0.00  0.00    +0.000 A 
ATOM     17  C   UNL     1       8.208   2.128  -7.742  0.00  0.00    +0.000 A 
ATOM     18  C   UNL     1       8.382   3.470  -8.057  0.00  0.00    +0.000 A 
ATOM     19  C   UNL     1       8.425   4.420  -7.039  0.00  0.00    +0.000 A 
ATOM     20  C   UNL     1       8.304   4.040  -5.691  0.00  0.00    +0.000 A 
ATOM     21  C   UNL     1       8.361   5.107  -4.631  0.00  0.00    +0.000 C 
ENDBRANCH  12  15
ENDBRANCH   6   9
BRANCH   1  23
ATOM     22  C   UNL     1       1.254  -0.040  -0.003  0.00  0.00    +0.000 C 
ATOM     23  O   UNL     1       2.683   0.009  -0.105  0.00  0.00    +0.000 OA
ENDBRANCH   1  23
BRANCH   4  24
ATOM     24  C   UNL     1       7.861  -0.877   2.649  0.00  0.00    +0.000 C 
BRANCH  24  25
ATOM     25  O   UNL     1       8.076  -2.180   2.112  0.00  0.00    +0.000 OA
ATOM     26  H   UNL     1       8.062  -2.073   1.144  0.00  0.00    +0.000 HD
ENDBRANCH  24  25
ENDBRANCH   4  24
TORSDOF 5
