REMARK  Name = CHEMBL105514
REMARK  8 active torsions:
REMARK  status: ('A' for Active; 'I' for Inactive)
REMARK    1  A    between atoms: C_1  and  O_2
REMARK    2  A    between atoms: O_2  and  C_3
REMARK    3  A    between atoms: C_5  and  O_6
REMARK    4  A    between atoms: O_6  and  C_7
REMARK    5  A    between atoms: C_7  and  C_8
REMARK    6  A    between atoms: C_7  and  C_9
REMARK    7  A    between atoms: C_19  and  C_20
REMARK    8  A    between atoms: C_25  and  N_26
REMARK                            x       y       z     vdW  Elec       q    Type
REMARK                         _______ _______ _______ _____ _____    ______ ____
ROOT
ATOM      1  C   UNL     1      -0.557   4.780  -4.302  0.00  0.00    +0.000 A 
ATOM      2  C   UNL     1       0.721   4.872  -3.785  0.00  0.00    +0.000 A 
ATOM      3  C   UNL     1       1.894   4.735  -4.494  0.00  0.00    +0.000 A 
ATOM      4  C   UNL     1       1.747   4.318  -5.809  0.00  0.00    +0.000 A 
ATOM      5  F   UNL     1       2.830   4.071  -6.561  0.00  0.00    +0.000 F 
ATOM      6  C   UNL     1       0.464   4.102  -6.359  0.00  0.00    +0.000 A 
ATOM      7  C   UNL     1      -0.714   4.358  -5.613  0.00  0.00    +0.000 A 
ENDROOT
BRANCH   7   8
ATOM      8  C   UNL     1      -2.050   4.035  -6.210  0.00  0.00    +0.000 C 
ATOM      9  O   UNL     1      -2.102   3.468  -7.299  0.00  0.00    +0.000 OA
ATOM     10  N   UNL     1      -3.201   4.304  -5.486  0.00  0.00    +0.000 N 
ATOM     11  C   UNL     1      -4.148   3.240  -5.184  0.00  0.00    +0.000 C 
ATOM     12  C   UNL     1      -5.537   3.644  -5.638  0.00  0.00    +0.000 C 
ATOM     13  C   UNL     1      -5.957   5.006  -5.040  0.00  0.00    +0.000 C 
ATOM     14  C   UNL     1      -4.922   6.080  -5.398  0.00  0.00    +0.000 C 
ATOM     15  C   UNL     1      -3.537   5.638  -5.018  0.00  0.00    +0.000 C 
BRANCH  13  16
ATOM     16  N   UNL     1      -6.349   4.906  -3.588  0.00  0.00    +0.000 N 
ATOM     17  C   UNL     1      -5.516   4.459  -2.561  0.00  0.00    +0.000 C 
ATOM     18  O   UNL     1      -4.377   4.826  -2.290  0.00  0.00    +0.000 OA
ATOM     19  O   UNL     1      -6.069   3.479  -1.806  0.00  0.00    +0.000 OA
ATOM     20  C   UNL     1      -7.113   4.015  -1.023  0.00  0.00    +0.000 C 
ATOM     21  C   UNL     1      -8.070   4.779  -1.883  0.00  0.00    +0.000 A 
ATOM     22  C   UNL     1      -9.332   5.092  -1.375  0.00  0.00    +0.000 A 
ATOM     23  C   UNL     1     -10.223   5.821  -2.148  0.00  0.00    +0.000 A 
ATOM     24  C   UNL     1      -9.851   6.247  -3.421  0.00  0.00    +0.000 A 
ATOM     25  C   UNL     1      -8.589   5.938  -3.934  0.00  0.00    +0.000 A 
ATOM     26  C   UNL     1      -7.686   5.194  -3.173  0.00  0.00    +0.000 A 
ENDBRANCH  13  16
ENDBRANCH   7   8
BRANCH   1  28
ATOM     27  C   UNL     1      -1.625   6.249  -2.795  0.00  0.00    +0.000 C 
ATOM     28  O   UNL     1      -1.563   4.940  -3.390  0.00  0.00    +0.000 OA
ENDBRANCH   1  28
BRANCH   3  29
ATOM     29  O   UNL     1       3.133   4.952  -3.955  0.00  0.00    +0.000 OA
BRANCH  29  30
ATOM     30  C   UNL     1       3.292   5.445  -2.591  0.00  0.00    +0.000 C 
ATOM     31  C   UNL     1       2.866   4.400  -1.538  0.00  0.00    +0.000 C 
BRANCH  30  32
ATOM     32  C   UNL     1       2.738   6.858  -2.354  0.00  0.00    +0.000 A 
ATOM     33  C   UNL     1       3.465   8.008  -2.648  0.00  0.00    +0.000 A 
ATOM     34  C   UNL     1       2.868   9.271  -2.499  0.00  0.00    +0.000 A 
ATOM     35  N   UNL     1       1.538   9.422  -2.142  0.00  0.00    +0.000 N 
ATOM     36  O   UNL     1       0.990  10.559  -2.059  0.00  0.00    +0.000 OA
ATOM     37  C   UNL     1       0.836   8.298  -1.829  0.00  0.00    +0.000 A 
ATOM     38  C   UNL     1       1.465   7.058  -1.823  0.00  0.00    +0.000 A 
ENDBRANCH  30  32
ENDBRANCH  29  30
ENDBRANCH   3  29
TORSDOF 6
