REMARK  Name = CHEMBL1765665
REMARK  30 active torsions:
REMARK  status: ('A' for Active; 'I' for Inactive)
REMARK    1  A    between atoms: CD1_1  and  CG_2
REMARK    2  A    between atoms: CG_2  and  CD2_3
REMARK    3  A    between atoms: CG_2  and  CB_4
REMARK    4  A    between atoms: CB_4  and  CA_5
REMARK    5  A    between atoms: CA_9  and  CB_10
REMARK    6  A    between atoms: CB_10  and  CG_11
REMARK    7  A    between atoms: CA_20  and  CB_21
REMARK    8  A    between atoms: CB_21  and  CG_22
REMARK    9  A    between atoms: CZ_25  and  OH_26
REMARK   10  A    between atoms: C_37  and  C_38
REMARK   11  A    between atoms: CA_44  and  C_45
REMARK   12  A    between atoms: N_47  and  C_48
REMARK   13  A    between atoms: C_48  and  C_49
REMARK   14  A    between atoms: C_48  and  C_89
REMARK   15  A    between atoms: C_49  and  C_50
REMARK   16  A    between atoms: C_50  and  C_51
REMARK   17  A    between atoms: C_51  and  C_52
REMARK   18  A    between atoms: C_52  and  N_53
REMARK   19  A    between atoms: C_54  and  C_56
REMARK   20  A    between atoms: C_59  and  C_60
REMARK   21  A    between atoms: C_66  and  S_67
REMARK   22  A    between atoms: S_67  and  O_70
REMARK   23  A    between atoms: C_74  and  S_75
REMARK   24  A    between atoms: C_79  and  N_80
REMARK   25  A    between atoms: C_84  and  C_85
REMARK   26  A    between atoms: N_91  and  CA_92
REMARK   27  A    between atoms: CA_92  and  C_93
REMARK   28  A    between atoms: C_93  and  OXT_95
REMARK   29  A    between atoms: CA_99  and  CB_100
REMARK   30  A    between atoms: CB_100  and  CG_101
REMARK                            x       y       z     vdW  Elec       q    Type
REMARK                         _______ _______ _______ _____ _____    ______ ____
ROOT
ATOM      1  C   UNK A   3      -0.350  -0.580   6.163  0.00  0.00    +0.000 C 
ATOM      2  O   UNK A   3      -0.338  -1.804   5.996  0.00  0.00    +0.000 OA
ATOM      3  N   PRO A   4      -0.917   0.036   7.268  0.00  0.00    +0.000 N 
ATOM      4  CD  PRO A   4      -1.730   1.244   7.334  0.00  0.00    +0.000 C 
ATOM      5  CG  PRO A   4      -1.361   1.784   8.685  0.00  0.00    +0.000 C 
ATOM      6  CB  PRO A   4      -1.451   0.535   9.540  0.00  0.00    +0.000 C 
ATOM      7  CA  PRO A   4      -1.055  -0.629   8.601  0.00  0.00    +0.000 C 
ENDROOT
BRANCH   1  25
ATOM      8  CA  TYR A   1       5.436   0.447   1.162  0.00  0.00    +0.000 C 
ATOM      9  N   TYR A   1       6.290   1.941   0.878  0.00  0.00    +0.000 N 
ATOM     10  C   TYR A   1       5.789   3.362   0.490  0.00  0.00    +0.000 C 
ATOM     11  O   TYR A   1       6.107   4.285   1.271  0.00  0.00    +0.000 OA
ATOM     12  CA  TYR A   1       4.791   3.605  -0.710  0.00  0.00    +0.000 C 
ATOM     13  N   TYR A   1       3.324   3.722  -0.861  0.00  0.00    +0.000 N 
ATOM     14  C   TYR A   1       2.460   4.681  -0.279  0.00  0.00    +0.000 C 
ATOM     15  O   TYR A   1       1.267   4.361  -0.485  0.00  0.00    +0.000 OA
ATOM     16  CA  TYR A   1       3.108   5.830   1.004  0.00  0.00    +0.000 C 
ATOM     17  N   TYR A   1       2.545   6.997   0.435  0.00  0.00    +0.000 N 
ATOM     18  C   UNK A   0       1.224   7.282   0.552  0.00  0.00    +0.000 C 
ATOM     19  O   UNK A   0       0.833   8.289  -0.040  0.00  0.00    +0.000 OA
ATOM     20  C   UNK A   0       0.214   6.397   1.364  0.00  0.00    +0.000 C 
ATOM     21  C   UNK A   0       0.532   5.110   2.135  0.00  0.00    +0.000 C 
ATOM     22  S   UNK A   3      -0.770   4.055   2.851  0.00  0.00    +0.000 S 
ATOM     23  S   UNK A   3       0.431   3.091   4.252  0.00  0.00    +0.000 S 
ATOM     24  C   UNK A   3      -0.237   1.443   4.573  0.00  0.00    +0.000 C 
ATOM     25  C   UNK A   3       0.548   0.270   5.193  0.00  0.00    +0.000 C 
ATOM     26  N   UNK A   3       1.055  -0.698   4.115  0.00  0.00    +0.000 N 
ATOM     27  C   ASN A   2       1.981  -0.527   3.138  0.00  0.00    +0.000 C 
ATOM     28  O   ASN A   2       2.054  -1.223   2.122  0.00  0.00    +0.000 OA
ATOM     29  CA  ASN A   2       2.773   0.688   3.207  0.00  0.00    +0.000 C 
ATOM     30  N   ASN A   2       4.355   0.295   3.428  0.00  0.00    +0.000 N 
ATOM     31  C   TYR A   1       5.512   0.171   2.659  0.00  0.00    +0.000 C 
ATOM     32  O   TYR A   1       6.524   0.563   3.269  0.00  0.00    +0.000 OA
ATOM     33  H   TYR A   1       6.999   2.049   1.628  0.00  0.00    +0.000 HD
ATOM     34  H   TYR A   1       2.852   2.846  -0.869  0.00  0.00    +0.000 HD
ATOM     35  H   TYR A   1       3.139   7.611  -0.115  0.00  0.00    +0.000 HD
ATOM     36  H   UNK A   3       0.807  -1.674   4.297  0.00  0.00    +0.000 HD
ATOM     37  H   ASN A   2       4.849   0.879   4.117  0.00  0.00    +0.000 HD
BRANCH  29  38
ATOM     38  CB  ASN A   2       2.251   1.584   2.060  0.00  0.00    +0.000 C 
BRANCH  38  39
ATOM     39  CG  ASN A   2       3.300   2.424   1.679  0.00  0.00    +0.000 C 
ATOM     40  ND2 ASN A   2       4.516   2.331   2.044  0.00  0.00    +0.000 N 
ATOM     41  OD1 ASN A   2       3.024   3.571   1.298  0.00  0.00    +0.000 OA
ATOM     42 HD21 ASN A   2       4.953   1.906   2.829  0.00  0.00    +0.000 HD
ATOM     43 HD22 ASN A   2       5.281   2.988   2.062  0.00  0.00    +0.000 HD
ENDBRANCH  38  39
ENDBRANCH  29  38
BRANCH  16  44
ATOM     44  CB  TYR A   1       3.107   6.173   2.780  0.00  0.00    +0.000 C 
BRANCH  44  45
ATOM     45  CG  TYR A   1       3.400   5.202   3.950  0.00  0.00    +0.000 A 
ATOM     46  CD1 TYR A   1       4.253   4.279   3.597  0.00  0.00    +0.000 A 
ATOM     47  CE1 TYR A   1       4.243   3.054   4.294  0.00  0.00    +0.000 A 
ATOM     48  CZ  TYR A   1       3.980   2.655   5.529  0.00  0.00    +0.000 A 
ATOM     49  CE2 TYR A   1       3.491   3.753   6.110  0.00  0.00    +0.000 A 
ATOM     50  CD2 TYR A   1       3.181   5.019   5.328  0.00  0.00    +0.000 A 
BRANCH  48  51
ATOM     51  OH  TYR A   1       3.999   1.376   5.974  0.00  0.00    +0.000 OA
ATOM     52  HH  TYR A   1       4.215   0.583   5.433  0.00  0.00    +0.000 HD
ENDBRANCH  48  51
ENDBRANCH  44  45
ENDBRANCH  16  44
BRANCH  12  53
ATOM     53  CB  TYR A   1       5.306   4.806  -1.414  0.00  0.00    +0.000 C 
BRANCH  53  54
ATOM     54  CG  TYR A   1       6.792   4.885  -1.493  0.00  0.00    +0.000 A 
ATOM     55  CD1 TYR A   1       7.750   4.063  -0.851  0.00  0.00    +0.000 A 
ATOM     56  CE1 TYR A   1       9.026   4.459  -0.583  0.00  0.00    +0.000 A 
ATOM     57  CZ  TYR A   1       9.476   5.494  -1.346  0.00  0.00    +0.000 A 
ATOM     58  CE2 TYR A   1       8.589   6.242  -2.136  0.00  0.00    +0.000 A 
ATOM     59  CD2 TYR A   1       7.235   5.994  -2.149  0.00  0.00    +0.000 A 
ENDBRANCH  53  54
ENDBRANCH  12  53
BRANCH   8  60
ATOM     60  CB  TYR A   1       4.995  -0.673   0.257  0.00  0.00    +0.000 C 
BRANCH  60  62
ATOM     61  CD1 TYR A   1       6.066   0.541  -1.536  0.00  0.00    +0.000 C 
ATOM     62  CG  TYR A   1       4.791  -0.156  -1.150  0.00  0.00    +0.000 C 
ATOM     63  CD2 TYR A   1       4.607  -1.317  -2.080  0.00  0.00    +0.000 C 
ENDBRANCH  60  62
ENDBRANCH   8  60
ENDBRANCH   1  25
BRANCH   7  64
ATOM     64  C   PRO A   4      -2.242  -1.606   8.676  0.00  0.00    +0.000 C 
ATOM     65  O   PRO A   4      -3.097  -1.578   7.789  0.00  0.00    +0.000 OA
ATOM     66  N   UNK A   5      -2.330  -2.430   9.794  0.00  0.00    +0.000 N 
ATOM     67  H   UNK A   5      -1.790  -2.237  10.634  0.00  0.00    +0.000 HD
BRANCH  66  68
ATOM     68  C   UNK A   5      -3.316  -3.548   9.915  0.00  0.00    +0.000 C 
BRANCH  68  69
ATOM     69  C   UNK A   5      -3.366  -4.113  11.383  0.00  0.00    +0.000 C 
ATOM     70  O   UNK A   5      -2.641  -3.646  12.265  0.00  0.00    +0.000 OA
ATOM     71  N   GLY A   6      -4.250  -5.145  11.649  0.00  0.00    +0.000 N 
ATOM     72  H   GLY A   6      -4.853  -5.532  10.924  0.00  0.00    +0.000 HD
BRANCH  71  73
ATOM     73  CA  GLY A   6      -4.369  -5.777  12.977  0.00  0.00    +0.000 C 
BRANCH  73  74
ATOM     74  C   GLY A   6      -5.416  -6.896  12.977  0.00  0.00    +0.000 C 
ATOM     75  O   GLY A   6      -6.055  -7.206  11.979  0.00  0.00    +0.000 OA
BRANCH  74  76
ATOM     76  OXT GLY A   6      -5.601  -7.529  14.159  0.00  0.00    +0.000 OA
ATOM     77  HXT GLY A   6      -5.066  -7.248  14.924  0.00  0.00    +0.000 HD
ENDBRANCH  74  76
ENDBRANCH  73  74
ENDBRANCH  71  73
ENDBRANCH  68  69
BRANCH  68  78
ATOM     78  C   UNK A   5      -2.943  -4.691   8.950  0.00  0.00    +0.000 C 
BRANCH  78  79
ATOM     79  C   UNK A   5      -2.865  -4.225   7.505  0.00  0.00    +0.000 C 
BRANCH  79  80
ATOM     80  C   UNK A   5      -2.501  -5.282   6.501  0.00  0.00    +0.000 C 
BRANCH  80  81
ATOM     81  C   UNK A   5      -2.435  -4.641   5.119  0.00  0.00    +0.000 C 
BRANCH  81  82
ATOM     82  N   UNK A   5      -2.044  -5.602   4.124  0.00  0.00    +0.000 N 
ATOM     83  C   UNK A   5      -1.875  -5.239   2.810  0.00  0.00    +0.000 C 
ATOM     84  O   UNK A   5      -1.956  -4.084   2.389  0.00  0.00    +0.000 OA
ATOM     85  H   UNK A   5      -1.903  -6.568   4.406  0.00  0.00    +0.000 HD
BRANCH  83  86
ATOM     86  C   UNK A   5      -1.468  -6.321   1.894  0.00  0.00    +0.000 A 
ATOM     87  C   UNK A   5      -0.497  -6.060   0.944  0.00  0.00    +0.000 A 
ATOM     88  C   UNK A   5      -0.160  -7.033   0.001  0.00  0.00    +0.000 A 
ATOM     89  C   UNK A   5      -0.697  -8.337   0.014  0.00  0.00    +0.000 A 
ATOM     90  C   UNK A   5      -1.870  -8.485   0.850  0.00  0.00    +0.000 A 
ATOM     91  C   UNK A   5      -2.140  -7.525   1.857  0.00  0.00    +0.000 A 
BRANCH  89  92
ATOM     92  C   UNK A   5       0.100  -9.410  -0.812  0.00  0.00    +0.000 A 
ATOM     93  C   UNK A   5      -0.247 -10.732  -0.789  0.00  0.00    +0.000 A 
ATOM     94  C   UNK A   5      -0.963 -11.269   0.329  0.00  0.00    +0.000 A 
ATOM     95  C   UNK A   5      -1.612 -12.427   0.333  0.00  0.00    +0.000 A 
ATOM     96  C   UNK A   5      -1.327 -13.398  -0.727  0.00  0.00    +0.000 A 
ATOM     97  N   UNK A   5      -1.881 -14.568  -0.674  0.00  0.00    +0.000 NA
ATOM     98  C   UNK A   5      -0.320 -12.984  -1.752  0.00  0.00    +0.000 A 
ATOM     99  C   UNK A   5       0.149 -11.717  -1.802  0.00  0.00    +0.000 A 
ATOM    100  O   UNK A   5       0.956 -11.262  -2.818  0.00  0.00    +0.000 OA
ATOM    101  C   UNK A   5       1.093  -9.912  -2.938  0.00  0.00    +0.000 A 
ATOM    102  C   UNK A   5       1.034  -9.271  -4.152  0.00  0.00    +0.000 A 
ATOM    103  C   UNK A   5       1.642  -8.015  -4.305  0.00  0.00    +0.000 A 
ATOM    104  C   UNK A   5       2.187  -7.405  -3.164  0.00  0.00    +0.000 A 
ATOM    105  C   UNK A   5       2.069  -8.017  -1.909  0.00  0.00    +0.000 A 
ATOM    106  C   UNK A   5       1.246  -9.145  -1.801  0.00  0.00    +0.000 A 
ATOM    107  H   UNK A   5      -2.544 -14.620   0.107  0.00  0.00    +0.000 HD
BRANCH 102 108
ATOM    108  S   UNK A   5      -0.118  -9.932  -5.389  0.00  0.00    +0.000 S 
ATOM    109  O   UNK A   5      -1.120  -8.871  -5.477  0.00  0.00    +0.000 OA
ATOM    110  O   UNK A   5       0.763 -10.052  -6.549  0.00  0.00    +0.000 OA
ATOM    111  O   UNK A   5      -0.609 -11.189  -4.838  0.00  0.00    +0.000 OA
ENDBRANCH 102 108
BRANCH 103 112
ATOM    112  N   UNK A   5       1.623  -7.306  -5.504  0.00  0.00    +0.000 N 
ATOM    113  H   UNK A   5       1.393  -7.913  -6.306  0.00  0.00    +0.000 HD
ATOM    114  H   UNK A   5       2.291  -6.577  -5.676  0.00  0.00    +0.000 HD
ENDBRANCH 103 112
BRANCH  98 115
ATOM    115  S   UNK A   5       0.368 -14.273  -2.658  0.00  0.00    +0.000 S 
ATOM    116  O   UNK A   5       1.155 -15.077  -1.732  0.00  0.00    +0.000 OA
ATOM    117  O   UNK A   5      -0.592 -14.900  -3.541  0.00  0.00    +0.000 OA
BRANCH 115 118
ATOM    118  O   UNK A   5       1.496 -13.593  -3.593  0.00  0.00    +0.000 OA
ATOM    119  H   UNK A   5       2.051 -12.986  -3.070  0.00  0.00    +0.000 HD
ENDBRANCH 115 118
ENDBRANCH  98 115
ENDBRANCH  89  92
BRANCH  90 120
ATOM    120  C   UNK A   5      -2.977  -9.562   0.810  0.00  0.00    +0.000 C 
ATOM    121  O   UNK A   5      -3.388  -9.973  -0.311  0.00  0.00    +0.000 OA
ATOM    122  O   UNK A   5      -3.397  -9.955   1.951  0.00  0.00    +0.000 OA
ENDBRANCH  90 120
ENDBRANCH  83  86
ENDBRANCH  81  82
ENDBRANCH  80  81
ENDBRANCH  79  80
ENDBRANCH  78  79
ENDBRANCH  68  78
ENDBRANCH  66  68
ENDBRANCH   7  64
TORSDOF 28
REMARK  Name = CHEMBL1765665
REMARK  30 active torsions:
REMARK  status: ('A' for Active; 'I' for Inactive)
REMARK    1  A    between atoms: CD1_1  and  CG_2
REMARK    2  A    between atoms: CG_2  and  CD2_3
REMARK    3  A    between atoms: CG_2  and  CB_4
REMARK    4  A    between atoms: CB_4  and  CA_5
REMARK    5  A    between atoms: CA_9  and  CB_10
REMARK    6  A    between atoms: CB_10  and  CG_11
REMARK    7  A    between atoms: CA_20  and  CB_21
REMARK    8  A    between atoms: CB_21  and  CG_22
REMARK    9  A    between atoms: CZ_25  and  OH_26
REMARK   10  A    between atoms: C_37  and  C_38
REMARK   11  A    between atoms: CA_44  and  C_45
REMARK   12  A    between atoms: N_47  and  C_48
REMARK   13  A    between atoms: C_48  and  C_49
REMARK   14  A    between atoms: C_48  and  C_89
REMARK   15  A    between atoms: C_49  and  C_50
REMARK   16  A    between atoms: C_50  and  C_51
REMARK   17  A    between atoms: C_51  and  C_52
REMARK   18  A    between atoms: C_52  and  N_53
REMARK   19  A    between atoms: C_54  and  C_56
REMARK   20  A    between atoms: C_59  and  C_60
REMARK   21  A    between atoms: C_66  and  S_67
REMARK   22  A    between atoms: S_67  and  O_70
REMARK   23  A    between atoms: C_74  and  S_75
REMARK   24  A    between atoms: C_79  and  N_80
REMARK   25  A    between atoms: C_84  and  C_85
REMARK   26  A    between atoms: N_91  and  CA_92
REMARK   27  A    between atoms: CA_92  and  C_93
REMARK   28  A    between atoms: C_93  and  OXT_95
REMARK   29  A    between atoms: CA_99  and  CB_100
REMARK   30  A    between atoms: CB_100  and  CG_101
REMARK                            x       y       z     vdW  Elec       q    Type
REMARK                         _______ _______ _______ _____ _____    ______ ____
ROOT
ATOM      1 LI   UNL     1       0.397  -1.376   1.141  0.00  0.00    +0.000 Li
ENDROOT
TORSDOF 0
REMARK  Name = CHEMBL1765665
REMARK  30 active torsions:
REMARK  status: ('A' for Active; 'I' for Inactive)
REMARK    1  A    between atoms: CD1_1  and  CG_2
REMARK    2  A    between atoms: CG_2  and  CD2_3
REMARK    3  A    between atoms: CG_2  and  CB_4
REMARK    4  A    between atoms: CB_4  and  CA_5
REMARK    5  A    between atoms: CA_9  and  CB_10
REMARK    6  A    between atoms: CB_10  and  CG_11
REMARK    7  A    between atoms: CA_20  and  CB_21
REMARK    8  A    between atoms: CB_21  and  CG_22
REMARK    9  A    between atoms: CZ_25  and  OH_26
REMARK   10  A    between atoms: C_37  and  C_38
REMARK   11  A    between atoms: CA_44  and  C_45
REMARK   12  A    between atoms: N_47  and  C_48
REMARK   13  A    between atoms: C_48  and  C_49
REMARK   14  A    between atoms: C_48  and  C_89
REMARK   15  A    between atoms: C_49  and  C_50
REMARK   16  A    between atoms: C_50  and  C_51
REMARK   17  A    between atoms: C_51  and  C_52
REMARK   18  A    between atoms: C_52  and  N_53
REMARK   19  A    between atoms: C_54  and  C_56
REMARK   20  A    between atoms: C_59  and  C_60
REMARK   21  A    between atoms: C_66  and  S_67
REMARK   22  A    between atoms: S_67  and  O_70
REMARK   23  A    between atoms: C_74  and  S_75
REMARK   24  A    between atoms: C_79  and  N_80
REMARK   25  A    between atoms: C_84  and  C_85
REMARK   26  A    between atoms: N_91  and  CA_92
REMARK   27  A    between atoms: CA_92  and  C_93
REMARK   28  A    between atoms: C_93  and  OXT_95
REMARK   29  A    between atoms: CA_99  and  CB_100
REMARK   30  A    between atoms: CB_100  and  CG_101
REMARK                            x       y       z     vdW  Elec       q    Type
REMARK                         _______ _______ _______ _____ _____    ______ ____
ROOT
ATOM      1 LI   UNL     1       1.254   1.059  -1.251  0.00  0.00    +0.000 Li
ENDROOT
TORSDOF 0
