REMARK  Name = CHEMBL377315
REMARK  9 active torsions:
REMARK  status: ('A' for Active; 'I' for Inactive)
REMARK    1  A    between atoms: CD1_1  and  CG_2
REMARK    2  A    between atoms: CG_2  and  CD2_3
REMARK    3  A    between atoms: CG_2  and  CB_4
REMARK    4  A    between atoms: CB_4  and  CA_5
REMARK    5  A    between atoms: C_9  and  C_10
REMARK    6  A    between atoms: N_21  and  C_22
REMARK    7  A    between atoms: C_22  and  C_23
REMARK    8  A    between atoms: C_22  and  C_30
REMARK    9  A    between atoms: C_27  and  O_28
REMARK                            x       y       z     vdW  Elec       q    Type
REMARK                         _______ _______ _______ _____ _____    ______ ____
ROOT
ATOM      1  CA  LEU A   2       4.822   1.083  -0.033  0.00  0.00    +0.000 C 
ATOM      2  C   LEU A   2       5.176   2.142  -1.227  0.00  0.00    +0.000 C 
ATOM      3  O   LEU A   2       4.639   3.187  -1.527  0.00  0.00    +0.000 OA
ATOM      4  N   UNK A   1       6.341   1.866  -1.891  0.00  0.00    +0.000 N 
ATOM      5  C   UNK A   1       7.354   1.037  -1.284  0.00  0.00    +0.000 C 
ATOM      6  C   UNK A   1       6.711  -0.276  -0.973  0.00  0.00    +0.000 C 
ATOM      7  O   UNK A   1       7.322  -1.312  -1.129  0.00  0.00    +0.000 OA
ATOM      8  N   LEU A   2       5.398  -0.173  -0.568  0.00  0.00    +0.000 N 
ATOM      9  H   UNK A   1       6.588   2.562  -2.590  0.00  0.00    +0.000 HD
ENDROOT
BRANCH   5  10
ATOM     10  C   UNK A   1       8.490   0.651  -2.238  0.00  0.00    +0.000 C 
ATOM     11  C   UNK A   1       9.321   1.879  -2.563  0.00  0.00    +0.000 C 
ATOM     12  C   UNK A   1       8.642   2.349  -3.808  0.00  0.00    +0.000 A 
ATOM     13  C   UNK A   1       8.634   3.632  -4.309  0.00  0.00    +0.000 A 
ATOM     14  C   UNK A   1       7.842   3.895  -5.425  0.00  0.00    +0.000 A 
ATOM     15  C   UNK A   1       7.061   2.885  -6.013  0.00  0.00    +0.000 A 
ATOM     16  C   UNK A   1       7.056   1.592  -5.489  0.00  0.00    +0.000 A 
ATOM     17  C   UNK A   1       7.860   1.339  -4.392  0.00  0.00    +0.000 A 
ATOM     18  C   UNK A   1       7.945   0.082  -3.588  0.00  0.00    +0.000 C 
ENDBRANCH   5  10
BRANCH   1  19
ATOM     19  CB  LEU A   2       3.284   0.966   0.428  0.00  0.00    +0.000 C 
BRANCH  19  21
ATOM     20  CD1 LEU A   2       0.703  -0.139   0.974  0.00  0.00    +0.000 C 
ATOM     21  CG  LEU A   2       2.236  -0.298   0.928  0.00  0.00    +0.000 C 
ATOM     22  CD2 LEU A   2       2.056  -1.493  -0.027  0.00  0.00    +0.000 C 
ENDBRANCH  19  21
ENDBRANCH   1  19
BRANCH   8  23
ATOM     23  C   UNK A   0       4.535  -1.189  -1.118  0.00  0.00    +0.000 C 
BRANCH  23  24
ATOM     24  C   UNK A   0       5.066  -2.698  -0.981  0.00  0.00    +0.000 A 
ATOM     25  C   UNK A   0       5.970  -3.078   0.083  0.00  0.00    +0.000 A 
ATOM     26  C   UNK A   0       6.714  -4.268   0.020  0.00  0.00    +0.000 A 
ATOM     27  C   UNK A   0       6.439  -5.169  -0.992  0.00  0.00    +0.000 A 
ATOM     28  F   UNK A   0       7.177  -6.278  -1.127  0.00  0.00    +0.000 F 
ATOM     29  C   UNK A   0       5.405  -4.929  -1.877  0.00  0.00    +0.000 A 
ATOM     30  C   UNK A   0       4.724  -3.717  -1.850  0.00  0.00    +0.000 A 
ATOM     31  F   UNK A   0       3.714  -3.605  -2.703  0.00  0.00    +0.000 F 
ENDBRANCH  23  24
BRANCH  23  32
ATOM     32  C   UNK A   0       3.262  -0.711  -2.438  0.00  0.00    +0.000 C 
ATOM     33  O   UNK A   0       2.828  -1.597  -3.193  0.00  0.00    +0.000 OA
ATOM     34  N   UNK A   0       2.297   0.459  -2.306  0.00  0.00    +0.000 N 
ATOM     35  C   UNK A   0       2.337   1.948  -2.201  0.00  0.00    +0.000 C 
ATOM     36  C   UNK A   0       0.856   1.976  -1.815  0.00  0.00    +0.000 C 
ATOM     37  C   UNK A   0       0.793   0.569  -2.495  0.00  0.00    +0.000 C 
BRANCH  36  38
ATOM     38  O   UNK A   0       0.423   2.213  -0.435  0.00  0.00    +0.000 OA
ATOM     39  H   UNK A   0       1.133   1.999   0.190  0.00  0.00    +0.000 HD
ENDBRANCH  36  38
ENDBRANCH  23  32
ENDBRANCH   8  23
TORSDOF 7
