REMARK  Name = CHEMBL1630524
REMARK  23 active torsions:
REMARK  status: ('A' for Active; 'I' for Inactive)
REMARK    1  A    between atoms: C_1  and  C_2
REMARK    2  A    between atoms: C_2  and  C_3
REMARK    3  A    between atoms: C_3  and  C_4
REMARK    4  A    between atoms: C_3  and  C_5
REMARK    5  A    between atoms: C_9  and  C_10
REMARK    6  A    between atoms: C_10  and  C_11
REMARK    7  A    between atoms: C_14  and  O_15
REMARK    8  A    between atoms: C_21  and  N_22
REMARK    9  A    between atoms: C_27  and  C_28
REMARK   10  A    between atoms: C_34  and  C_35
REMARK   11  A    between atoms: N_37  and  C_38
REMARK   12  A    between atoms: C_38  and  C_39
REMARK   13  A    between atoms: C_38  and  N_43
REMARK   14  A    between atoms: C_39  and  C_40
REMARK   15  A    between atoms: C_40  and  C_41
REMARK   16  A    between atoms: C_40  and  C_42
REMARK   17  A    between atoms: N_43  and  C_44
REMARK   18  A    between atoms: C_44  and  C_45
REMARK   19  A    between atoms: C_51  and  C_52
REMARK   20  A    between atoms: C_52  and  C_53
REMARK   21  A    between atoms: C_59  and  C_60
REMARK   22  A    between atoms: C_60  and  C_61
REMARK   23  A    between atoms: C_61  and  C_62
REMARK                            x       y       z     vdW  Elec       q    Type
REMARK                         _______ _______ _______ _____ _____    ______ ____
ROOT
ATOM      1  C   UNL     1       4.609   1.272   0.705  0.00  0.00    +0.000 C 
ATOM      2  N   UNL     1       7.044   5.624  11.955  0.00  0.00    +0.000 N 
ATOM      3  C   UNL     1       6.020   5.198  10.990  0.00  0.00    +0.000 C 
ATOM      4  O   UNL     1       5.736   5.939   9.997  0.00  0.00    +0.000 OA
ATOM      5  C   UNL     1       5.303   3.872  11.180  0.00  0.00    +0.000 C 
ATOM      6  N   UNL     1       3.859   4.112  11.318  0.00  0.00    +0.000 N 
ATOM      7  C   UNL     1       3.115   4.766  10.232  0.00  0.00    +0.000 C 
ATOM      8  O   UNL     1       1.867   4.973  10.352  0.00  0.00    +0.000 OA
ATOM      9  C   UNL     1       3.838   5.195   8.966  0.00  0.00    +0.000 C 
ATOM     10  C   UNL     1       3.231   4.482   7.769  0.00  0.00    +0.000 C 
ATOM     11 SE   UNL     1       1.333   4.946   7.626  0.00  0.00    +0.000 Se
ATOM     12 SE   UNL     1       0.374   3.820   5.736  0.00  0.00    +0.000 Se
ATOM     13  C   UNL     1      -1.525   4.285   5.593  0.00  0.00    +0.000 C 
ATOM     14  C   UNL     1      -2.132   3.571   4.396  0.00  0.00    +0.000 C 
ATOM     15  N   UNL     1      -1.432   3.986   3.171  0.00  0.00    +0.000 N 
ATOM     16  C   UNL     1       0.011   3.746   3.033  0.00  0.00    +0.000 C 
ATOM     17  O   UNL     1       0.616   4.105   1.974  0.00  0.00    +0.000 OA
ATOM     18  C   UNL     1       0.781   3.070   4.155  0.00  0.00    +0.000 C 
ATOM     19  N   UNL     1       1.387   1.828   3.655  0.00  0.00    +0.000 N 
ATOM     20  C   UNL     1       2.348   1.875   2.544  0.00  0.00    +0.000 C 
ATOM     21  O   UNL     1       2.873   0.801   2.111  0.00  0.00    +0.000 OA
ATOM     22  C   UNL     1       2.716   3.208   1.913  0.00  0.00    +0.000 C 
ATOM     23  N   UNL     1       4.161   3.436   2.055  0.00  0.00    +0.000 N 
ATOM     24  C   UNL     1       5.116   2.488   1.463  0.00  0.00    +0.000 C 
ATOM     25  O   UNL     1       6.366   2.685   1.586  0.00  0.00    +0.000 OA
ATOM     26  H   UNL     1       7.503   5.955  12.761  0.00  0.00    +0.000 HD
ATOM     27  H   UNL     1       3.390   3.834  12.138  0.00  0.00    +0.000 HD
ATOM     28  H   UNL     1      -1.931   4.424   2.444  0.00  0.00    +0.000 HD
ATOM     29  H   UNL     1       1.149   0.964   4.063  0.00  0.00    +0.000 HD
ATOM     30  H   UNL     1       4.489   4.223   2.546  0.00  0.00    +0.000 HD
ENDROOT
BRANCH  14  31
ATOM     31  C   UNL     1      -3.605   3.931   4.284  0.00  0.00    +0.000 C 
ATOM     32  O   UNL     1      -4.041   4.504   3.237  0.00  0.00    +0.000 OA
ATOM     33  N   UNL     1      -4.523   3.618   5.388  0.00  0.00    +0.000 N 
ATOM     34  C   UNL     1      -4.280   3.846   6.824  0.00  0.00    +0.000 C 
ATOM     35  C   UNL     1      -4.901   2.625   7.443  0.00  0.00    +0.000 C 
ATOM     36  C   UNL     1      -6.240   2.478   6.660  0.00  0.00    +0.000 C 
ATOM     37  C   UNL     1      -5.882   2.967   5.254  0.00  0.00    +0.000 C 
BRANCH  37  38
ATOM     38  C   UNL     1      -6.908   3.976   4.764  0.00  0.00    +0.000 C 
ATOM     39  O   UNL     1      -6.559   5.175   4.531  0.00  0.00    +0.000 OA
ATOM     40  N   UNL     1      -8.304   3.564   4.560  0.00  0.00    +0.000 N 
ATOM     41  H   UNL     1      -8.574   2.634   4.741  0.00  0.00    +0.000 HD
BRANCH  40  42
ATOM     42  C   UNL     1      -9.296   4.539   4.086  0.00  0.00    +0.000 C 
BRANCH  42  43
ATOM     43  N   UNL     1     -10.607   3.884   3.964  0.00  0.00    +0.000 NA
ATOM     44  H   UNL     1     -10.893   3.523   4.874  0.00  0.00    +0.000 HD
BRANCH  43  45
ATOM     45  C   UNL     1     -11.600   4.860   3.490  0.00  0.00    +0.000 C 
BRANCH  45  46
ATOM     46  C   UNL     1     -12.955   4.183   3.363  0.00  0.00    +0.000 C 
ATOM     47  N   UNL     1     -13.099   2.759   3.700  0.00  0.00    +0.000 N 
ATOM     48  O   UNL     1     -13.962   4.848   2.967  0.00  0.00    +0.000 OA
ATOM     49  H   UNL     1     -12.319   2.244   4.008  0.00  0.00    +0.000 HD
ATOM     50  H   UNL     1     -13.977   2.321   3.618  0.00  0.00    +0.000 HD
ENDBRANCH  45  46
ENDBRANCH  43  45
ENDBRANCH  42  43
BRANCH  42  51
ATOM     51  C   UNL     1      -8.870   5.077   2.730  0.00  0.00    +0.000 C 
BRANCH  51  52
ATOM     52  C   UNL     1      -7.515   5.754   2.856  0.00  0.00    +0.000 C 
ATOM     53  C   UNL     1      -6.489   4.745   3.346  0.00  0.00    +0.000 C 
ATOM     54  C   UNL     1      -7.089   6.292   1.500  0.00  0.00    +0.000 C 
ENDBRANCH  51  52
ENDBRANCH  42  51
ENDBRANCH  40  42
ENDBRANCH  37  38
ENDBRANCH  14  31
BRANCH   9  55
ATOM     55  N   UNL     1       5.263   4.847   9.074  0.00  0.00    +0.000 NA
ATOM     56  H   UNL     1       5.358   3.838   9.195  0.00  0.00    +0.000 HD
ATOM     57  H   UNL     1       5.670   5.325   9.877  0.00  0.00    +0.000 HD
ENDBRANCH   9  55
BRANCH   1  58
ATOM     58  C   UNL     1       3.089   1.272   0.705  0.00  0.00    +0.000 C 
ATOM     59  C   UNL     1       2.583   0.056  -0.054  0.00  0.00    +0.000 C 
BRANCH  58  61
ATOM     60  C   UNL     1       3.393   1.495   0.880  0.00  0.00    +0.000 C 
ATOM     61  C   UNL     1       2.583   1.223   2.137  0.00  0.00    +0.000 C 
ENDBRANCH  58  61
ENDBRANCH   1  58
BRANCH  18  62
ATOM     62  C   UNL     1       1.873   4.001   4.654  0.00  0.00    +0.000 C 
BRANCH  62  63
ATOM     63  C   UNL     1       3.044   3.038   4.761  0.00  0.00    +0.000 C 
ATOM     64  N   UNL     1       2.847   1.608   4.481  0.00  0.00    +0.000 N 
ATOM     65  O   UNL     1       4.193   3.468   5.093  0.00  0.00    +0.000 OA
ATOM     66  H   UNL     1       1.956   1.275   4.224  0.00  0.00    +0.000 HD
ATOM     67  H   UNL     1       3.605   0.984   4.550  0.00  0.00    +0.000 HD
ENDBRANCH  62  63
ENDBRANCH  18  62
BRANCH   5  68
ATOM     68  C   UNL     1       5.555   2.982   9.973  0.00  0.00    +0.000 C 
BRANCH  68  69
ATOM     69  C   UNL     1       7.059   2.777   9.891  0.00  0.00    +0.000 A 
ATOM     70  C   UNL     1       7.893   3.462  10.747  0.00  0.00    +0.000 A 
ATOM     71  C   UNL     1       9.280   3.282  10.700  0.00  0.00    +0.000 A 
ATOM     72  C   UNL     1       9.787   2.363   9.758  0.00  0.00    +0.000 A 
ATOM     73  C   UNL     1       8.947   1.708   8.890  0.00  0.00    +0.000 A 
ATOM     74  C   UNL     1       7.582   1.909   8.963  0.00  0.00    +0.000 A 
BRANCH  72  75
ATOM     75  O   UNL     1      11.112   2.108   9.657  0.00  0.00    +0.000 OA
ATOM     76  H   UNL     1      11.716   2.535  10.232  0.00  0.00    +0.000 HD
ENDBRANCH  72  75
ENDBRANCH  68  69
ENDBRANCH   5  68
BRANCH  22  77
ATOM     77  C   UNL     1       2.348   3.189   0.438  0.00  0.00    +0.000 C 
BRANCH  77  78
ATOM     78  C   UNL     1       2.624   1.808  -0.135  0.00  0.00    +0.000 C 
BRANCH  78  79
ATOM     79  C   UNL     1       2.257   1.789  -1.610  0.00  0.00    +0.000 C 
ATOM     80  N   UNL     1       1.726   3.000  -2.251  0.00  0.00    +0.000 N 
ATOM     81  O   UNL     1       2.409   0.725  -2.288  0.00  0.00    +0.000 OA
ATOM     82  H   UNL     1       1.609   3.824  -1.725  0.00  0.00    +0.000 HD
ATOM     83  H   UNL     1       1.489   2.988  -3.206  0.00  0.00    +0.000 HD
ENDBRANCH  78  79
ENDBRANCH  77  78
ENDBRANCH  22  77
TORSDOF 19
