REMARK  Name = CHEMBL278818
REMARK  10 active torsions:
REMARK  status: ('A' for Active; 'I' for Inactive)
REMARK    1  A    between atoms: C_2  and  C_3
REMARK    2  A    between atoms: C_3  and  C_4
REMARK    3  A    between atoms: C_7  and  O_8
REMARK    4  A    between atoms: O_8  and  C_9
REMARK    5  A    between atoms: C_9  and  C_10
REMARK    6  A    between atoms: C_10  and  N_11
REMARK    7  A    between atoms: C_18  and  O_19
REMARK    8  A    between atoms: O_19  and  C_20
REMARK    9  A    between atoms: C_20  and  C_21
REMARK   10  A    between atoms: C_28  and  N_29
REMARK                            x       y       z     vdW  Elec       q    Type
REMARK                         _______ _______ _______ _____ _____    ______ ____
ROOT
ATOM      1  C   UNL     1       2.044   1.696  -1.771  0.00  0.00    +0.000 A 
ATOM      2  C   UNL     1       2.202   3.094  -1.941  0.00  0.00    +0.000 A 
ATOM      3  C   UNL     1       1.250   3.877  -2.601  0.00  0.00    +0.000 A 
ATOM      4  C   UNL     1       0.180   3.286  -3.245  0.00  0.00    +0.000 A 
ATOM      5  C   UNL     1       0.056   1.884  -3.180  0.00  0.00    +0.000 A 
ATOM      6  C   UNL     1       0.994   1.076  -2.479  0.00  0.00    +0.000 A 
ENDROOT
BRANCH   1   7
ATOM      7  C   UNL     1       3.018   0.999  -0.794  0.00  0.00    +0.000 C 
BRANCH   7   9
ATOM      8  O   UNL     1       1.113   0.234   0.576  0.00  0.00    +0.000 OA
ATOM      9  C   UNL     1       2.328   0.157   0.376  0.00  0.00    +0.000 C 
ATOM     10  N   UNL     1       3.148  -0.904   0.932  0.00  0.00    +0.000 N 
ATOM     11  C   UNL     1       4.197  -0.482   1.839  0.00  0.00    +0.000 C 
ATOM     12  C   UNL     1       5.375  -1.484   1.867  0.00  0.00    +0.000 C 
ATOM     13  C   UNL     1       4.994  -3.104   2.620  0.00  0.00    +0.000 C 
ATOM     14  C   UNL     1       3.785  -3.371   1.372  0.00  0.00    +0.000 C 
ATOM     15  C   UNL     1       2.638  -2.265   1.329  0.00  0.00    +0.000 C 
BRANCH  13  16
ATOM     16  N   UNL     1       5.574  -3.796   4.267  0.00  0.00    +0.000 N 
ATOM     17  C   UNL     1       6.545  -2.792   4.137  0.00  0.00    +0.000 C 
ATOM     18  O   UNL     1       7.395  -2.618   3.205  0.00  0.00    +0.000 OA
ATOM     19  O   UNL     1       6.319  -1.772   4.935  0.00  0.00    +0.000 OA
ATOM     20  C   UNL     1       7.174  -2.174   5.927  0.00  0.00    +0.000 C 
ATOM     21  C   UNL     1       6.091  -2.713   6.765  0.00  0.00    +0.000 A 
ATOM     22  C   UNL     1       6.238  -2.151   8.171  0.00  0.00    +0.000 A 
ATOM     23  C   UNL     1       6.208  -2.816   9.362  0.00  0.00    +0.000 A 
ATOM     24  C   UNL     1       6.062  -4.149   9.085  0.00  0.00    +0.000 A 
ATOM     25  C   UNL     1       5.815  -4.710   7.522  0.00  0.00    +0.000 A 
ATOM     26  C   UNL     1       5.577  -3.864   6.147  0.00  0.00    +0.000 A 
ENDBRANCH  13  16
ENDBRANCH   7   9
ENDBRANCH   1   7
BRANCH   4  27
ATOM     27  O   UNL     1      -0.627   4.198  -3.902  0.00  0.00    +0.000 OA
BRANCH  27  28
ATOM     28  C   UNL     1      -1.565   3.575  -4.754  0.00  0.00    +0.000 C 
BRANCH  28  29
ATOM     29  C   UNL     1      -2.447   4.488  -5.628  0.00  0.00    +0.000 C 
BRANCH  29  30
ATOM     30  N   UNL     1      -3.558   3.820  -6.373  0.00  0.00    +0.000 NA
ATOM     31  C   UNL     1      -3.917   2.484  -5.832  0.00  0.00    +0.000 C 
ATOM     32  C   UNL     1      -2.890   1.367  -6.155  0.00  0.00    +0.000 C 
ATOM     33  O   UNL     1      -2.586   1.310  -7.552  0.00  0.00    +0.000 OA
ATOM     34  C   UNL     1      -2.182   2.594  -8.061  0.00  0.00    +0.000 C 
ATOM     35  C   UNL     1      -3.268   3.648  -7.815  0.00  0.00    +0.000 C 
ENDBRANCH  29  30
ENDBRANCH  28  29
ENDBRANCH  27  28
ENDBRANCH   4  27
BRANCH   6  36
ATOM     36  O   UNL     1       0.729  -0.274  -2.611  0.00  0.00    +0.000 OA
BRANCH  36  37
ATOM     37  C   UNL     1       1.666  -1.202  -2.079  0.00  0.00    +0.000 C 
BRANCH  37  38
ATOM     38  C   UNL     1       1.295  -2.652  -2.110  0.00  0.00    +0.000 C 
ATOM     39  F   UNL     1       0.118  -2.866  -1.484  0.00  0.00    +0.000 F 
ATOM     40  F   UNL     1       1.244  -3.135  -3.358  0.00  0.00    +0.000 F 
ATOM     41  F   UNL     1       2.236  -3.364  -1.430  0.00  0.00    +0.000 F 
ENDBRANCH  37  38
ENDBRANCH  36  37
ENDBRANCH   6  36
TORSDOF 10
