REMARK  Name = CHEMBL371223
REMARK  12 active torsions:
REMARK  status: ('A' for Active; 'I' for Inactive)
REMARK    1  A    between atoms: C_1  and  O_2
REMARK    2  A    between atoms: O_2  and  C_3
REMARK    3  A    between atoms: C_6  and  S_7
REMARK    4  A    between atoms: S_7  and  N_10
REMARK    5  A    between atoms: N_10  and  C_11
REMARK    6  A    between atoms: N_10  and  C_26
REMARK    7  A    between atoms: C_11  and  C_12
REMARK    8  A    between atoms: C_12  and  N_14
REMARK    9  A    between atoms: N_15  and  C_16
REMARK   10  A    between atoms: C_17  and  O_18
REMARK   11  A    between atoms: C_34  and  O_35
REMARK   12  A    between atoms: O_35  and  C_36
REMARK                            x       y       z     vdW  Elec       q    Type
REMARK                         _______ _______ _______ _____ _____    ______ ____
ROOT
ATOM      1  N   UNL     1       4.425   3.959  -4.822  0.00  0.00    +0.000 N 
ENDROOT
BRANCH   1   2
ATOM      2  C   UNL     1       4.883   4.608  -6.151  0.00  0.00    +0.000 A 
ATOM      3  C   UNL     1       5.110   5.994  -6.227  0.00  0.00    +0.000 A 
ATOM      4  C   UNL     1       5.489   6.650  -7.432  0.00  0.00    +0.000 A 
ATOM      5  C   UNL     1       5.741   5.921  -8.588  0.00  0.00    +0.000 A 
ATOM      6 CL   UNL     1       6.355   6.704  -9.997  0.00  0.00    +0.000 Cl
ATOM      7  C   UNL     1       5.529   4.550  -8.571  0.00  0.00    +0.000 A 
ATOM      8  C   UNL     1       5.091   3.908  -7.374  0.00  0.00    +0.000 A 
ENDBRANCH   1   2
BRANCH   1   9
ATOM      9  S   UNL     1       5.268   2.430  -4.436  0.00  0.00    +0.000 S 
ATOM     10  O   UNL     1       6.640   2.773  -4.231  0.00  0.00    +0.000 OA
ATOM     11  O   UNL     1       4.948   1.490  -5.538  0.00  0.00    +0.000 OA
BRANCH   9  15
ATOM     12  C   UNL     1       3.189  -0.118  -1.184  0.00  0.00    +0.000 A 
ATOM     13  C   UNL     1       4.389  -0.574  -1.708  0.00  0.00    +0.000 A 
ATOM     14  C   UNL     1       5.107   0.194  -2.692  0.00  0.00    +0.000 A 
ATOM     15  C   UNL     1       4.768   1.524  -2.951  0.00  0.00    +0.000 A 
ATOM     16  C   UNL     1       3.917   2.025  -2.029  0.00  0.00    +0.000 A 
ATOM     17  C   UNL     1       2.902   1.170  -1.546  0.00  0.00    +0.000 A 
BRANCH  12  19
ATOM     18  C   UNL     1       1.151  -1.036  -0.153  0.00  0.00    +0.000 C 
ATOM     19  O   UNL     1       2.566  -0.777  -0.155  0.00  0.00    +0.000 OA
ENDBRANCH  12  19
BRANCH  17  20
ATOM     20  O   UNL     1       1.635   1.310  -2.166  0.00  0.00    +0.000 OA
ATOM     21  C   UNL     1       0.646   1.584  -1.240  0.00  0.00    +0.000 C 
ENDBRANCH  17  20
ENDBRANCH   9  15
ENDBRANCH   1   9
BRANCH   1  22
ATOM     22  C   UNL     1       3.185   4.682  -3.971  0.00  0.00    +0.000 C 
BRANCH  22  23
ATOM     23  C   UNL     1       2.281   3.868  -2.834  0.00  0.00    +0.000 C 
ATOM     24  O   UNL     1       1.960   2.879  -3.561  0.00  0.00    +0.000 OA
BRANCH  23  25
ATOM     25  N   UNL     1       1.640   4.175  -1.274  0.00  0.00    +0.000 NA
ATOM     26  N   UNL     1       1.997   3.579   0.116  0.00  0.00    +0.000 NA
BRANCH  26  27
ATOM     27  C   UNL     1       0.899   3.256   1.494  0.00  0.00    +0.000 A 
ATOM     28  C   UNL     1       0.590   1.914   1.308  0.00  0.00    +0.000 A 
ATOM     29  N   UNL     1      -0.807   2.181   1.295  0.00  0.00    +0.000 N 
ATOM     30  C   UNL     1      -1.082   2.085   2.622  0.00  0.00    +0.000 A 
ATOM     31  C   UNL     1      -2.237   1.468   3.176  0.00  0.00    +0.000 A 
ATOM     32  C   UNL     1      -2.202   0.886   4.414  0.00  0.00    +0.000 A 
ATOM     33  C   UNL     1      -0.920   0.731   4.906  0.00  0.00    +0.000 A 
ATOM     34  C   UNL     1       0.300   1.419   4.247  0.00  0.00    +0.000 A 
ATOM     35  C   UNL     1       0.220   2.484   3.060  0.00  0.00    +0.000 A 
ATOM     36  H   UNL     1      -1.205   3.030   0.948  0.00  0.00    +0.000 HD
BRANCH  28  37
ATOM     37  O   UNL     1       1.282   0.831   1.676  0.00  0.00    +0.000 OA
ATOM     38  H   UNL     1       2.170   0.839   1.240  0.00  0.00    +0.000 HD
ENDBRANCH  28  37
ENDBRANCH  26  27
ENDBRANCH  23  25
ENDBRANCH  22  23
ENDBRANCH   1  22
TORSDOF 10
