REMARK  Name = CHEMBL1790729
REMARK  26 active torsions:
REMARK  status: ('A' for Active; 'I' for Inactive)
REMARK    1  A    between atoms: C_1  and  C_2
REMARK    2  A    between atoms: C_2  and  C_3
REMARK    3  A    between atoms: C_3  and  C_4
REMARK    4  A    between atoms: C_3  and  C_5
REMARK    5  A    between atoms: C_9  and  C_10
REMARK    6  A    between atoms: C_13  and  O_14
REMARK    7  A    between atoms: C_20  and  O_21
REMARK    8  A    between atoms: C_26  and  C_27
REMARK    9  A    between atoms: C_33  and  C_34
REMARK   10  A    between atoms: N_36  and  C_37
REMARK   11  A    between atoms: C_37  and  C_38
REMARK   12  A    between atoms: C_37  and  C_70
REMARK   13  A    between atoms: C_38  and  C_39
REMARK   14  A    between atoms: C_39  and  C_40
REMARK   15  A    between atoms: C_40  and  C_41
REMARK   16  A    between atoms: C_41  and  N_42
REMARK   17  A    between atoms: C_43  and  C_45
REMARK   18  A    between atoms: C_58  and  O_59
REMARK   19  A    between atoms: C_65  and  O_66
REMARK   20  A    between atoms: N_72  and  C_73
REMARK   21  A    between atoms: C_73  and  N_74
REMARK   22  A    between atoms: C_78  and  C_79
REMARK   23  A    between atoms: C_79  and  C_80
REMARK   24  A    between atoms: C_86  and  C_87
REMARK   25  A    between atoms: C_87  and  C_88
REMARK   26  A    between atoms: C_87  and  O_89
REMARK                            x       y       z     vdW  Elec       q    Type
REMARK                         _______ _______ _______ _____ _____    ______ ____
ROOT
ATOM      1  C   UNL     1      -2.452  -0.606  -5.098  0.00  0.00    +0.000 C 
ATOM      2  O   UNL     1      -3.125  -0.091  -4.190  0.00  0.00    +0.000 OA
ATOM      3  N   UNL     1      -1.297   0.249  -5.824  0.00  0.00    +0.000 N 
ATOM      4  C   UNL     1      -0.503   0.065  -7.165  0.00  0.00    +0.000 C 
ATOM      5  C   UNL     1       1.153   0.109  -6.923  0.00  0.00    +0.000 C 
ATOM      6  C   UNL     1       1.118   1.154  -5.865  0.00  0.00    +0.000 C 
ATOM      7  C   UNL     1      -0.301   0.979  -4.963  0.00  0.00    +0.000 C 
ENDROOT
BRANCH   1  21
ATOM      8  C   UNL     1       5.412  -1.289  -4.442  0.00  0.00    +0.000 C 
ATOM      9  N   UNL     1       5.582  -1.768  -6.527  0.00  0.00    +0.000 N 
ATOM     10  C   UNL     1       5.638  -2.031  -8.531  0.00  0.00    +0.000 C 
ATOM     11  O   UNL     1       6.178  -3.144  -9.218  0.00  0.00    +0.000 OA
ATOM     12  C   UNL     1       5.033  -1.574 -10.534  0.00  0.00    +0.000 C 
ATOM     13  N   UNL     1       3.519  -1.802 -11.401  0.00  0.00    +0.000 N 
ATOM     14  C   UNL     1       2.535  -2.589 -10.872  0.00  0.00    +0.000 C 
ATOM     15  O   UNL     1       1.369  -2.573 -11.245  0.00  0.00    +0.000 OA
ATOM     16  C   UNL     1       2.930  -3.369  -9.635  0.00  0.00    +0.000 C 
ATOM     17  C   UNL     1       2.567  -2.810  -8.314  0.00  0.00    +0.000 C 
ATOM     18  S   UNL     1       1.054  -3.450  -8.579  0.00  0.00    +0.000 S 
ATOM     19  S   UNL     1       0.817  -3.541  -6.574  0.00  0.00    +0.000 S 
ATOM     20  C   UNL     1      -1.702  -3.257  -5.901  0.00  0.00    +0.000 C 
ATOM     21  C   UNL     1      -2.360  -2.389  -4.857  0.00  0.00    +0.000 C 
ATOM     22  N   UNL     1      -1.592  -2.891  -3.731  0.00  0.00    +0.000 N 
ATOM     23  C   UNL     1      -0.311  -3.188  -4.164  0.00  0.00    +0.000 C 
ATOM     24  O   UNL     1      -0.058  -4.386  -4.381  0.00  0.00    +0.000 OA
ATOM     25  C   UNL     1       0.778  -2.141  -4.685  0.00  0.00    +0.000 C 
ATOM     26  N   UNL     1       1.656  -1.135  -4.141  0.00  0.00    +0.000 N 
ATOM     27  C   UNL     1       2.542  -1.260  -3.137  0.00  0.00    +0.000 C 
ATOM     28  O   UNL     1       2.884  -0.206  -2.620  0.00  0.00    +0.000 OA
ATOM     29  C   UNL     1       2.985  -2.640  -2.667  0.00  0.00    +0.000 C 
ATOM     30  N   UNL     1       4.357  -3.017  -2.779  0.00  0.00    +0.000 N 
ATOM     31  C   UNL     1       5.486  -2.372  -3.157  0.00  0.00    +0.000 C 
ATOM     32  O   UNL     1       6.405  -2.460  -2.325  0.00  0.00    +0.000 OA
ATOM     33  H   UNL     1       6.343  -2.387  -7.199  0.00  0.00    +0.000 HD
ATOM     34  H   UNL     1       3.121  -1.291 -12.260  0.00  0.00    +0.000 HD
ATOM     35  H   UNL     1      -2.014  -3.747  -3.365  0.00  0.00    +0.000 HD
ATOM     36  H   UNL     1       1.480  -0.170  -4.282  0.00  0.00    +0.000 HD
ATOM     37  H   UNL     1       4.363  -3.679  -3.499  0.00  0.00    +0.000 HD
BRANCH  12  38
ATOM     38  C   UNL     1       5.086  -0.209 -10.137  0.00  0.00    +0.000 A 
ATOM     39  C   UNL     1       6.447  -0.053  -9.829  0.00  0.00    +0.000 A 
ATOM     40  C   UNL     1       6.659   0.307  -8.526  0.00  0.00    +0.000 A 
ATOM     41  C   UNL     1       5.548   0.541  -7.694  0.00  0.00    +0.000 A 
ATOM     42  C   UNL     1       4.240   0.285  -8.088  0.00  0.00    +0.000 A 
ATOM     43  C   UNL     1       3.957  -0.008  -9.374  0.00  0.00    +0.000 A 
BRANCH  41  44
ATOM     44  O   UNL     1       5.653   0.946  -6.406  0.00  0.00    +0.000 OA
ATOM     45  H   UNL     1       6.579   1.135  -6.212  0.00  0.00    +0.000 HD
ENDBRANCH  41  44
ENDBRANCH  12  38
BRANCH   8  46
ATOM     46  C   UNL     1       5.323  -0.387  -2.344  0.00  0.00    +0.000 C 
ATOM     47  C   UNL     1       6.435  -0.111  -0.708  0.00  0.00    +0.000 C 
BRANCH  46  49
ATOM     48  C   UNL     1       4.405   1.962  -1.045  0.00  0.00    +0.000 C 
ATOM     49  C   UNL     1       4.269   0.506  -0.807  0.00  0.00    +0.000 C 
ENDBRANCH  46  49
ENDBRANCH   8  46
BRANCH  29  50
ATOM     50  C   UNL     1       2.178  -3.736  -3.288  0.00  0.00    +0.000 C 
ATOM     51  C   UNL     1       2.387  -5.159  -3.116  0.00  0.00    +0.000 C 
BRANCH  50  52
ATOM     52  O   UNL     1       0.964  -3.475  -2.669  0.00  0.00    +0.000 OA
ATOM     53  H   UNL     1       0.224  -4.044  -2.359  0.00  0.00    +0.000 HD
ENDBRANCH  50  52
ENDBRANCH  29  50
BRANCH  16  54
ATOM     54  O   UNL     1       4.145  -3.110  -9.231  0.00  0.00    +0.000 OA
ATOM     55  H   UNL     1       4.049  -2.148  -9.289  0.00  0.00    +0.000 HD
ENDBRANCH  16  54
BRANCH  25  56
ATOM     56  C   UNL     1      -0.253  -1.815  -5.762  0.00  0.00    +0.000 C 
BRANCH  56  57
ATOM     57  C   UNL     1      -0.930  -2.780  -7.449  0.00  0.00    +0.000 C 
ATOM     58  N   UNL     1      -0.854  -4.568  -6.887  0.00  0.00    +0.000 N 
ATOM     59  O   UNL     1      -1.600  -2.390  -8.387  0.00  0.00    +0.000 OA
ATOM     60  H   UNL     1      -0.099  -4.588  -5.958  0.00  0.00    +0.000 HD
ATOM     61  H   UNL     1      -0.986  -5.465  -7.191  0.00  0.00    +0.000 HD
ENDBRANCH  56  57
ENDBRANCH  25  56
ENDBRANCH   1  21
BRANCH   7  62
ATOM     62  C   UNL     1       0.056   0.747  -3.433  0.00  0.00    +0.000 C 
ATOM     63  O   UNL     1       0.706   1.662  -2.915  0.00  0.00    +0.000 OA
ATOM     64  N   UNL     1      -0.064  -0.507  -2.791  0.00  0.00    +0.000 N 
ATOM     65  H   UNL     1      -0.030  -1.279  -3.359  0.00  0.00    +0.000 HD
BRANCH  64  66
ATOM     66  C   UNL     1       0.537  -1.029  -1.494  0.00  0.00    +0.000 C 
BRANCH  66  67
ATOM     67  C   UNL     1       0.560  -2.466  -0.798  0.00  0.00    +0.000 C 
ATOM     68  O   UNL     1      -0.254  -2.626   0.122  0.00  0.00    +0.000 OA
ATOM     69  N   UNL     1       1.489  -3.263  -0.237  0.00  0.00    +0.000 N 
ATOM     70  H   UNL     1       1.405  -2.794   0.653  0.00  0.00    +0.000 HD
BRANCH  69  71
ATOM     71  C   UNL     1       1.185  -4.676   0.027  0.00  0.00    +0.000 C 
BRANCH  71  72
ATOM     72  N   UNL     1       1.473  -4.953   1.405  0.00  0.00    +0.000 NA
ATOM     73  H   UNL     1       2.395  -4.580   1.610  0.00  0.00    +0.000 HD
ATOM     74  H   UNL     1       1.541  -5.967   1.520  0.00  0.00    +0.000 HD
ENDBRANCH  71  72
ENDBRANCH  69  71
ENDBRANCH  66  67
BRANCH  66  75
ATOM     75  C   UNL     1      -0.484  -0.446  -0.624  0.00  0.00    +0.000 C 
BRANCH  75  76
ATOM     76  C   UNL     1      -0.517   1.016  -0.789  0.00  0.00    +0.000 C 
BRANCH  76  77
ATOM     77  C   UNL     1      -1.562   1.586   0.062  0.00  0.00    +0.000 C 
BRANCH  77  78
ATOM     78  C   UNL     1      -1.628   3.087  -0.159  0.00  0.00    +0.000 C 
BRANCH  78  79
ATOM     79  N   UNL     1      -2.680   3.690   0.725  0.00  0.00    +0.000 N 
ATOM     80  C   UNL     1      -2.957   5.074   0.753  0.00  0.00    +0.000 C 
ATOM     81  O   UNL     1      -2.256   5.767  -0.004  0.00  0.00    +0.000 OA
ATOM     82  H   UNL     1      -3.169   3.023   1.293  0.00  0.00    +0.000 HD
BRANCH  80  83
ATOM     83  C   UNL     1      -4.100   5.871   1.626  0.00  0.00    +0.000 A 
ATOM     84  C   UNL     1      -4.005   7.156   1.576  0.00  0.00    +0.000 A 
ATOM     85  C   UNL     1      -4.631   7.863   2.751  0.00  0.00    +0.000 A 
ATOM     86  C   UNL     1      -5.006   8.966   2.403  0.00  0.00    +0.000 A 
ATOM     87  C   UNL     1      -5.730   8.049   2.830  0.00  0.00    +0.000 A 
ATOM     88  C   UNL     1      -5.250   6.135   2.417  0.00  0.00    +0.000 A 
ATOM     89  C   UNL     1      -6.811   9.587   3.251  0.00  0.00    +0.000 C 
ATOM     90  O   UNL     1      -6.263  10.577   2.062  0.00  0.00    +0.000 OA
ATOM     91  C   UNL     1      -5.058  10.112   1.666  0.00  0.00    +0.000 C 
ATOM     92  O   UNL     1      -4.209  10.112   0.793  0.00  0.00    +0.000 OA
ATOM     93  C   UNL     1      -7.656  10.835   4.328  0.00  0.00    +0.000 A 
ATOM     94  C   UNL     1      -7.391  11.607   5.534  0.00  0.00    +0.000 A 
ATOM     95  C   UNL     1      -8.449  11.981   6.515  0.00  0.00    +0.000 A 
ATOM     96  C   UNL     1      -9.789  11.734   6.239  0.00  0.00    +0.000 A 
ATOM     97  C   UNL     1     -10.098  11.276   4.970  0.00  0.00    +0.000 A 
ATOM     98  C   UNL     1      -9.067  10.952   4.023  0.00  0.00    +0.000 A 
ATOM     99  O   UNL     1      -9.535  10.617   2.766  0.00  0.00    +0.000 OA
ATOM    100  C   UNL     1      -9.011   9.471   2.274  0.00  0.00    +0.000 A 
ATOM    101  C   UNL     1      -9.361   8.996   1.029  0.00  0.00    +0.000 A 
ATOM    102  C   UNL     1      -8.799   7.833   0.503  0.00  0.00    +0.000 A 
ATOM    103  C   UNL     1      -8.020   7.052   1.297  0.00  0.00    +0.000 A 
ATOM    104  C   UNL     1      -7.928   7.432   2.612  0.00  0.00    +0.000 A 
ATOM    105  C   UNL     1      -8.047   8.783   2.913  0.00  0.00    +0.000 A 
BRANCH 102 106
ATOM    106  O   UNL     1      -9.061   7.361  -0.739  0.00  0.00    +0.000 OA
ATOM    107  H   UNL     1      -9.681   7.941  -1.204  0.00  0.00    +0.000 HD
ENDBRANCH 102 106
BRANCH  96 108
ATOM    108  O   UNL     1     -10.831  11.913   7.108  0.00  0.00    +0.000 OA
ATOM    109  H   UNL     1     -10.559  12.261   7.973  0.00  0.00    +0.000 HD
ENDBRANCH  96 108
ENDBRANCH  80  83
ENDBRANCH  78  79
ENDBRANCH  77  78
ENDBRANCH  76  77
ENDBRANCH  75  76
ENDBRANCH  66  75
ENDBRANCH  64  66
ENDBRANCH   7  62
TORSDOF 23
