REMARK  Name = CHEMBL303487
REMARK  9 active torsions:
REMARK  status: ('A' for Active; 'I' for Inactive)
REMARK    1  A    between atoms: C_1  and  O_2
REMARK    2  A    between atoms: O_2  and  C_3
REMARK    3  A    between atoms: C_5  and  O_6
REMARK    4  A    between atoms: O_6  and  C_7
REMARK    5  A    between atoms: N_10  and  C_11
REMARK    6  A    between atoms: C_11  and  C_12
REMARK    7  A    between atoms: C_18  and  C_19
REMARK    8  A    between atoms: C_24  and  C_25
REMARK    9  A    between atoms: C_30  and  N_31
REMARK                            x       y       z     vdW  Elec       q    Type
REMARK                         _______ _______ _______ _____ _____    ______ ____
ROOT
ATOM      1  C   UNL     1       3.181  -1.064  -0.163  0.00  0.00    +0.000 A 
ATOM      2  C   UNL     1       4.370  -1.431   0.503  0.00  0.00    +0.000 A 
ATOM      3  C   UNL     1       5.157  -2.426   0.007  0.00  0.00    +0.000 A 
ATOM      4  C   UNL     1       4.582  -3.142  -1.002  0.00  0.00    +0.000 A 
ATOM      5  C   UNL     1       3.387  -2.884  -1.656  0.00  0.00    +0.000 A 
ATOM      6  C   UNL     1       2.653  -1.763  -1.291  0.00  0.00    +0.000 A 
ENDROOT
BRANCH   6   7
ATOM      7  C   UNL     1       1.374  -1.528  -2.119  0.00  0.00    +0.000 C 
ATOM      8  O   UNL     1       1.049  -2.435  -2.898  0.00  0.00    +0.000 OA
ATOM      9  N   UNL     1       0.547  -0.341  -1.966  0.00  0.00    +0.000 N 
ATOM     10  C   UNL     1      -0.742  -0.471  -1.167  0.00  0.00    +0.000 C 
ATOM     11  C   UNL     1      -1.722   0.697  -1.367  0.00  0.00    +0.000 C 
ATOM     12  C   UNL     1      -1.097   2.376  -0.888  0.00  0.00    +0.000 C 
ATOM     13  C   UNL     1       0.198   2.208  -2.131  0.00  0.00    +0.000 C 
ATOM     14  C   UNL     1       1.183   1.012  -1.949  0.00  0.00    +0.000 C 
BRANCH  12  15
ATOM     15  N   UNL     1      -1.720   3.548   0.452  0.00  0.00    +0.000 N 
ATOM     16  C   UNL     1      -2.795   2.660   0.492  0.00  0.00    +0.000 C 
ATOM     17  O   UNL     1      -3.594   2.350  -0.462  0.00  0.00    +0.000 OA
ATOM     18  O   UNL     1      -2.791   1.879   1.542  0.00  0.00    +0.000 OA
ATOM     19  C   UNL     1      -3.660   2.639   2.284  0.00  0.00    +0.000 C 
ATOM     20  C   UNL     1      -2.564   3.226   3.077  0.00  0.00    +0.000 A 
ATOM     21  C   UNL     1      -2.886   3.049   4.557  0.00  0.00    +0.000 A 
ATOM     22  C   UNL     1      -2.917   3.985   5.550  0.00  0.00    +0.000 A 
ATOM     23  C   UNL     1      -2.634   5.193   4.977  0.00  0.00    +0.000 A 
ATOM     24  C   UNL     1      -2.184   5.317   3.355  0.00  0.00    +0.000 A 
ATOM     25  C   UNL     1      -1.884   4.129   2.258  0.00  0.00    +0.000 A 
ENDBRANCH  12  15
ENDBRANCH   6   7
BRANCH   1  27
ATOM     26  C   UNL     1       1.400   0.000   0.796  0.00  0.00    +0.000 C 
ATOM     27  O   UNL     1       2.743   0.093   0.440  0.00  0.00    +0.000 OA
ENDBRANCH   1  27
BRANCH   3  28
ATOM     28  O   UNL     1       6.422  -2.579   0.459  0.00  0.00    +0.000 OA
BRANCH  28  29
ATOM     29  C   UNL     1       7.274  -3.707   0.152  0.00  0.00    +0.000 C 
ATOM     30  C   UNL     1       7.788  -4.002  -1.278  0.00  0.00    +0.000 C 
ATOM     31  C   UNL     1       6.875  -4.834  -2.179  0.00  0.00    +0.000 C 
ATOM     32  N   UNL     1       6.322  -6.010  -1.463  0.00  0.00    +0.000 NA
ATOM     33  C   UNL     1       5.846  -5.747  -0.086  0.00  0.00    +0.000 C 
ATOM     34  C   UNL     1       6.762  -4.963   0.815  0.00  0.00    +0.000 C 
BRANCH  32  35
ATOM     35  C   UNL     1       5.285  -6.669  -2.297  0.00  0.00    +0.000 C 
BRANCH  35  36
ATOM     36  C   UNL     1       4.700  -7.925  -1.674  0.00  0.00    +0.000 A 
ATOM     37  C   UNL     1       3.980  -7.821  -0.471  0.00  0.00    +0.000 A 
ATOM     38  N   UNL     1       3.783  -8.893   0.363  0.00  0.00    +0.000 N 
ATOM     39  O   UNL     1       3.453  -8.716   1.574  0.00  0.00    +0.000 OA
ATOM     40  C   UNL     1       3.938 -10.140  -0.171  0.00  0.00    +0.000 A 
ATOM     41  C   UNL     1       4.352 -10.295  -1.494  0.00  0.00    +0.000 A 
ATOM     42  C   UNL     1       4.853  -9.202  -2.213  0.00  0.00    +0.000 A 
ATOM     43  C   UNL     1       5.544  -9.421  -3.527  0.00  0.00    +0.000 C 
ENDBRANCH  35  36
ENDBRANCH  32  35
ENDBRANCH  28  29
ENDBRANCH   3  28
TORSDOF 7
