REMARK  Name = CHEMBL30910
REMARK  7 active torsions:
REMARK  status: ('A' for Active; 'I' for Inactive)
REMARK    1  A    between atoms: C_2  and  C_3
REMARK    2  A    between atoms: C_3  and  N_4
REMARK    3  A    between atoms: C_6  and  C_7
REMARK    4  A    between atoms: N_15  and  C_16
REMARK    5  A    between atoms: C_16  and  C_17
REMARK    6  A    between atoms: C_21  and  C_22
REMARK    7  A    between atoms: C_27  and  N_28
REMARK                            x       y       z     vdW  Elec       q    Type
REMARK                         _______ _______ _______ _____ _____    ______ ____
ROOT
ATOM      1  C   UNL     1       5.436  -2.795  -0.625  0.00  0.00    +0.000 A 
ATOM      2  C   UNL     1       6.725  -2.729  -1.143  0.00  0.00    +0.000 A 
ATOM      3  C   UNL     1       7.017  -4.062  -1.513  0.00  0.00    +0.000 A 
ATOM      4  C   UNL     1       6.422  -4.972  -2.434  0.00  0.00    +0.000 A 
ATOM      5  C   UNL     1       6.565  -6.373  -2.368  0.00  0.00    +0.000 A 
ATOM      6  C   UNL     1       7.380  -6.861  -1.358  0.00  0.00    +0.000 A 
ATOM      7  C   UNL     1       7.646  -5.990  -0.263  0.00  0.00    +0.000 A 
ATOM      8  C   UNL     1       7.028  -4.676  -0.267  0.00  0.00    +0.000 A 
ATOM      9  O   UNL     1       5.527  -4.144   0.048  0.00  0.00    +0.000 OA
ENDROOT
BRANCH   5  10
ATOM     10  C   UNL     1       5.727  -7.297  -3.218  0.00  0.00    +0.000 C 
ATOM     11  O   UNL     1       5.880  -8.512  -3.089  0.00  0.00    +0.000 OA
ATOM     12  N   UNL     1       4.699  -6.725  -4.011  0.00  0.00    +0.000 N 
ATOM     13  C   UNL     1       3.292  -7.081  -3.807  0.00  0.00    +0.000 C 
ATOM     14  C   UNL     1       2.557  -7.307  -5.138  0.00  0.00    +0.000 C 
ATOM     15  C   UNL     1       2.472  -5.838  -6.160  0.00  0.00    +0.000 C 
ATOM     16  C   UNL     1       4.203  -5.806  -6.292  0.00  0.00    +0.000 C 
ATOM     17  C   UNL     1       4.906  -5.616  -4.945  0.00  0.00    +0.000 C 
BRANCH  15  18
ATOM     18  N   UNL     1       1.152  -4.512  -6.180  0.00  0.00    +0.000 N 
ATOM     19  C   UNL     1       0.318  -5.722  -6.158  0.00  0.00    +0.000 C 
ATOM     20  O   UNL     1       0.419  -6.836  -6.746  0.00  0.00    +0.000 OA
ATOM     21  O   UNL     1      -0.513  -5.704  -5.142  0.00  0.00    +0.000 OA
ATOM     22  C   UNL     1      -1.703  -5.496  -5.800  0.00  0.00    +0.000 C 
ATOM     23  C   UNL     1      -1.671  -4.054  -5.669  0.00  0.00    +0.000 A 
ATOM     24  C   UNL     1      -3.114  -3.610  -5.262  0.00  0.00    +0.000 A 
ATOM     25  C   UNL     1      -3.493  -2.371  -4.872  0.00  0.00    +0.000 A 
ATOM     26  C   UNL     1      -2.524  -1.520  -5.337  0.00  0.00    +0.000 A 
ATOM     27  C   UNL     1      -1.025  -2.001  -5.891  0.00  0.00    +0.000 A 
ATOM     28  F   UNL     1      -0.516  -0.909  -6.513  0.00  0.00    +0.000 F 
ATOM     29  C   UNL     1      -0.376  -3.451  -5.906  0.00  0.00    +0.000 A 
ENDBRANCH  15  18
ENDBRANCH   5  10
BRANCH   1  30
ATOM     30  C   UNL     1       4.617  -1.503  -0.252  0.00  0.00    +0.000 C 
BRANCH  30  33
ATOM     31  O   UNL     1       1.190  -0.391  -0.312  0.00  0.00    +0.000 OA
ATOM     32  C   UNL     1       2.404  -0.239  -0.139  0.00  0.00    +0.000 C 
ATOM     33  N   UNL     1       3.170  -1.381  -0.322  0.00  0.00    +0.000 N 
ATOM     34  H   UNL     1       2.591  -2.177  -0.564  0.00  0.00    +0.000 HD
BRANCH  32  35
ATOM     35  C   UNL     1       3.025   1.165   0.240  0.00  0.00    +0.000 C 
BRANCH  35  36
ATOM     36  N   UNL     1       2.105   2.311   0.536  0.00  0.00    +0.000 N 
ATOM     37  C   UNL     1       0.754   2.098   0.774  0.00  0.00    +0.000 A 
ATOM     38  C   UNL     1      -0.160   3.076   0.689  0.00  0.00    +0.000 A 
ATOM     39  C   UNL     1       0.299   4.446   0.629  0.00  0.00    +0.000 A 
ATOM     40  C   UNL     1       1.611   4.716   0.641  0.00  0.00    +0.000 A 
ATOM     41  C   UNL     1       2.608   3.615   0.453  0.00  0.00    +0.000 A 
ATOM     42  O   UNL     1       3.782   3.899   0.229  0.00  0.00    +0.000 OA
BRANCH  38  43
ATOM     43  C   UNL     1      -1.635   2.797   0.679  0.00  0.00    +0.000 C 
ATOM     44  F   UNL     1      -2.264   3.373   1.734  0.00  0.00    +0.000 F 
ATOM     45  F   UNL     1      -2.225   3.286  -0.444  0.00  0.00    +0.000 F 
ATOM     46  F   UNL     1      -1.926   1.472   0.724  0.00  0.00    +0.000 F 
ENDBRANCH  38  43
ENDBRANCH  35  36
ENDBRANCH  32  35
ENDBRANCH  30  33
ENDBRANCH   1  30
TORSDOF 7
