REMARK  Name = CHEMBL2037488
REMARK  11 active torsions:
REMARK  status: ('A' for Active; 'I' for Inactive)
REMARK    1  A    between atoms: CD1_1  and  CG_2
REMARK    2  A    between atoms: CG_2  and  CD2_3
REMARK    3  A    between atoms: CG_2  and  CB_4
REMARK    4  A    between atoms: CB_4  and  CA_5
REMARK    5  A    between atoms: C_9  and  C_10
REMARK    6  A    between atoms: N_21  and  C_22
REMARK    7  A    between atoms: C_22  and  C_23
REMARK    8  A    between atoms: C_22  and  C_28
REMARK    9  A    between atoms: N_25  and  C_26
REMARK   10  A    between atoms: N_25  and  C_27
REMARK   11  A    between atoms: C_31  and  O_32
REMARK                            x       y       z     vdW  Elec       q    Type
REMARK                         _______ _______ _______ _____ _____    ______ ____
ROOT
ATOM      1  CA  LEU A   2       4.904   0.745  -1.130  0.00  0.00    +0.000 C 
ATOM      2  C   LEU A   2       5.318   1.856  -0.198  0.00  0.00    +0.000 C 
ATOM      3  O   LEU A   2       4.725   2.302   0.756  0.00  0.00    +0.000 OA
ATOM      4  N   UNK A   1       6.529   2.310  -0.520  0.00  0.00    +0.000 N 
ATOM      5  C   UNK A   1       7.366   1.673  -1.507  0.00  0.00    +0.000 C 
ATOM      6  C   UNK A   1       6.593   1.404  -2.803  0.00  0.00    +0.000 C 
ATOM      7  O   UNK A   1       7.219   1.409  -3.849  0.00  0.00    +0.000 OA
ATOM      8  N   LEU A   2       5.236   1.077  -2.608  0.00  0.00    +0.000 N 
ATOM      9  H   UNK A   1       6.801   3.048   0.108  0.00  0.00    +0.000 HD
ENDROOT
BRANCH   5  10
ATOM     10  C   UNK A   1       8.566   2.559  -1.845  0.00  0.00    +0.000 C 
ATOM     11  C   UNK A   1       9.349   2.807  -0.549  0.00  0.00    +0.000 C 
ATOM     12  C   UNK A   1       8.689   4.064  -0.051  0.00  0.00    +0.000 A 
ATOM     13  C   UNK A   1       8.525   4.447   1.269  0.00  0.00    +0.000 A 
ATOM     14  C   UNK A   1       7.687   5.530   1.544  0.00  0.00    +0.000 A 
ATOM     15  C   UNK A   1       7.003   6.195   0.512  0.00  0.00    +0.000 A 
ATOM     16  C   UNK A   1       7.124   5.771  -0.813  0.00  0.00    +0.000 A 
ATOM     17  C   UNK A   1       7.973   4.708  -1.080  0.00  0.00    +0.000 A 
ATOM     18  C   UNK A   1       8.106   3.951  -2.369  0.00  0.00    +0.000 C 
ENDBRANCH   5  10
BRANCH   1  19
ATOM     19  CB  LEU A   2       3.449   0.725  -0.860  0.00  0.00    +0.000 C 
BRANCH  19  21
ATOM     20  CD1 LEU A   2       1.183  -0.125   0.445  0.00  0.00    +0.000 C 
ATOM     21  CG  LEU A   2       2.764  -0.075   0.299  0.00  0.00    +0.000 C 
ATOM     22  CD2 LEU A   2       3.188  -1.529   0.141  0.00  0.00    +0.000 C 
ENDBRANCH  19  21
ENDBRANCH   1  19
BRANCH   8  23
ATOM     23  C   UNK A   0       4.208   0.917  -3.815  0.00  0.00    +0.000 C 
BRANCH  23  24
ATOM     24  C   UNK A   0       4.918   1.008  -5.222  0.00  0.00    +0.000 A 
ATOM     25  C   UNK A   0       5.934   0.110  -5.609  0.00  0.00    +0.000 A 
ATOM     26  C   UNK A   0       6.785   0.417  -6.689  0.00  0.00    +0.000 A 
ATOM     27  C   UNK A   0       6.575   1.597  -7.376  0.00  0.00    +0.000 A 
ATOM     28  N   UNK A   0       5.530   2.387  -7.161  0.00  0.00    +0.000 NA
ATOM     29  C   UNK A   0       4.722   2.059  -6.124  0.00  0.00    +0.000 A 
BRANCH  27  30
ATOM     30  O   UNK A   0       7.420   2.053  -8.340  0.00  0.00    +0.000 OA
ATOM     31  H   UNK A   0       8.181   1.462  -8.373  0.00  0.00    +0.000 HD
ENDBRANCH  27  30
ENDBRANCH  23  24
BRANCH  23  32
ATOM     32  C   UNK A   0       2.909   1.942  -3.755  0.00  0.00    +0.000 C 
ATOM     33  O   UNK A   0       2.957   3.033  -4.341  0.00  0.00    +0.000 OA
ATOM     34  N   UNK A   0       1.726   1.741  -3.051  0.00  0.00    +0.000 N 
ATOM     35  C   UNK A   0       1.275   0.644  -2.262  0.00  0.00    +0.000 C 
ATOM     36  C   UNK A   0       0.932   2.923  -2.705  0.00  0.00    +0.000 C 
ENDBRANCH  23  32
ENDBRANCH   8  23
TORSDOF 7
