REMARK  Name = CHEMBL469005
REMARK  10 active torsions:
REMARK  status: ('A' for Active; 'I' for Inactive)
REMARK    1  A    between atoms: C_1  and  O_2
REMARK    2  A    between atoms: O_2  and  C_3
REMARK    3  A    between atoms: C_3  and  C_4
REMARK    4  A    between atoms: C_7  and  C_8
REMARK    5  A    between atoms: C_11  and  C_12
REMARK    6  A    between atoms: C_15  and  C_16
REMARK    7  A    between atoms: C_19  and  C_20
REMARK    8  A    between atoms: N_23  and  C_24
REMARK    9  A    between atoms: C_27  and  O_28
REMARK   10  A    between atoms: O_28  and  C_29
REMARK                            x       y       z     vdW  Elec       q    Type
REMARK                         _______ _______ _______ _____ _____    ______ ____
ROOT
ATOM      1  C   UNL     1       4.523  -0.636   1.028  0.00  0.00    +0.000 A 
ATOM      2  N   UNL     1       5.385   0.252   1.492  0.00  0.00    +0.000 NA
ATOM      3  N   UNL     1       6.670  -0.246   1.310  0.00  0.00    +0.000 NA
ATOM      4  C   UNL     1       6.584  -1.440   0.748  0.00  0.00    +0.000 A 
ATOM      5  N   UNL     1       5.243  -1.736   0.596  0.00  0.00    +0.000 N 
ENDROOT
BRANCH   4   6
ATOM      6  C   UNL     1       7.652  -2.275   0.188  0.00  0.00    +0.000 A 
ATOM      7  C   UNL     1       7.665  -2.623  -1.165  0.00  0.00    +0.000 A 
ATOM      8  N   UNL     1       8.569  -3.472  -1.726  0.00  0.00    +0.000 NA
ATOM      9  C   UNL     1       9.500  -3.981  -0.883  0.00  0.00    +0.000 A 
ATOM     10  C   UNL     1       9.475  -3.636   0.471  0.00  0.00    +0.000 A 
ATOM     11  N   UNL     1       8.557  -2.801   1.041  0.00  0.00    +0.000 NA
BRANCH   9  12
ATOM     12  C   UNL     1      10.453  -4.960  -1.449  0.00  0.00    +0.000 A 
ATOM     13  C   UNL     1      11.311  -4.602  -2.507  0.00  0.00    +0.000 A 
ATOM     14  C   UNL     1      12.084  -5.562  -3.179  0.00  0.00    +0.000 A 
ATOM     15  C   UNL     1      12.127  -6.877  -2.716  0.00  0.00    +0.000 A 
ATOM     16  C   UNL     1      11.413  -7.212  -1.562  0.00  0.00    +0.000 A 
ATOM     17  C   UNL     1      10.518  -6.293  -0.977  0.00  0.00    +0.000 A 
ATOM     18  C   UNL     1       9.577  -6.773   0.099  0.00  0.00    +0.000 C 
BRANCH  15  19
ATOM     19  C   UNL     1      12.852  -7.877  -3.443  0.00  0.00    +0.000 C 
ATOM     20  N   UNL     1      13.415  -8.692  -4.059  0.00  0.00    +0.000 NA
ENDBRANCH  15  19
ENDBRANCH   9  12
ENDBRANCH   4   6
BRANCH   5  21
ATOM     21  C   UNL     1       4.708  -2.898   0.034  0.00  0.00    +0.000 A 
ATOM     22  C   UNL     1       3.949  -2.792  -1.120  0.00  0.00    +0.000 A 
ATOM     23  C   UNL     1       3.370  -3.939  -1.634  0.00  0.00    +0.000 A 
ATOM     24  C   UNL     1       3.450  -5.117  -0.906  0.00  0.00    +0.000 A 
ATOM     25  N   UNL     1       4.253  -5.240   0.180  0.00  0.00    +0.000 NA
ATOM     26  C   UNL     1       4.928  -4.143   0.594  0.00  0.00    +0.000 A 
BRANCH  24  27
ATOM     27  O   UNL     1       2.715  -6.238  -1.194  0.00  0.00    +0.000 OA
ATOM     28  C   UNL     1       1.840  -6.148  -2.317  0.00  0.00    +0.000 C 
ENDBRANCH  24  27
ENDBRANCH   5  21
BRANCH   1  29
ATOM     29  C   UNL     1       3.016  -0.613   1.102  0.00  0.00    +0.000 C 
BRANCH  29  31
ATOM     30  C   UNL     1       1.056  -0.011  -0.083  0.00  0.00    +0.000 C 
ATOM     31  O   UNL     1       2.487  -0.010  -0.088  0.00  0.00    +0.000 OA
ENDBRANCH  29  31
ENDBRANCH   1  29
TORSDOF 7
