REMARK  Name = CHEMBL31941
REMARK  6 active torsions:
REMARK  status: ('A' for Active; 'I' for Inactive)
REMARK    1  A    between atoms: C_1  and  S_2
REMARK    2  A    between atoms: S_2  and  N_5
REMARK    3  A    between atoms: C_9  and  C_10
REMARK    4  A    between atoms: C_10  and  C_11
REMARK    5  A    between atoms: C_16  and  C_17
REMARK    6  A    between atoms: C_22  and  N_23
REMARK                            x       y       z     vdW  Elec       q    Type
REMARK                         _______ _______ _______ _____ _____    ______ ____
ROOT
ATOM      1  C   UNL     1      -0.084  -2.385   2.301  0.00  0.00    +0.000 A 
ATOM      2  C   UNL     1       0.127  -3.507   3.060  0.00  0.00    +0.000 A 
ATOM      3  O   UNL     1      -1.044  -4.097   3.368  0.00  0.00    +0.000 OA
ATOM      4  C   UNL     1      -2.029  -3.356   2.792  0.00  0.00    +0.000 A 
ATOM      5  C   UNL     1      -3.387  -3.637   2.882  0.00  0.00    +0.000 A 
ATOM      6  C   UNL     1      -4.261  -2.782   2.195  0.00  0.00    +0.000 A 
ATOM      7  C   UNL     1      -3.749  -1.680   1.488  0.00  0.00    +0.000 A 
ATOM      8  C   UNL     1      -2.370  -1.428   1.399  0.00  0.00    +0.000 A 
ATOM      9  C   UNL     1      -1.494  -2.285   2.093  0.00  0.00    +0.000 A 
ENDROOT
BRANCH   6  10
ATOM     10  C   UNL     1      -5.738  -3.034   2.318  0.00  0.00    +0.000 C 
ATOM     11  O   UNL     1      -6.162  -3.883   3.096  0.00  0.00    +0.000 OA
ATOM     12  N   UNL     1      -6.585  -2.222   1.582  0.00  0.00    +0.000 N 
ATOM     13  C   UNL     1      -7.690  -1.521   2.232  0.00  0.00    +0.000 C 
ATOM     14  C   UNL     1      -9.027  -1.885   1.615  0.00  0.00    +0.000 C 
ATOM     15  C   UNL     1      -9.005  -1.705   0.081  0.00  0.00    +0.000 C 
ATOM     16  C   UNL     1      -7.847  -2.512  -0.520  0.00  0.00    +0.000 C 
ATOM     17  C   UNL     1      -6.513  -2.187   0.126  0.00  0.00    +0.000 C 
BRANCH  15  18
ATOM     18  N   UNL     1      -9.090  -0.265  -0.339  0.00  0.00    +0.000 N 
ATOM     19  C   UNL     1      -8.140   0.710   0.000  0.00  0.00    +0.000 C 
ATOM     20  O   UNL     1      -6.933   0.644  -0.064  0.00  0.00    +0.000 OA
ATOM     21  O   UNL     1      -8.705   1.830   0.526  0.00  0.00    +0.000 OA
ATOM     22  C   UNL     1      -9.420   2.529  -0.468  0.00  0.00    +0.000 C 
ATOM     23  C   UNL     1     -10.367   1.616  -1.181  0.00  0.00    +0.000 A 
ATOM     24  C   UNL     1     -11.384   2.174  -1.958  0.00  0.00    +0.000 A 
ATOM     25  C   UNL     1     -12.255   1.346  -2.650  0.00  0.00    +0.000 A 
ATOM     26  C   UNL     1     -12.105  -0.037  -2.572  0.00  0.00    +0.000 A 
ATOM     27  C   UNL     1     -11.088  -0.600  -1.795  0.00  0.00    +0.000 A 
ATOM     28  C   UNL     1     -10.208   0.220  -1.085  0.00  0.00    +0.000 A 
ENDBRANCH  15  18
ENDBRANCH   6  10
BRANCH   1  29
ATOM     29  C   UNL     1       0.938  -1.521   1.710  0.00  0.00    +0.000 C 
BRANCH  29  34
ATOM     30  N   UNL     1       3.312  -0.900   1.091  0.00  0.00    +0.000 NA
ATOM     31  C   UNL     1       4.471  -1.781   0.689  0.00  0.00    +0.000 C 
ATOM     32  C   UNL     1       3.757  -3.021   0.186  0.00  0.00    +0.000 C 
ATOM     33  C   UNL     1       2.729  -3.254   1.270  0.00  0.00    +0.000 C 
ATOM     34  C   UNL     1       2.399  -1.855   1.831  0.00  0.00    +0.000 C 
BRANCH  30  36
ATOM     35  C   UNL     1       1.091   0.373  -0.324  0.00  0.00    +0.000 C 
ATOM     36  S   UNL     1       2.870   0.185  -0.164  0.00  0.00    +0.000 S 
ATOM     37  O   UNL     1       3.288  -0.416  -1.416  0.00  0.00    +0.000 OA
ATOM     38  O   UNL     1       3.389   1.480   0.222  0.00  0.00    +0.000 OA
ENDBRANCH  30  36
ENDBRANCH  29  34
ENDBRANCH   1  29
TORSDOF 5
