REMARK  Name = CHEMBL474219
REMARK  8 active torsions:
REMARK  status: ('A' for Active; 'I' for Inactive)
REMARK    1  A    between atoms: C_1  and  S_2
REMARK    2  A    between atoms: S_2  and  C_5
REMARK    3  A    between atoms: C_10  and  C_11
REMARK    4  A    between atoms: C_14  and  C_15
REMARK    5  A    between atoms: N_17  and  C_18
REMARK    6  A    between atoms: N_17  and  C_22
REMARK    7  A    between atoms: C_18  and  C_19
REMARK    8  A    between atoms: C_22  and  C_23
REMARK                            x       y       z     vdW  Elec       q    Type
REMARK                         _______ _______ _______ _____ _____    ______ ____
ROOT
ATOM      1  C   UNL     1       4.238   0.712   2.622  0.00  0.00    +0.000 A 
ATOM      2  C   UNL     1       5.395   1.215   3.224  0.00  0.00    +0.000 A 
ATOM      3  C   UNL     1       5.511   2.616   3.480  0.00  0.00    +0.000 A 
ATOM      4  C   UNL     1       4.629   3.531   2.882  0.00  0.00    +0.000 A 
ATOM      5  C   UNL     1       3.760   2.956   1.993  0.00  0.00    +0.000 A 
ATOM      6  C   UNL     1       3.356   1.646   2.189  0.00  0.00    +0.000 A 
ENDROOT
BRANCH   1  12
ATOM      7  C   UNL     1       3.384  -1.142   1.102  0.00  0.00    +0.000 A 
ATOM      8  C   UNL     1       3.214  -2.520   0.918  0.00  0.00    +0.000 A 
ATOM      9  C   UNL     1       3.341  -3.400   1.997  0.00  0.00    +0.000 A 
ATOM     10  C   UNL     1       3.677  -2.929   3.262  0.00  0.00    +0.000 A 
ATOM     11  C   UNL     1       3.930  -1.575   3.443  0.00  0.00    +0.000 A 
ATOM     12  C   UNL     1       3.867  -0.672   2.361  0.00  0.00    +0.000 A 
BRANCH   7  14
ATOM     13  C   UNL     1       1.052  -0.047  -0.141  0.00  0.00    +0.000 C 
ATOM     14  S   UNL     1       2.837  -0.137  -0.343  0.00  0.00    +0.000 S 
ATOM     15  O   UNL     1       3.114  -0.893  -1.529  0.00  0.00    +0.000 OA
ATOM     16  O   UNL     1       3.327   1.242  -0.295  0.00  0.00    +0.000 OA
ENDBRANCH   7  14
ENDBRANCH   1  12
BRANCH   4  17
ATOM     17  C   UNL     1       4.515   5.008   3.287  0.00  0.00    +0.000 C 
ATOM     18  O   UNL     1       5.509   5.484   3.844  0.00  0.00    +0.000 OA
ATOM     19  N   UNL     1       3.331   5.821   3.133  0.00  0.00    +0.000 N 
BRANCH  19  20
ATOM     20  C   UNL     1       1.970   5.421   2.737  0.00  0.00    +0.000 C 
BRANCH  20  21
ATOM     21  C   UNL     1       1.557   4.032   2.819  0.00  0.00    +0.000 C 
ATOM     22  C   UNL     1       1.987   3.408   4.163  0.00  0.00    +0.000 C 
ATOM     23  C   UNL     1       0.698   3.053   3.574  0.00  0.00    +0.000 C 
ENDBRANCH  20  21
ENDBRANCH  19  20
BRANCH  19  24
ATOM     24  C   UNL     1       3.482   7.311   3.281  0.00  0.00    +0.000 C 
BRANCH  24  25
ATOM     25  C   UNL     1       2.255   8.181   2.808  0.00  0.00    +0.000 C 
ATOM     26  C   UNL     1       1.866   7.968   1.344  0.00  0.00    +0.000 C 
ATOM     27  C   UNL     1       1.175   9.228   0.954  0.00  0.00    +0.000 C 
ATOM     28  C   UNL     1       1.900  10.255   1.779  0.00  0.00    +0.000 C 
ATOM     29  O   UNL     1       2.464   9.599   2.932  0.00  0.00    +0.000 OA
ENDBRANCH  24  25
ENDBRANCH  19  24
ENDBRANCH   4  17
TORSDOF 7
