REMARK  Name = CHEMBL284442
REMARK  7 active torsions:
REMARK  status: ('A' for Active; 'I' for Inactive)
REMARK    1  A    between atoms: C_2  and  C_3
REMARK    2  A    between atoms: C_3  and  N_4
REMARK    3  A    between atoms: C_6  and  C_7
REMARK    4  A    between atoms: N_15  and  C_16
REMARK    5  A    between atoms: C_16  and  C_17
REMARK    6  A    between atoms: C_21  and  C_22
REMARK    7  A    between atoms: C_27  and  N_28
REMARK                            x       y       z     vdW  Elec       q    Type
REMARK                         _______ _______ _______ _____ _____    ______ ____
ROOT
ATOM      1  C   UNL     1       5.300   0.184   2.792  0.00  0.00    +0.000 A 
ATOM      2  C   UNL     1       6.661   0.394   2.772  0.00  0.00    +0.000 A 
ATOM      3  C   UNL     1       7.083   0.773   4.045  0.00  0.00    +0.000 A 
ATOM      4  C   UNL     1       8.199   1.494   4.499  0.00  0.00    +0.000 A 
ATOM      5  C   UNL     1       8.486   1.622   5.857  0.00  0.00    +0.000 A 
ATOM      6  C   UNL     1       7.598   0.936   6.681  0.00  0.00    +0.000 A 
ATOM      7  N   UNL     1       6.379   0.301   6.310  0.00  0.00    +0.000 NA
ATOM      8  C   UNL     1       6.141   0.327   4.951  0.00  0.00    +0.000 A 
ATOM      9  O   UNL     1       4.944   0.036   4.165  0.00  0.00    +0.000 OA
ENDROOT
BRANCH   5  10
ATOM     10  C   UNL     1       9.567   2.624   6.254  0.00  0.00    +0.000 C 
ATOM     11  O   UNL     1      10.005   3.342   5.348  0.00  0.00    +0.000 OA
ATOM     12  N   UNL     1       9.946   2.851   7.598  0.00  0.00    +0.000 N 
ATOM     13  C   UNL     1       9.870   4.202   8.182  0.00  0.00    +0.000 C 
ATOM     14  C   UNL     1      11.126   4.672   8.924  0.00  0.00    +0.000 C 
ATOM     15  C   UNL     1      11.280   3.757  10.373  0.00  0.00    +0.000 C 
ATOM     16  C   UNL     1      11.607   2.325   9.382  0.00  0.00    +0.000 C 
ATOM     17  C   UNL     1      10.444   1.823   8.505  0.00  0.00    +0.000 C 
BRANCH  15  18
ATOM     18  N   UNL     1      10.368   4.546  11.771  0.00  0.00    +0.000 N 
ATOM     19  C   UNL     1      11.511   5.371  11.898  0.00  0.00    +0.000 C 
ATOM     20  O   UNL     1      11.978   6.154  10.975  0.00  0.00    +0.000 OA
ATOM     21  O   UNL     1      12.314   5.126  12.910  0.00  0.00    +0.000 OA
ATOM     22  C   UNL     1      11.674   5.928  13.835  0.00  0.00    +0.000 C 
ATOM     23  C   UNL     1      10.836   4.853  14.374  0.00  0.00    +0.000 A 
ATOM     24  C   UNL     1      10.909   3.901  15.396  0.00  0.00    +0.000 A 
ATOM     25  C   UNL     1       9.796   3.650  16.237  0.00  0.00    +0.000 A 
ATOM     26  C   UNL     1       8.765   4.510  16.055  0.00  0.00    +0.000 A 
ATOM     27  C   UNL     1       8.806   5.088  14.651  0.00  0.00    +0.000 A 
ATOM     28  C   UNL     1       9.854   4.539  13.553  0.00  0.00    +0.000 A 
ENDBRANCH  15  18
ENDBRANCH   5  10
BRANCH   1  29
ATOM     29  C   UNL     1       4.525   0.075   1.448  0.00  0.00    +0.000 C 
BRANCH  29  32
ATOM     30  O   UNL     1       1.135  -0.011   0.165  0.00  0.00    +0.000 OA
ATOM     31  C   UNL     1       2.368  -0.027   0.100  0.00  0.00    +0.000 C 
ATOM     32  N   UNL     1       3.088   0.098   1.290  0.00  0.00    +0.000 N 
ATOM     33  H   UNL     1       2.506   0.256   2.101  0.00  0.00    +0.000 HD
BRANCH  31  34
ATOM     34  C   UNL     1       3.084  -0.216  -1.269  0.00  0.00    +0.000 C 
BRANCH  34  35
ATOM     35  N   UNL     1       2.145  -0.367  -2.410  0.00  0.00    +0.000 N 
ATOM     36  C   UNL     1       1.808  -1.631  -2.885  0.00  0.00    +0.000 A 
ATOM     37  C   UNL     1       1.147  -1.800  -4.047  0.00  0.00    +0.000 A 
ATOM     38  C   UNL     1       0.615  -0.632  -4.727  0.00  0.00    +0.000 A 
ATOM     39  C   UNL     1       0.774   0.590  -4.203  0.00  0.00    +0.000 A 
ATOM     40  C   UNL     1       1.682   0.792  -3.037  0.00  0.00    +0.000 A 
ATOM     41  O   UNL     1       2.004   1.933  -2.718  0.00  0.00    +0.000 OA
BRANCH  37  42
ATOM     42  C   UNL     1       0.916  -3.139  -4.690  0.00  0.00    +0.000 C 
ATOM     43  F   UNL     1      -0.402  -3.409  -4.868  0.00  0.00    +0.000 F 
ATOM     44  F   UNL     1       1.497  -3.202  -5.918  0.00  0.00    +0.000 F 
ATOM     45  F   UNL     1       1.437  -4.162  -3.964  0.00  0.00    +0.000 F 
ENDBRANCH  37  42
ENDBRANCH  34  35
ENDBRANCH  31  34
ENDBRANCH  29  32
ENDBRANCH   1  29
TORSDOF 7
