REMARK  Name = CHEMBL198964
REMARK  12 active torsions:
REMARK  status: ('A' for Active; 'I' for Inactive)
REMARK    1  A    between atoms: CD1_1  and  CG_2
REMARK    2  A    between atoms: CG_2  and  CD2_3
REMARK    3  A    between atoms: CG_2  and  CB_4
REMARK    4  A    between atoms: CB_4  and  CA_5
REMARK    5  A    between atoms: C_9  and  C_10
REMARK    6  A    between atoms: N_21  and  C_22
REMARK    7  A    between atoms: C_22  and  C_23
REMARK    8  A    between atoms: C_22  and  C_30
REMARK    9  A    between atoms: N_25  and  C_26
REMARK   10  A    between atoms: C_26  and  C_27
REMARK   11  A    between atoms: C_26  and  C_28
REMARK   12  A    between atoms: C_26  and  C_29
REMARK                            x       y       z     vdW  Elec       q    Type
REMARK                         _______ _______ _______ _____ _____    ______ ____
ROOT
ATOM      1  CA  LEU A   2       2.645  -3.395  -0.064  0.00  0.00    +0.000 C 
ATOM      2  C   LEU A   2       1.190  -3.112  -0.383  0.00  0.00    +0.000 C 
ATOM      3  O   LEU A   2       0.703  -2.883  -1.484  0.00  0.00    +0.000 OA
ATOM      4  N   UNK A   1       0.387  -3.235   0.679  0.00  0.00    +0.000 N 
ATOM      5  C   UNK A   1       0.819  -3.829   1.923  0.00  0.00    +0.000 C 
ATOM      6  C   UNK A   1       2.086  -3.150   2.376  0.00  0.00    +0.000 C 
ATOM      7  O   UNK A   1       2.299  -2.958   3.573  0.00  0.00    +0.000 OA
ATOM      8  N   LEU A   2       3.014  -2.869   1.348  0.00  0.00    +0.000 N 
ATOM      9  H   UNK A   1      -0.582  -3.124   0.420  0.00  0.00    +0.000 HD
ENDROOT
BRANCH   5  10
ATOM     10  C   UNK A   1      -0.252  -3.727   3.013  0.00  0.00    +0.000 C 
ATOM     11  C   UNK A   1      -1.485  -4.433   2.426  0.00  0.00    +0.000 C 
ATOM     12  C   UNK A   1      -2.262  -3.263   1.884  0.00  0.00    +0.000 A 
ATOM     13  C   UNK A   1      -3.181  -3.263   0.849  0.00  0.00    +0.000 A 
ATOM     14  C   UNK A   1      -3.745  -2.046   0.461  0.00  0.00    +0.000 A 
ATOM     15  C   UNK A   1      -3.386  -0.851   1.102  0.00  0.00    +0.000 A 
ATOM     16  C   UNK A   1      -2.417  -0.849   2.108  0.00  0.00    +0.000 A 
ATOM     17  C   UNK A   1      -1.840  -2.057   2.462  0.00  0.00    +0.000 A 
ATOM     18  C   UNK A   1      -0.729  -2.306   3.432  0.00  0.00    +0.000 C 
ENDBRANCH   5  10
BRANCH   1  19
ATOM     19  CB  LEU A   2       3.318  -2.781  -1.266  0.00  0.00    +0.000 C 
BRANCH  19  21
ATOM     20  CD1 LEU A   2       5.226  -2.671  -3.302  0.00  0.00    +0.000 C 
ATOM     21  CG  LEU A   2       4.502  -3.626  -1.717  0.00  0.00    +0.000 C 
ATOM     22  CD2 LEU A   2       5.459  -4.555  -0.270  0.00  0.00    +0.000 C 
ENDBRANCH  19  21
ENDBRANCH   1  19
BRANCH   8  23
ATOM     23  C   UNK A   0       4.193  -2.027   1.866  0.00  0.00    +0.000 C 
BRANCH  23  24
ATOM     24  C   UNK A   0       5.024  -2.813   2.922  0.00  0.00    +0.000 A 
ATOM     25  C   UNK A   0       6.092  -2.140   3.532  0.00  0.00    +0.000 A 
ATOM     26  C   UNK A   0       6.921  -2.781   4.443  0.00  0.00    +0.000 A 
ATOM     27  C   UNK A   0       6.661  -4.096   4.810  0.00  0.00    +0.000 A 
ATOM     28 CL   UNK A   0       7.685  -4.880   5.942  0.00  0.00    +0.000 Cl
ATOM     29  C   UNK A   0       5.588  -4.782   4.259  0.00  0.00    +0.000 A 
ATOM     30  C   UNK A   0       4.800  -4.156   3.295  0.00  0.00    +0.000 A 
ENDBRANCH  23  24
BRANCH  23  31
ATOM     31  C   UNK A   0       5.269  -1.411   0.882  0.00  0.00    +0.000 C 
ATOM     32  O   UNK A   0       5.973  -0.345   1.108  0.00  0.00    +0.000 OA
ATOM     33  N   UNK A   0       5.552  -2.268  -0.070  0.00  0.00    +0.000 N 
ATOM     34  H   UNK A   0       4.789  -2.896   0.121  0.00  0.00    +0.000 HD
BRANCH  33  35
ATOM     35  C   UNK A   0       6.429  -2.498  -1.424  0.00  0.00    +0.000 C 
ATOM     36  C   UNK A   0       5.815  -0.809  -1.893  0.00  0.00    +0.000 C 
ATOM     37  C   UNK A   0       7.851  -2.466  -1.017  0.00  0.00    +0.000 C 
ATOM     38  C   UNK A   0       6.440  -4.239  -2.473  0.00  0.00    +0.000 C 
ENDBRANCH  33  35
ENDBRANCH  23  31
ENDBRANCH   8  23
TORSDOF 7
