REMARK  Name = CHEMBL102994
REMARK  8 active torsions:
REMARK  status: ('A' for Active; 'I' for Inactive)
REMARK    1  A    between atoms: C_1  and  O_2
REMARK    2  A    between atoms: O_2  and  C_3
REMARK    3  A    between atoms: C_5  and  O_6
REMARK    4  A    between atoms: O_6  and  C_7
REMARK    5  A    between atoms: C_7  and  C_8
REMARK    6  A    between atoms: C_7  and  C_9
REMARK    7  A    between atoms: C_17  and  C_18
REMARK    8  A    between atoms: C_23  and  N_24
REMARK                            x       y       z     vdW  Elec       q    Type
REMARK                         _______ _______ _______ _____ _____    ______ ____
ROOT
ATOM      1  C   UNL     1       1.131   0.036   2.555  0.00  0.00    +0.000 C 
ATOM      2  O   UNL     1       0.760   0.215   3.721  0.00  0.00    +0.000 OA
ATOM      3  N   UNL     1       0.264  -0.617   1.634  0.00  0.00    +0.000 N 
ATOM      4  C   UNL     1      -1.002   0.126   1.264  0.00  0.00    +0.000 C 
ATOM      5  C   UNL     1      -2.115  -0.788   0.813  0.00  0.00    +0.000 C 
ATOM      6  C   UNL     1      -1.717  -1.473  -0.730  0.00  0.00    +0.000 C 
ATOM      7  C   UNL     1      -0.412  -2.429   0.021  0.00  0.00    +0.000 C 
ATOM      8  C   UNL     1       0.747  -1.691   0.698  0.00  0.00    +0.000 C 
ENDROOT
BRANCH   6   9
ATOM      9  N   UNL     1      -2.351  -0.469  -2.164  0.00  0.00    +0.000 N 
ATOM     10  C   UNL     1      -3.628  -1.067  -1.765  0.00  0.00    +0.000 C 
ATOM     11  O   UNL     1      -4.182  -1.006  -0.746  0.00  0.00    +0.000 OA
ATOM     12  O   UNL     1      -4.077  -1.982  -2.670  0.00  0.00    +0.000 OA
ATOM     13  C   UNL     1      -4.850  -1.112  -3.399  0.00  0.00    +0.000 C 
ATOM     14  C   UNL     1      -3.793  -0.944  -4.395  0.00  0.00    +0.000 A 
ATOM     15  C   UNL     1      -3.781  -1.581  -5.662  0.00  0.00    +0.000 A 
ATOM     16  C   UNL     1      -3.347  -0.970  -6.822  0.00  0.00    +0.000 A 
ATOM     17  C   UNL     1      -3.161   0.363  -6.629  0.00  0.00    +0.000 A 
ATOM     18  C   UNL     1      -2.855   0.783  -5.158  0.00  0.00    +0.000 A 
ATOM     19  C   UNL     1      -2.699  -0.241  -3.958  0.00  0.00    +0.000 A 
ENDBRANCH   6   9
BRANCH   1  25
ATOM     20  C   UNL     1       3.004   0.838   0.853  0.00  0.00    +0.000 A 
ATOM     21  C   UNL     1       4.254   1.461   0.670  0.00  0.00    +0.000 A 
ATOM     22  C   UNL     1       5.013   1.913   1.736  0.00  0.00    +0.000 A 
ATOM     23  C   UNL     1       4.428   1.908   2.990  0.00  0.00    +0.000 A 
ATOM     24  C   UNL     1       3.216   1.235   3.207  0.00  0.00    +0.000 A 
ATOM     25  C   UNL     1       2.464   0.660   2.144  0.00  0.00    +0.000 A 
BRANCH  20  27
ATOM     26  C   UNL     1       1.272   0.814  -0.720  0.00  0.00    +0.000 C 
ATOM     27  O   UNL     1       2.564   0.392  -0.366  0.00  0.00    +0.000 OA
ENDBRANCH  20  27
BRANCH  22  28
ATOM     28  O   UNL     1       6.309   2.246   1.458  0.00  0.00    +0.000 OA
BRANCH  28  29
ATOM     29  C   UNL     1       7.183   2.507   2.566  0.00  0.00    +0.000 C 
ATOM     30  C   UNL     1       7.336   1.347   3.577  0.00  0.00    +0.000 C 
BRANCH  29  31
ATOM     31  C   UNL     1       8.564   2.850   2.020  0.00  0.00    +0.000 A 
ATOM     32  C   UNL     1       9.514   1.850   1.743  0.00  0.00    +0.000 A 
ATOM     33  C   UNL     1      10.836   2.179   1.464  0.00  0.00    +0.000 A 
ATOM     34  C   UNL     1      11.196   3.512   1.313  0.00  0.00    +0.000 A 
ATOM     35  C   UNL     1      10.251   4.518   1.513  0.00  0.00    +0.000 A 
ATOM     36  C   UNL     1       8.944   4.190   1.875  0.00  0.00    +0.000 A 
ENDBRANCH  29  31
ENDBRANCH  28  29
ENDBRANCH  22  28
ENDBRANCH   1  25
TORSDOF 6
