REMARK  Name = CHEMBL475395
REMARK  7 active torsions:
REMARK  status: ('A' for Active; 'I' for Inactive)
REMARK    1  A    between atoms: C_1  and  C_2
REMARK    2  A    between atoms: C_4  and  C_5
REMARK    3  A    between atoms: N_7  and  C_8
REMARK    4  A    between atoms: N_7  and  C_12
REMARK    5  A    between atoms: C_8  and  C_9
REMARK    6  A    between atoms: C_12  and  C_13
REMARK    7  A    between atoms: C_20  and  C_21
REMARK                            x       y       z     vdW  Elec       q    Type
REMARK                         _______ _______ _______ _____ _____    ______ ____
ROOT
ATOM      1  C   UNL     1       2.808  -0.163  -0.022  0.00  0.00    +0.000 C 
ATOM      2  C   UNL     1       1.324  -0.135  -0.014  0.00  0.00    +0.000 A 
ATOM      3  C   UNL     1       0.540  -1.352  -0.038  0.00  0.00    +0.000 A 
ATOM      4  C   UNL     1      -0.835  -1.305   0.148  0.00  0.00    +0.000 A 
ATOM      5  C   UNL     1      -1.213  -0.048   0.544  0.00  0.00    +0.000 A 
ATOM      6  C   UNL     1      -0.590   1.143   0.250  0.00  0.00    +0.000 A 
ATOM      7  C   UNL     1       0.732   1.137   0.064  0.00  0.00    +0.000 A 
ENDROOT
BRANCH   7   8
ATOM      8  C   UNL     1       1.322   2.468   0.032  0.00  0.00    +0.000 A 
ATOM      9  C   UNL     1       0.987   3.438   1.012  0.00  0.00    +0.000 A 
ATOM     10  C   UNL     1       1.428   4.748   0.888  0.00  0.00    +0.000 A 
ATOM     11  C   UNL     1       2.271   5.072  -0.169  0.00  0.00    +0.000 A 
ATOM     12  C   UNL     1       2.558   4.138  -1.167  0.00  0.00    +0.000 A 
ATOM     13  C   UNL     1       2.041   2.857  -1.089  0.00  0.00    +0.000 A 
ENDBRANCH   7   8
BRANCH   4  14
ATOM     14  C   UNL     1      -1.831  -2.471   0.064  0.00  0.00    +0.000 C 
ATOM     15  O   UNL     1      -1.296  -3.612   0.044  0.00  0.00    +0.000 OA
ATOM     16  N   UNL     1      -3.268  -2.382  -0.010  0.00  0.00    +0.000 N 
BRANCH  16  17
ATOM     17  C   UNL     1      -4.168  -1.239  -0.224  0.00  0.00    +0.000 C 
BRANCH  17  18
ATOM     18  C   UNL     1      -3.717   0.107  -0.108  0.00  0.00    +0.000 C 
ATOM     19  C   UNL     1      -3.107   0.582  -1.450  0.00  0.00    +0.000 C 
ATOM     20  C   UNL     1      -3.731   1.559  -0.552  0.00  0.00    +0.000 C 
ENDBRANCH  17  18
ENDBRANCH  16  17
BRANCH  16  21
ATOM     21  C   UNL     1      -4.051  -3.661  -0.028  0.00  0.00    +0.000 C 
BRANCH  21  22
ATOM     22  C   UNL     1      -5.658  -3.606  -0.013  0.00  0.00    +0.000 C 
ATOM     23  C   UNL     1      -6.314  -4.521  -1.037  0.00  0.00    +0.000 C 
ATOM     24  C   UNL     1      -7.519  -3.730  -1.528  0.00  0.00    +0.000 C 
ATOM     25  C   UNL     1      -7.044  -2.315  -1.445  0.00  0.00    +0.000 C 
ATOM     26  O   UNL     1      -6.310  -2.331  -0.230  0.00  0.00    +0.000 OA
ENDBRANCH  21  22
ENDBRANCH  16  21
ENDBRANCH   4  14
TORSDOF 6
