REMARK  Name = CHEMBL2113179
REMARK  10 active torsions:
REMARK  status: ('A' for Active; 'I' for Inactive)
REMARK    1  A    between atoms: C_2  and  C_3
REMARK    2  A    between atoms: C_3  and  N_4
REMARK    3  A    between atoms: N_4  and  C_5
REMARK    4  A    between atoms: N_4  and  S_12
REMARK    5  A    between atoms: S_12  and  C_15
REMARK    6  A    between atoms: C_18  and  C_19
REMARK    7  A    between atoms: C_19  and  C_20
REMARK    8  A    between atoms: C_20  and  C_21
REMARK    9  A    between atoms: C_21  and  O_22
REMARK   10  A    between atoms: N_25  and  N_26
REMARK                            x       y       z     vdW  Elec       q    Type
REMARK                         _______ _______ _______ _____ _____    ______ ____
ROOT
ATOM      1  N   UNL     1       2.071  -2.297   0.587  0.00  0.00    +0.000 N 
ENDROOT
BRANCH   1   2
ATOM      2  C   UNL     1       0.669  -1.990   0.555  0.00  0.00    +0.000 A 
ATOM      3  C   UNL     1       0.072  -1.581  -0.639  0.00  0.00    +0.000 A 
ATOM      4  C   UNL     1      -1.281  -1.226  -0.673  0.00  0.00    +0.000 A 
ATOM      5  C   UNL     1      -2.098  -1.510   0.409  0.00  0.00    +0.000 A 
ATOM      6 CL   UNL     1      -3.791  -1.240   0.325  0.00  0.00    +0.000 Cl
ATOM      7  C   UNL     1      -1.529  -1.973   1.583  0.00  0.00    +0.000 A 
ATOM      8  C   UNL     1      -0.123  -2.002   1.710  0.00  0.00    +0.000 A 
ENDBRANCH   1   2
BRANCH   1   9
ATOM      9  S   UNL     1       2.672  -3.862   1.084  0.00  0.00    +0.000 S 
ATOM     10  O   UNL     1       3.403  -4.414  -0.043  0.00  0.00    +0.000 OA
ATOM     11  O   UNL     1       3.371  -3.677   2.344  0.00  0.00    +0.000 OA
BRANCH   9  12
ATOM     12  C   UNL     1       1.373  -5.070   1.448  0.00  0.00    +0.000 A 
ATOM     13  C   UNL     1       0.107  -4.733   1.882  0.00  0.00    +0.000 A 
ATOM     14  C   UNL     1      -0.875  -5.522   2.433  0.00  0.00    +0.000 A 
ATOM     15  C   UNL     1      -0.704  -6.852   2.247  0.00  0.00    +0.000 A 
ATOM     16  C   UNL     1       0.542  -7.295   1.742  0.00  0.00    +0.000 A 
ATOM     17  C   UNL     1       1.583  -6.423   1.364  0.00  0.00    +0.000 A 
BRANCH  15  18
ATOM     18  C   UNL     1      -1.904  -7.712   2.493  0.00  0.00    +0.000 C 
BRANCH  18  19
ATOM     19  C   UNL     1      -1.553  -9.149   2.215  0.00  0.00    +0.000 C 
BRANCH  19  20
ATOM     20  C   UNL     1      -2.717 -10.056   2.480  0.00  0.00    +0.000 C 
BRANCH  20  21
ATOM     21  O   UNL     1      -2.314 -11.392   2.231  0.00  0.00    +0.000 OA
ATOM     22  H   UNL     1      -2.024 -11.442   1.303  0.00  0.00    +0.000 HD
ENDBRANCH  20  21
ENDBRANCH  19  20
ENDBRANCH  18  19
ENDBRANCH  15  18
ENDBRANCH   9  12
ENDBRANCH   1   9
BRANCH   1  23
ATOM     23  C   UNL     1       3.113  -1.144   0.301  0.00  0.00    +0.000 C 
BRANCH  23  25
ATOM     24  O   UNL     1       1.329   0.535   0.072  0.00  0.00    +0.000 OA
ATOM     25  C   UNL     1       2.556   0.342   0.008  0.00  0.00    +0.000 C 
ATOM     26  N   UNL     1       3.195   1.491  -0.514  0.00  0.00    +0.000 N 
ATOM     27  H   UNL     1       2.387   2.063  -0.801  0.00  0.00    +0.000 HD
BRANCH  26  28
ATOM     28  N   UNL     1       4.134   2.555   0.124  0.00  0.00    +0.000 NA
ATOM     29  C   UNL     1       4.212   3.811  -0.452  0.00  0.00    +0.000 C 
ATOM     30  C   UNL     1       4.132   3.604  -1.881  0.00  0.00    +0.000 C 
ATOM     31  O   UNL     1       2.956   3.400  -2.197  0.00  0.00    +0.000 OA
ATOM     32  N   UNL     1       5.093   4.459  -2.299  0.00  0.00    +0.000 N 
ATOM     33  C   UNL     1       4.494   5.662  -1.939  0.00  0.00    +0.000 A 
ATOM     34  C   UNL     1       4.859   6.661  -2.992  0.00  0.00    +0.000 A 
ATOM     35  C   UNL     1       4.247   7.866  -3.141  0.00  0.00    +0.000 A 
ATOM     36  C   UNL     1       3.229   7.961  -2.251  0.00  0.00    +0.000 A 
ATOM     37  C   UNL     1       3.014   6.841  -1.141  0.00  0.00    +0.000 A 
ATOM     38  C   UNL     1       3.534   5.497  -0.803  0.00  0.00    +0.000 A 
ATOM     39  H   UNL     1       5.968   4.448  -1.764  0.00  0.00    +0.000 HD
ENDBRANCH  26  28
ENDBRANCH  23  25
ENDBRANCH   1  23
TORSDOF 10
