REMARK  Name = CHEMBL196688
REMARK  12 active torsions:
REMARK  status: ('A' for Active; 'I' for Inactive)
REMARK    1  A    between atoms: CD1_1  and  CG_2
REMARK    2  A    between atoms: CG_2  and  CD2_3
REMARK    3  A    between atoms: CG_2  and  CB_4
REMARK    4  A    between atoms: CB_4  and  CA_5
REMARK    5  A    between atoms: C_9  and  C_10
REMARK    6  A    between atoms: N_21  and  C_22
REMARK    7  A    between atoms: C_22  and  C_23
REMARK    8  A    between atoms: C_22  and  C_29
REMARK    9  A    between atoms: N_25  and  C_26
REMARK   10  A    between atoms: C_26  and  C_27
REMARK   11  A    between atoms: C_26  and  C_28
REMARK   12  A    between atoms: C_32  and  C_33
REMARK                            x       y       z     vdW  Elec       q    Type
REMARK                         _______ _______ _______ _____ _____    ______ ____
ROOT
ATOM      1  CA  LEU A   2       2.949  -0.601   3.394  0.00  0.00    +0.000 C 
ATOM      2  C   LEU A   2       1.566  -1.166   3.146  0.00  0.00    +0.000 C 
ATOM      3  O   LEU A   2       1.282  -2.293   2.708  0.00  0.00    +0.000 OA
ATOM      4  N   UNK A   1       0.601  -0.326   3.560  0.00  0.00    +0.000 N 
ATOM      5  C   UNK A   1       0.906   0.980   4.129  0.00  0.00    +0.000 C 
ATOM      6  C   UNK A   1       2.063   1.638   3.315  0.00  0.00    +0.000 C 
ATOM      7  O   UNK A   1       2.104   2.861   3.178  0.00  0.00    +0.000 OA
ATOM      8  N   LEU A   2       3.053   0.762   2.833  0.00  0.00    +0.000 N 
ATOM      9  H   UNK A   1      -0.339  -0.688   3.464  0.00  0.00    +0.000 HD
ENDROOT
BRANCH   5  10
ATOM     10  C   UNK A   1      -0.289   1.949   4.016  0.00  0.00    +0.000 C 
ATOM     11  C   UNK A   1      -1.559   1.448   4.724  0.00  0.00    +0.000 C 
ATOM     12  C   UNK A   1      -2.207   0.653   3.631  0.00  0.00    +0.000 A 
ATOM     13  C   UNK A   1      -3.098  -0.395   3.759  0.00  0.00    +0.000 A 
ATOM     14  C   UNK A   1      -3.450  -1.105   2.609  0.00  0.00    +0.000 A 
ATOM     15  C   UNK A   1      -2.901  -0.772   1.360  0.00  0.00    +0.000 A 
ATOM     16  C   UNK A   1      -2.002   0.287   1.236  0.00  0.00    +0.000 A 
ATOM     17  C   UNK A   1      -1.684   1.005   2.376  0.00  0.00    +0.000 A 
ATOM     18  C   UNK A   1      -0.670   2.097   2.515  0.00  0.00    +0.000 C 
ENDBRANCH   5  10
BRANCH   1  19
ATOM     19  CB  LEU A   2       3.944  -1.552   2.884  0.00  0.00    +0.000 C 
BRANCH  19  21
ATOM     20  CD1 LEU A   2       6.158  -2.358   3.169  0.00  0.00    +0.000 C 
ATOM     21  CG  LEU A   2       5.188  -1.459   3.802  0.00  0.00    +0.000 C 
ATOM     22  CD2 LEU A   2       5.867  -0.115   4.082  0.00  0.00    +0.000 C 
ENDBRANCH  19  21
ENDBRANCH   1  19
BRANCH   8  23
ATOM     23  C   UNK A   0       4.229   1.316   1.994  0.00  0.00    +0.000 C 
BRANCH  23  24
ATOM     24  C   UNK A   0       4.954   2.499   2.786  0.00  0.00    +0.000 A 
ATOM     25  C   UNK A   0       4.619   2.935   4.093  0.00  0.00    +0.000 A 
ATOM     26  C   UNK A   0       5.191   4.065   4.679  0.00  0.00    +0.000 A 
ATOM     27  C   UNK A   0       6.270   4.683   4.061  0.00  0.00    +0.000 A 
ATOM     28  C   UNK A   0       6.700   4.202   2.821  0.00  0.00    +0.000 A 
ATOM     29  C   UNK A   0       6.027   3.158   2.180  0.00  0.00    +0.000 A 
BRANCH  27  30
ATOM     30  C   UNK A   0       7.019   5.792   4.705  0.00  0.00    +0.000 C 
ATOM     31  N   UNK A   0       6.594   6.247   5.922  0.00  0.00    +0.000 N 
ATOM     32  O   UNK A   0       8.013   6.285   4.174  0.00  0.00    +0.000 OA
ATOM     33  H   UNK A   0       5.807   5.884   6.436  0.00  0.00    +0.000 HD
ATOM     34  H   UNK A   0       7.130   6.989   6.351  0.00  0.00    +0.000 HD
ENDBRANCH  27  30
ENDBRANCH  23  24
BRANCH  23  35
ATOM     35  C   UNK A   0       5.440   0.384   1.128  0.00  0.00    +0.000 C 
ATOM     36  O   UNK A   0       6.657   0.547   1.307  0.00  0.00    +0.000 OA
ATOM     37  N   UNK A   0       5.134  -0.591   0.187  0.00  0.00    +0.000 N 
ATOM     38  H   UNK A   0       4.213  -0.590  -0.235  0.00  0.00    +0.000 HD
BRANCH  37  39
ATOM     39  C   UNK A   0       6.196  -1.546  -0.329  0.00  0.00    +0.000 C 
ATOM     40  C   UNK A   0       6.591  -2.749   0.540  0.00  0.00    +0.000 C 
ATOM     41  C   UNK A   0       5.741  -2.228  -1.580  0.00  0.00    +0.000 C 
ENDBRANCH  37  39
ENDBRANCH  23  35
ENDBRANCH   8  23
TORSDOF 8
