REMARK  Name = CHEMBL256391
REMARK  13 active torsions:
REMARK  status: ('A' for Active; 'I' for Inactive)
REMARK    1  A    between atoms: C_1  and  C_2
REMARK    2  A    between atoms: C_4  and  C_5
REMARK    3  A    between atoms: C_5  and  C_6
REMARK    4  A    between atoms: C_5  and  N_13
REMARK    5  A    between atoms: N_8  and  C_9
REMARK    6  A    between atoms: N_8  and  C_10
REMARK    7  A    between atoms: C_10  and  C_11
REMARK    8  A    between atoms: C_11  and  O_12
REMARK    9  A    between atoms: C_16  and  C_17
REMARK   10  A    between atoms: CA_29  and  CB_30
REMARK   11  A    between atoms: CB_30  and  CG_31
REMARK   12  A    between atoms: CG_31  and  CD1_32
REMARK   13  A    between atoms: CG_31  and  CD2_33
REMARK                            x       y       z     vdW  Elec       q    Type
REMARK                         _______ _______ _______ _____ _____    ______ ____
ROOT
ATOM      1  N   LEU A   1      -2.265   2.988   0.272  0.00  0.00    +0.000 N 
ATOM      2  C   UNK A   2      -1.892   3.762  -0.834  0.00  0.00    +0.000 C 
ATOM      3  O   UNK A   2      -2.131   3.439  -1.965  0.00  0.00    +0.000 OA
ATOM      4  C   UNK A   2      -1.270   5.151  -0.569  0.00  0.00    +0.000 C 
ATOM      5  N   UNK A   2      -2.311   5.852   0.099  0.00  0.00    +0.000 N 
ATOM      6  C   LEU A   1      -2.723   5.358   1.291  0.00  0.00    +0.000 C 
ATOM      7  O   LEU A   1      -3.239   6.139   2.075  0.00  0.00    +0.000 OA
ATOM      8  CA  LEU A   1      -2.500   3.810   1.506  0.00  0.00    +0.000 C 
ATOM      9  H   UNK A   2      -2.560   6.814  -0.094  0.00  0.00    +0.000 HD
ENDROOT
BRANCH   4  10
ATOM     10  C   UNK A   2      -0.894   5.879  -1.853  0.00  0.00    +0.000 C 
ATOM     11  C   UNK A   2       0.324   5.229  -2.538  0.00  0.00    +0.000 C 
ATOM     12  C   UNK A   2       0.104   5.633  -3.956  0.00  0.00    +0.000 A 
ATOM     13  C   UNK A   2       1.019   5.589  -4.989  0.00  0.00    +0.000 A 
ATOM     14  C   UNK A   2       0.612   6.039  -6.245  0.00  0.00    +0.000 A 
ATOM     15  C   UNK A   2      -0.705   6.477  -6.458  0.00  0.00    +0.000 A 
ATOM     16  C   UNK A   2      -1.635   6.472  -5.420  0.00  0.00    +0.000 A 
ATOM     17  C   UNK A   2      -1.209   6.069  -4.170  0.00  0.00    +0.000 A 
ATOM     18  C   UNK A   2      -2.023   5.985  -2.922  0.00  0.00    +0.000 C 
ENDBRANCH   4  10
BRANCH   1  19
ATOM     19  C   UNK A   0      -2.651   1.419   0.093  0.00  0.00    +0.000 C 
BRANCH  19  23
ATOM     20  C   UNK A   0      -6.313   0.740   3.635  0.00  0.00    +0.000 C 
ATOM     21  C   UNK A   0      -5.161   0.506   2.687  0.00  0.00    +0.000 A 
ATOM     22  N   UNK A   0      -4.937   0.834   1.412  0.00  0.00    +0.000 NA
ATOM     23  C   UNK A   0      -3.522   0.684   1.229  0.00  0.00    +0.000 A 
ATOM     24  C   UNK A   0      -3.090  -0.030   2.327  0.00  0.00    +0.000 A 
ATOM     25  O   UNK A   0      -4.064  -0.052   3.277  0.00  0.00    +0.000 OA
ENDBRANCH  19  23
BRANCH  19  26
ATOM     26  C   UNK A   0      -1.263   0.674  -0.051  0.00  0.00    +0.000 C 
ATOM     27  O   UNK A   0      -0.761   0.038   0.883  0.00  0.00    +0.000 OA
ATOM     28  N   UNK A   0      -0.511   0.833  -1.211  0.00  0.00    +0.000 N 
ATOM     29  C   UNK A   0      -1.023   1.350  -2.457  0.00  0.00    +0.000 C 
BRANCH  28  30
ATOM     30  C   UNK A   0       0.905   0.473  -1.182  0.00  0.00    +0.000 C 
BRANCH  30  31
ATOM     31  C   UNK A   0       1.698   0.969  -2.399  0.00  0.00    +0.000 C 
BRANCH  31  32
ATOM     32  O   UNK A   0       3.041   0.529  -2.378  0.00  0.00    +0.000 OA
ATOM     33  H   UNK A   0       3.459   0.933  -1.601  0.00  0.00    +0.000 HD
ENDBRANCH  31  32
ENDBRANCH  30  31
ENDBRANCH  28  30
ENDBRANCH  19  26
ENDBRANCH   1  19
BRANCH   8  34
ATOM     34  CB  LEU A   1      -3.782   3.346   2.143  0.00  0.00    +0.000 C 
BRANCH  34  35
ATOM     35  CG  LEU A   1      -5.069   4.154   2.038  0.00  0.00    +0.000 C 
ATOM     36  CD1 LEU A   1      -5.458   4.363   0.561  0.00  0.00    +0.000 C 
ATOM     37  CD2 LEU A   1      -6.245   3.455   2.644  0.00  0.00    +0.000 C 
ENDBRANCH  34  35
ENDBRANCH   8  34
TORSDOF 9
