REMARK  Name = CHEMBL24806
REMARK  9 active torsions:
REMARK  status: ('A' for Active; 'I' for Inactive)
REMARK    1  A    between atoms: C_1  and  C_2
REMARK    2  A    between atoms: N_4  and  C_5
REMARK    3  A    between atoms: C_7  and  C_8
REMARK    4  A    between atoms: N_20  and  C_21
REMARK    5  A    between atoms: C_21  and  C_22
REMARK    6  A    between atoms: N_24  and  C_25
REMARK    7  A    between atoms: C_25  and  C_26
REMARK    8  A    between atoms: C_25  and  C_35
REMARK    9  A    between atoms: C_26  and  C_27
REMARK                            x       y       z     vdW  Elec       q    Type
REMARK                         _______ _______ _______ _____ _____    ______ ____
ROOT
ATOM      1  C   UNL     1       4.537  -0.972   0.599  0.00  0.00    +0.000 C 
ATOM      2  N   UNL     1       4.945  -0.752   2.023  0.00  0.00    +0.000 NA
ATOM      3  C   UNL     1       6.198  -0.908   2.331  0.00  0.00    +0.000 C 
ATOM      4  C   UNL     1       7.167  -1.358   1.358  0.00  0.00    +0.000 A 
ATOM      5  C   UNL     1       8.078  -2.286   1.829  0.00  0.00    +0.000 A 
ATOM      6  C   UNL     1       8.937  -2.617   0.864  0.00  0.00    +0.000 A 
ATOM      7  C   UNL     1       8.701  -2.232  -0.522  0.00  0.00    +0.000 A 
ATOM      8  C   UNL     1       7.730  -1.442  -1.012  0.00  0.00    +0.000 A 
ATOM      9  C   UNL     1       7.111  -0.818   0.004  0.00  0.00    +0.000 A 
ATOM     10  N   UNL     1       6.426   0.385  -0.312  0.00  0.00    +0.000 N 
ATOM     11  C   UNL     1       5.092   0.117  -0.389  0.00  0.00    +0.000 C 
ATOM     12  O   UNL     1       4.512   0.588  -1.370  0.00  0.00    +0.000 OA
ENDROOT
BRANCH   3  13
ATOM     13  C   UNL     1       6.719  -0.715   3.721  0.00  0.00    +0.000 A 
ATOM     14  C   UNL     1       6.297  -1.597   4.712  0.00  0.00    +0.000 A 
ATOM     15  C   UNL     1       6.595  -1.319   6.043  0.00  0.00    +0.000 A 
ATOM     16  C   UNL     1       7.468  -0.280   6.364  0.00  0.00    +0.000 A 
ATOM     17  C   UNL     1       8.092   0.443   5.349  0.00  0.00    +0.000 A 
ATOM     18  C   UNL     1       7.683   0.262   4.023  0.00  0.00    +0.000 A 
ENDBRANCH   3  13
BRANCH   1  22
ATOM     19  C   UNL     1       0.889  -0.199   0.028  0.00  0.00    +0.000 C 
ATOM     20  C   UNL     1       2.341   0.036   0.114  0.00  0.00    +0.000 C 
ATOM     21  O   UNL     1       2.706   1.183  -0.127  0.00  0.00    +0.000 OA
ATOM     22  N   UNL     1       3.107  -1.049   0.485  0.00  0.00    +0.000 N 
ATOM     23  H   UNL     1       2.691  -1.820   0.981  0.00  0.00    +0.000 HD
ENDBRANCH   1  22
BRANCH  10  24
ATOM     24  C   UNL     1       6.838   1.407  -1.365  0.00  0.00    +0.000 C 
BRANCH  24  25
ATOM     25  C   UNL     1       8.332   1.574  -1.498  0.00  0.00    +0.000 C 
ATOM     26  O   UNL     1       8.974   0.917  -0.764  0.00  0.00    +0.000 OA
ATOM     27  N   UNL     1       8.945   2.423  -2.398  0.00  0.00    +0.000 N 
ATOM     28  H   UNL     1       8.401   3.189  -2.747  0.00  0.00    +0.000 HD
BRANCH  27  29
ATOM     29  C   UNL     1      10.453   2.480  -2.489  0.00  0.00    +0.000 C 
BRANCH  29  30
ATOM     30  C   UNL     1      10.968   3.685  -3.303  0.00  0.00    +0.000 C 
ATOM     31  N   UNL     1      10.040   4.560  -3.784  0.00  0.00    +0.000 N 
ATOM     32  O   UNL     1      12.162   3.898  -3.504  0.00  0.00    +0.000 OA
ATOM     33  H   UNL     1       9.048   4.494  -3.661  0.00  0.00    +0.000 HD
ATOM     34  H   UNL     1      10.378   5.345  -4.324  0.00  0.00    +0.000 HD
ENDBRANCH  29  30
BRANCH  29  35
ATOM     35  C   UNL     1      11.132   1.187  -3.102  0.00  0.00    +0.000 C 
BRANCH  35  36
ATOM     36  C   UNL     1      11.290  -0.058  -2.249  0.00  0.00    +0.000 A 
ATOM     37  C   UNL     1      11.680  -1.302  -2.754  0.00  0.00    +0.000 A 
ATOM     38  C   UNL     1      11.786  -2.440  -1.948  0.00  0.00    +0.000 A 
ATOM     39  C   UNL     1      11.446  -2.389  -0.597  0.00  0.00    +0.000 A 
ATOM     40 CL   UNL     1      10.796  -4.212  -0.354  0.00  0.00    +0.000 Cl
ATOM     41  C   UNL     1      11.180  -1.051  -0.012  0.00  0.00    +0.000 A 
ATOM     42 CL   UNL     1      10.531  -0.371   1.533  0.00  0.00    +0.000 Cl
ATOM     43  C   UNL     1      11.218   0.055  -0.873  0.00  0.00    +0.000 A 
ENDBRANCH  35  36
ENDBRANCH  29  35
ENDBRANCH  27  29
ENDBRANCH  24  25
ENDBRANCH  10  24
TORSDOF 8
