REMARK  Name = CHEMBL271456
REMARK  12 active torsions:
REMARK  status: ('A' for Active; 'I' for Inactive)
REMARK    1  A    between atoms: CD1_1  and  CG_2
REMARK    2  A    between atoms: CG_2  and  CD2_3
REMARK    3  A    between atoms: CG_2  and  CB_4
REMARK    4  A    between atoms: CB_4  and  CA_5
REMARK    5  A    between atoms: C_9  and  C_10
REMARK    6  A    between atoms: N_21  and  C_22
REMARK    7  A    between atoms: C_22  and  C_23
REMARK    8  A    between atoms: C_22  and  C_30
REMARK    9  A    between atoms: N_25  and  C_26
REMARK   10  A    between atoms: C_26  and  C_27
REMARK   11  A    between atoms: C_26  and  C_28
REMARK   12  A    between atoms: C_26  and  C_29
REMARK                            x       y       z     vdW  Elec       q    Type
REMARK                         _______ _______ _______ _____ _____    ______ ____
ROOT
ATOM      1  CA  LEU A   2       4.817   1.095   1.071  0.00  0.00    +0.000 C 
ATOM      2  C   LEU A   2       5.430   1.241  -0.358  0.00  0.00    +0.000 C 
ATOM      3  O   LEU A   2       5.125   2.064  -1.189  0.00  0.00    +0.000 OA
ATOM      4  N   UNK A   1       6.408   0.317  -0.592  0.00  0.00    +0.000 N 
ATOM      5  C   UNK A   1       7.257   0.110   0.540  0.00  0.00    +0.000 C 
ATOM      6  C   UNK A   1       6.460  -0.545   1.671  0.00  0.00    +0.000 C 
ATOM      7  O   UNK A   1       7.104  -1.263   2.451  0.00  0.00    +0.000 OA
ATOM      8  N   LEU A   2       5.111  -0.216   1.766  0.00  0.00    +0.000 N 
ATOM      9  H   UNK A   1       6.785   0.340  -1.533  0.00  0.00    +0.000 HD
ENDROOT
BRANCH   5  10
ATOM     10  C   UNK A   1       8.454  -0.797   0.269  0.00  0.00    +0.000 C 
ATOM     11  C   UNK A   1       9.372  -0.293  -0.847  0.00  0.00    +0.000 C 
ATOM     12  C   UNK A   1       8.867  -1.065  -2.024  0.00  0.00    +0.000 A 
ATOM     13  C   UNK A   1       9.102  -0.816  -3.362  0.00  0.00    +0.000 A 
ATOM     14  C   UNK A   1       8.502  -1.654  -4.304  0.00  0.00    +0.000 A 
ATOM     15  C   UNK A   1       7.686  -2.723  -3.902  0.00  0.00    +0.000 A 
ATOM     16  C   UNK A   1       7.465  -2.976  -2.549  0.00  0.00    +0.000 A 
ATOM     17  C   UNK A   1       8.070  -2.143  -1.625  0.00  0.00    +0.000 A 
ATOM     18  C   UNK A   1       7.987  -2.221  -0.137  0.00  0.00    +0.000 C 
ENDBRANCH   5  10
BRANCH   1  19
ATOM     19  CB  LEU A   2       3.377   1.330   0.854  0.00  0.00    +0.000 C 
BRANCH  19  21
ATOM     20  CD1 LEU A   2       1.465   0.790  -0.223  0.00  0.00    +0.000 C 
ATOM     21  CG  LEU A   2       2.883   0.389  -0.224  0.00  0.00    +0.000 C 
ATOM     22  CD2 LEU A   2       3.186   0.323  -1.731  0.00  0.00    +0.000 C 
ENDBRANCH  19  21
ENDBRANCH   1  19
BRANCH   8  23
ATOM     23  C   UNK A   0       4.113  -0.971   2.724  0.00  0.00    +0.000 C 
BRANCH  23  24
ATOM     24  C   UNK A   0       4.883  -1.948   3.649  0.00  0.00    +0.000 A 
ATOM     25  C   UNK A   0       5.902  -1.636   4.618  0.00  0.00    +0.000 A 
ATOM     26  C   UNK A   0       6.517  -2.826   4.943  0.00  0.00    +0.000 A 
ATOM     27  O   UNK A   0       5.857  -3.867   4.393  0.00  0.00    +0.000 OA
ATOM     28  C   UNK A   0       4.874  -3.337   3.632  0.00  0.00    +0.000 A 
ENDBRANCH  23  24
BRANCH  23  29
ATOM     29  C   UNK A   0       2.858  -1.830   2.038  0.00  0.00    +0.000 C 
ATOM     30  O   UNK A   0       2.920  -3.052   1.846  0.00  0.00    +0.000 OA
ATOM     31  N   UNK A   0       1.722  -1.154   1.574  0.00  0.00    +0.000 N 
ATOM     32  H   UNK A   0       1.581  -0.267   2.034  0.00  0.00    +0.000 HD
BRANCH  31  33
ATOM     33  C   UNK A   0       0.631  -1.724   0.545  0.00  0.00    +0.000 C 
ATOM     34  C   UNK A   0       1.351  -2.616  -0.512  0.00  0.00    +0.000 C 
ATOM     35  C   UNK A   0      -0.271  -2.442   1.508  0.00  0.00    +0.000 C 
ATOM     36  C   UNK A   0      -0.566  -0.778  -0.291  0.00  0.00    +0.000 C 
ENDBRANCH  31  33
ENDBRANCH  23  29
ENDBRANCH   8  23
TORSDOF 7
