REMARK  Name = CHEMBL257660
REMARK  11 active torsions:
REMARK  status: ('A' for Active; 'I' for Inactive)
REMARK    1  A    between atoms: CD1_1  and  CG_2
REMARK    2  A    between atoms: CG_2  and  CD2_3
REMARK    3  A    between atoms: CG_2  and  CB_4
REMARK    4  A    between atoms: CB_4  and  CA_5
REMARK    5  A    between atoms: C_9  and  C_10
REMARK    6  A    between atoms: N_21  and  C_22
REMARK    7  A    between atoms: C_22  and  C_23
REMARK    8  A    between atoms: C_22  and  C_29
REMARK    9  A    between atoms: N_25  and  C_26
REMARK   10  A    between atoms: C_26  and  C_27
REMARK   11  A    between atoms: C_26  and  C_28
REMARK                            x       y       z     vdW  Elec       q    Type
REMARK                         _______ _______ _______ _____ _____    ______ ____
ROOT
ATOM      1  CA  LEU A   2       4.719  -0.083   1.320  0.00  0.00    +0.000 C 
ATOM      2  C   LEU A   2       5.104  -1.390   2.022  0.00  0.00    +0.000 C 
ATOM      3  O   LEU A   2       4.453  -2.412   2.080  0.00  0.00    +0.000 OA
ATOM      4  N   UNK A   1       6.372  -1.348   2.501  0.00  0.00    +0.000 N 
ATOM      5  C   UNK A   1       7.251  -0.215   2.290  0.00  0.00    +0.000 C 
ATOM      6  C   UNK A   1       6.495   1.096   2.557  0.00  0.00    +0.000 C 
ATOM      7  O   UNK A   1       7.119   2.032   3.012  0.00  0.00    +0.000 OA
ATOM      8  N   LEU A   2       5.144   1.093   2.185  0.00  0.00    +0.000 N 
ATOM      9  H   UNK A   1       6.685  -2.227   2.893  0.00  0.00    +0.000 HD
ENDROOT
BRANCH   5  10
ATOM     10  C   UNK A   1       8.452  -0.219   3.262  0.00  0.00    +0.000 C 
ATOM     11  C   UNK A   1       9.329  -1.458   3.050  0.00  0.00    +0.000 C 
ATOM     12  C   UNK A   1       8.693  -2.421   4.005  0.00  0.00    +0.000 A 
ATOM     13  C   UNK A   1       8.700  -3.800   3.935  0.00  0.00    +0.000 A 
ATOM     14  C   UNK A   1       7.917  -4.509   4.846  0.00  0.00    +0.000 A 
ATOM     15  C   UNK A   1       7.133  -3.838   5.800  0.00  0.00    +0.000 A 
ATOM     16  C   UNK A   1       7.118  -2.444   5.858  0.00  0.00    +0.000 A 
ATOM     17  C   UNK A   1       7.911  -1.750   4.960  0.00  0.00    +0.000 A 
ATOM     18  C   UNK A   1       7.970  -0.270   4.741  0.00  0.00    +0.000 C 
ENDBRANCH   5  10
BRANCH   1  19
ATOM     19  CB  LEU A   2       3.253  -0.155   1.041  0.00  0.00    +0.000 C 
BRANCH  19  21
ATOM     20  CD1 LEU A   2       1.110  -0.119  -0.177  0.00  0.00    +0.000 C 
ATOM     21  CG  LEU A   2       2.644  -0.133  -0.330  0.00  0.00    +0.000 C 
ATOM     22  CD2 LEU A   2       3.087   1.178  -0.977  0.00  0.00    +0.000 C 
ENDBRANCH  19  21
ENDBRANCH   1  19
BRANCH   8  23
ATOM     23  C   UNK A   0       4.185   2.211   2.618  0.00  0.00    +0.000 C 
BRANCH  23  24
ATOM     24  C   UNK A   0       4.886   3.398   3.349  0.00  0.00    +0.000 A 
ATOM     25  C   UNK A   0       4.773   3.774   4.677  0.00  0.00    +0.000 A 
ATOM     26  C   UNK A   0       5.709   4.720   5.106  0.00  0.00    +0.000 A 
ATOM     27 BR   UNK A   0       5.732   5.231   6.919  0.00  0.00    +0.000 Br
ATOM     28  C   UNK A   0       6.540   5.129   4.103  0.00  0.00    +0.000 A 
ATOM     29  S   UNK A   0       5.966   4.540   2.575  0.00  0.00    +0.000 S 
ENDBRANCH  23  24
BRANCH  23  30
ATOM     30  C   UNK A   0       2.959   1.659   3.600  0.00  0.00    +0.000 C 
ATOM     31  O   UNK A   0       2.777   2.034   4.758  0.00  0.00    +0.000 OA
ATOM     32  N   UNK A   0       2.020   0.753   3.152  0.00  0.00    +0.000 N 
ATOM     33  H   UNK A   0       1.682   0.819   2.214  0.00  0.00    +0.000 HD
BRANCH  32  34
ATOM     34  C   UNK A   0       0.940   0.221   3.953  0.00  0.00    +0.000 C 
ATOM     35  C   UNK A   0      -0.029   1.365   4.202  0.00  0.00    +0.000 C 
ATOM     36  C   UNK A   0       0.234  -0.887   3.161  0.00  0.00    +0.000 C 
ENDBRANCH  32  34
ENDBRANCH  23  30
ENDBRANCH   8  23
TORSDOF 7
