REMARK  Name = CHEMBL458872
REMARK  11 active torsions:
REMARK  status: ('A' for Active; 'I' for Inactive)
REMARK    1  A    between atoms: C_1  and  O_2
REMARK    2  A    between atoms: O_2  and  C_3
REMARK    3  A    between atoms: C_6  and  N_7
REMARK    4  A    between atoms: N_7  and  C_8
REMARK    5  A    between atoms: N_7  and  S_22
REMARK    6  A    between atoms: C_8  and  C_9
REMARK    7  A    between atoms: C_12  and  C_13
REMARK    8  A    between atoms: C_18  and  C_19
REMARK    9  A    between atoms: S_22  and  C_25
REMARK   10  A    between atoms: C_29  and  S_30
REMARK   11  A    between atoms: S_30  and  C_31
REMARK                            x       y       z     vdW  Elec       q    Type
REMARK                         _______ _______ _______ _____ _____    ______ ____
ROOT
ATOM      1  N   UNL     1       5.558  -3.272   3.076  0.00  0.00    +0.000 N 
ENDROOT
BRANCH   1   5
ATOM      2  C   UNL     1       2.980  -0.912   0.617  0.00  0.00    +0.000 A 
ATOM      3  C   UNL     1       2.670  -2.253   0.795  0.00  0.00    +0.000 A 
ATOM      4  C   UNL     1       3.496  -3.069   1.604  0.00  0.00    +0.000 A 
ATOM      5  C   UNL     1       4.591  -2.526   2.259  0.00  0.00    +0.000 A 
ATOM      6  C   UNL     1       4.641  -1.147   2.116  0.00  0.00    +0.000 A 
ATOM      7  N   UNL     1       3.957  -0.334   1.286  0.00  0.00    +0.000 NA
BRANCH   2   9
ATOM      8  C   UNL     1       0.974  -0.029  -0.108  0.00  0.00    +0.000 C 
ATOM      9  O   UNL     1       2.379  -0.061  -0.249  0.00  0.00    +0.000 OA
ENDBRANCH   2   9
ENDBRANCH   1   5
BRANCH   1  10
ATOM     10  S   UNL     1       5.286  -4.949   3.363  0.00  0.00    +0.000 S 
ATOM     11  O   UNL     1       4.045  -5.040   4.114  0.00  0.00    +0.000 OA
ATOM     12  O   UNL     1       5.411  -5.639   2.096  0.00  0.00    +0.000 OA
BRANCH  10  13
ATOM     13  C   UNL     1       6.507  -5.715   4.456  0.00  0.00    +0.000 A 
ATOM     14  C   UNL     1       6.532  -7.108   4.585  0.00  0.00    +0.000 A 
ATOM     15  C   UNL     1       7.349  -7.710   5.568  0.00  0.00    +0.000 A 
ATOM     16  C   UNL     1       8.206  -6.945   6.374  0.00  0.00    +0.000 A 
ATOM     17  C   UNL     1       8.193  -5.574   6.226  0.00  0.00    +0.000 A 
ATOM     18  C   UNL     1       7.347  -4.994   5.289  0.00  0.00    +0.000 A 
BRANCH  17  19
ATOM     19  S   UNL     1       9.198  -4.461   7.194  0.00  0.00    +0.000 S 
ATOM     20  C   UNL     1       8.679  -4.711   8.865  0.00  0.00    +0.000 C 
ATOM     21  O   UNL     1      10.574  -4.907   7.046  0.00  0.00    +0.000 OA
ATOM     22  O   UNL     1       8.818  -3.110   6.834  0.00  0.00    +0.000 OA
ENDBRANCH  17  19
ENDBRANCH  10  13
ENDBRANCH   1  10
BRANCH   1  23
ATOM     23  C   UNL     1       6.816  -2.652   3.586  0.00  0.00    +0.000 C 
BRANCH  23  24
ATOM     24  C   UNL     1       7.241  -1.224   3.326  0.00  0.00    +0.000 A 
ATOM     25  C   UNL     1       7.008  -0.277   4.338  0.00  0.00    +0.000 A 
ATOM     26  C   UNL     1       6.892   1.053   3.970  0.00  0.00    +0.000 A 
ATOM     27  C   UNL     1       7.049   1.421   2.627  0.00  0.00    +0.000 A 
ATOM     28  C   UNL     1       7.362   0.415   1.713  0.00  0.00    +0.000 A 
ATOM     29  N   UNL     1       7.509  -0.891   2.041  0.00  0.00    +0.000 NA
BRANCH  27  30
ATOM     30  C   UNL     1       6.966   2.819   2.215  0.00  0.00    +0.000 A 
ATOM     31  C   UNL     1       5.966   3.261   1.329  0.00  0.00    +0.000 A 
ATOM     32  C   UNL     1       5.943   4.589   0.900  0.00  0.00    +0.000 A 
ATOM     33  C   UNL     1       6.906   5.484   1.357  0.00  0.00    +0.000 A 
ATOM     34  C   UNL     1       7.896   5.060   2.242  0.00  0.00    +0.000 A 
ATOM     35  C   UNL     1       7.939   3.732   2.676  0.00  0.00    +0.000 A 
ATOM     36  C   UNL     1       9.046   3.283   3.596  0.00  0.00    +0.000 C 
ENDBRANCH  27  30
ENDBRANCH  23  24
ENDBRANCH   1  23
TORSDOF 8
