REMARK  Name = CHEMBL1092459
REMARK  10 active torsions:
REMARK  status: ('A' for Active; 'I' for Inactive)
REMARK    1  A    between atoms: C_1  and  O_2
REMARK    2  A    between atoms: O_2  and  C_3
REMARK    3  A    between atoms: C_6  and  N_7
REMARK    4  A    between atoms: N_7  and  C_24
REMARK    5  A    between atoms: C_8  and  C_10
REMARK    6  A    between atoms: C_13  and  C_14
REMARK    7  A    between atoms: C_18  and  C_19
REMARK    8  A    between atoms: C_20  and  C_21
REMARK    9  A    between atoms: C_24  and  C_25
REMARK   10  A    between atoms: C_24  and  C_26
REMARK                            x       y       z     vdW  Elec       q    Type
REMARK                         _______ _______ _______ _____ _____    ______ ____
ROOT
ATOM      1  N   UNL     1       5.258   4.725   1.075  0.00  0.00    +0.000 N 
ATOM      2  C   UNL     1       6.348   5.146   0.243  0.00  0.00    +0.000 C 
ATOM      3  O   UNL     1       7.074   6.124   0.475  0.00  0.00    +0.000 OA
ENDROOT
BRANCH   1   7
ATOM      4  C   UNL     1       3.027   1.161   0.305  0.00  0.00    +0.000 A 
ATOM      5  C   UNL     1       2.584   2.018   1.293  0.00  0.00    +0.000 A 
ATOM      6  C   UNL     1       3.284   3.213   1.528  0.00  0.00    +0.000 A 
ATOM      7  C   UNL     1       4.495   3.485   0.881  0.00  0.00    +0.000 A 
ATOM      8  C   UNL     1       4.917   2.433   0.070  0.00  0.00    +0.000 A 
ATOM      9  N   UNL     1       4.195   1.351  -0.304  0.00  0.00    +0.000 NA
BRANCH   4  11
ATOM     10  C   UNL     1       1.004   0.058  -0.079  0.00  0.00    +0.000 C 
ATOM     11  O   UNL     1       2.420  -0.006  -0.043  0.00  0.00    +0.000 OA
ENDBRANCH   4  11
ENDBRANCH   1   7
BRANCH   2  12
ATOM     12  C   UNL     1       6.719   4.496  -1.026  0.00  0.00    +0.000 A 
ATOM     13  C   UNL     1       5.772   4.184  -1.987  0.00  0.00    +0.000 A 
ATOM     14  N   UNL     1       6.076   3.447  -3.077  0.00  0.00    +0.000 NA
ATOM     15  C   UNL     1       7.383   3.103  -3.221  0.00  0.00    +0.000 A 
ATOM     16  C   UNL     1       8.345   3.534  -2.314  0.00  0.00    +0.000 A 
ATOM     17  N   UNL     1       8.038   4.200  -1.183  0.00  0.00    +0.000 NA
BRANCH  15  18
ATOM     18  C   UNL     1       7.699   2.275  -4.384  0.00  0.00    +0.000 A 
ATOM     19  C   UNL     1       7.312   2.750  -5.649  0.00  0.00    +0.000 A 
ATOM     20  C   UNL     1       7.567   2.017  -6.799  0.00  0.00    +0.000 A 
ATOM     21  C   UNL     1       8.185   0.775  -6.699  0.00  0.00    +0.000 A 
ATOM     22  C   UNL     1       8.569   0.257  -5.452  0.00  0.00    +0.000 A 
ATOM     23  C   UNL     1       9.198  -1.108  -5.398  0.00  0.00    +0.000 C 
ATOM     24  C   UNL     1       8.345   1.014  -4.280  0.00  0.00    +0.000 A 
ATOM     25  C   UNL     1       8.765   0.486  -2.925  0.00  0.00    +0.000 C 
ENDBRANCH  15  18
ENDBRANCH   2  12
BRANCH   1  26
ATOM     26  C   UNL     1       4.846   5.615   2.226  0.00  0.00    +0.000 C 
ATOM     27  C   UNL     1       4.941   4.905   3.590  0.00  0.00    +0.000 C 
ATOM     28  C   UNL     1       5.635   6.929   2.391  0.00  0.00    +0.000 C 
ENDBRANCH   1  26
TORSDOF 5
