REMARK  Name = CHEMBL284688
REMARK  8 active torsions:
REMARK  status: ('A' for Active; 'I' for Inactive)
REMARK    1  A    between atoms: C_1  and  C_2
REMARK    2  A    between atoms: C_2  and  C_3
REMARK    3  A    between atoms: N_7  and  C_8
REMARK    4  A    between atoms: C_8  and  C_9
REMARK    5  A    between atoms: N_11  and  C_12
REMARK    6  A    between atoms: C_12  and  C_13
REMARK    7  A    between atoms: C_17  and  C_18
REMARK    8  A    between atoms: C_23  and  N_24
REMARK                            x       y       z     vdW  Elec       q    Type
REMARK                         _______ _______ _______ _____ _____    ______ ____
ROOT
ATOM      1  C   UNL     1       5.634  -6.498   3.755  0.00  0.00    +0.000 A 
ATOM      2  C   UNL     1       5.460  -7.867   3.827  0.00  0.00    +0.000 A 
ATOM      3  C   UNL     1       6.431  -8.360   4.727  0.00  0.00    +0.000 A 
ATOM      4  C   UNL     1       6.775  -9.631   5.230  0.00  0.00    +0.000 A 
ATOM      5  C   UNL     1       7.848  -9.748   6.132  0.00  0.00    +0.000 A 
ATOM      6  C   UNL     1       8.574  -8.597   6.484  0.00  0.00    +0.000 A 
ATOM      7  C   UNL     1       8.225  -7.318   6.023  0.00  0.00    +0.000 A 
ATOM      8  C   UNL     1       7.153  -7.246   5.142  0.00  0.00    +0.000 A 
ATOM      9  O   UNL     1       6.666  -6.108   4.558  0.00  0.00    +0.000 OA
ENDROOT
BRANCH   5  10
ATOM     10  C   UNL     1       8.238 -11.123   6.605  0.00  0.00    +0.000 C 
ATOM     11  O   UNL     1       7.699 -12.119   6.130  0.00  0.00    +0.000 OA
ATOM     12  N   UNL     1       9.283 -11.221   7.509  0.00  0.00    +0.000 N 
ATOM     13  C   UNL     1      10.419 -12.088   7.211  0.00  0.00    +0.000 C 
ATOM     14  C   UNL     1      10.639 -13.121   8.300  0.00  0.00    +0.000 C 
ATOM     15  C   UNL     1      10.732 -12.458   9.692  0.00  0.00    +0.000 C 
ATOM     16  C   UNL     1       9.478 -11.607   9.944  0.00  0.00    +0.000 C 
ATOM     17  C   UNL     1       9.212 -10.607   8.831  0.00  0.00    +0.000 C 
BRANCH  15  18
ATOM     18  N   UNL     1      12.048 -11.771   9.922  0.00  0.00    +0.000 N 
ATOM     19  C   UNL     1      12.526 -10.715   9.145  0.00  0.00    +0.000 C 
ATOM     20  O   UNL     1      11.928  -9.707   8.784  0.00  0.00    +0.000 OA
ATOM     21  O   UNL     1      13.791 -10.907   8.702  0.00  0.00    +0.000 OA
ATOM     22  C   UNL     1      14.694 -10.818   9.781  0.00  0.00    +0.000 C 
ATOM     23  C   UNL     1      14.268 -11.716  10.899  0.00  0.00    +0.000 A 
ATOM     24  C   UNL     1      15.188 -12.022  11.904  0.00  0.00    +0.000 A 
ATOM     25  C   UNL     1      14.806 -12.830  12.963  0.00  0.00    +0.000 A 
ATOM     26  C   UNL     1      13.505 -13.324  13.024  0.00  0.00    +0.000 A 
ATOM     27  C   UNL     1      12.578 -13.020  12.020  0.00  0.00    +0.000 A 
ATOM     28  C   UNL     1      12.950 -12.213  10.942  0.00  0.00    +0.000 A 
ENDBRANCH  15  18
ENDBRANCH   5  10
BRANCH   1  29
ATOM     29  C   UNL     1       4.865  -5.501   2.983  0.00  0.00    +0.000 C 
BRANCH  29  32
ATOM     30  C   UNL     1       4.613  -3.239   2.279  0.00  0.00    +0.000 C 
ATOM     31  O   UNL     1       3.622  -3.708   1.728  0.00  0.00    +0.000 OA
ATOM     32  N   UNL     1       5.366  -4.136   3.010  0.00  0.00    +0.000 N 
ATOM     33  H   UNL     1       6.189  -3.905   3.548  0.00  0.00    +0.000 HD
BRANCH  30  34
ATOM     34  C   UNL     1       5.012  -1.743   2.193  0.00  0.00    +0.000 C 
BRANCH  34  41
ATOM     35  C   UNL     1       0.915   0.121   0.116  0.00  0.00    +0.000 C 
ATOM     36  C   UNL     1       2.434   0.125   0.066  0.00  0.00    +0.000 C 
ATOM     37  C   UNL     1       2.908   0.204  -1.388  0.00  0.00    +0.000 C 
ATOM     38  N   UNL     1       3.102   1.078   0.900  0.00  0.00    +0.000 N 
ATOM     39  C   UNL     1       4.282   0.529   1.388  0.00  0.00    +0.000 C 
ATOM     40  O   UNL     1       5.246   1.191   1.734  0.00  0.00    +0.000 OA
ATOM     41  N   UNL     1       4.138  -0.837   1.400  0.00  0.00    +0.000 N 
ATOM     42  C   UNL     1       3.002  -1.139   0.686  0.00  0.00    +0.000 C 
ATOM     43  O   UNL     1       2.470  -2.207   0.432  0.00  0.00    +0.000 OA
ATOM     44  H   UNL     1       2.902   2.068   0.940  0.00  0.00    +0.000 HD
ENDBRANCH  34  41
ENDBRANCH  30  34
ENDBRANCH  29  32
ENDBRANCH   1  29
TORSDOF 6
