REMARK  Name = CHEMBL1790722
REMARK  23 active torsions:
REMARK  status: ('A' for Active; 'I' for Inactive)
REMARK    1  A    between atoms: C_1  and  C_2
REMARK    2  A    between atoms: C_2  and  C_3
REMARK    3  A    between atoms: C_3  and  C_4
REMARK    4  A    between atoms: C_3  and  C_5
REMARK    5  A    between atoms: C_9  and  C_10
REMARK    6  A    between atoms: C_13  and  O_14
REMARK    7  A    between atoms: C_30  and  C_31
REMARK    8  A    between atoms: CA_37  and  C_38
REMARK    9  A    between atoms: N_40  and  C_41
REMARK   10  A    between atoms: C_41  and  C_42
REMARK   11  A    between atoms: C_41  and  C_73
REMARK   12  A    between atoms: C_42  and  C_43
REMARK   13  A    between atoms: C_43  and  C_44
REMARK   14  A    between atoms: C_44  and  N_45
REMARK   15  A    between atoms: C_46  and  C_48
REMARK   16  A    between atoms: C_61  and  O_62
REMARK   17  A    between atoms: C_68  and  O_69
REMARK   18  A    between atoms: C_73  and  O_75
REMARK   19  A    between atoms: CA_79  and  CB_80
REMARK   20  A    between atoms: CB_80  and  CG_81
REMARK   21  A    between atoms: CA_87  and  CB_88
REMARK   22  A    between atoms: CB_88  and  CG2_89
REMARK   23  A    between atoms: CB_88  and  OG1_90
REMARK                            x       y       z     vdW  Elec       q    Type
REMARK                         _______ _______ _______ _____ _____    ______ ____
ROOT
ATOM      1  C   UNK A   1       5.385   3.951  -0.555  0.00  0.00    +0.000 C 
ATOM      2  N   UNK A   1       5.928   6.100  -0.974  0.00  0.00    +0.000 N 
ATOM      3  C   UNK A   1       5.058   7.856  -0.828  0.00  0.00    +0.000 C 
ATOM      4  O   UNK A   1       4.528   8.950  -0.025  0.00  0.00    +0.000 OA
ATOM      5  C   UNK A   1       5.792   7.417   0.088  0.00  0.00    +0.000 C 
ATOM      6  N   UNK A   1       5.638   8.278   1.248  0.00  0.00    +0.000 N 
ATOM      7  C   UNK A   0       4.522   8.649   2.055  0.00  0.00    +0.000 C 
ATOM      8  O   UNK A   0       4.820   8.777   3.235  0.00  0.00    +0.000 OA
ATOM      9  C   UNK A   0       2.856   8.852   1.619  0.00  0.00    +0.000 C 
ATOM     10  C   UNK A   4       2.438   9.108   0.119  0.00  0.00    +0.000 C 
ATOM     11  C   UNK A   4       2.766   7.775  -0.208  0.00  0.00    +0.000 C 
ATOM     12  C   UNK A   4       2.824   7.880  -1.888  0.00  0.00    +0.000 C 
ATOM     13  C   UNK A   4       3.799   8.640  -2.811  0.00  0.00    +0.000 C 
ATOM     14  C   UNK A   4       3.254   9.917  -2.515  0.00  0.00    +0.000 C 
ATOM     15  C   UNK A   4       3.418  10.105  -1.063  0.00  0.00    +0.000 C 
ATOM     16  S   UNK A   4       0.805   9.375  -0.389  0.00  0.00    +0.000 S 
ATOM     17  S   UNK A   4       0.635   7.431  -0.942  0.00  0.00    +0.000 S 
ATOM     18  C   UNK A   4      -1.951   6.664  -1.156  0.00  0.00    +0.000 C 
ATOM     19  C   UNK A   4      -2.304   5.295  -0.879  0.00  0.00    +0.000 C 
ATOM     20  N   UNK A   4      -1.597   4.469  -1.765  0.00  0.00    +0.000 N 
ATOM     21  C   ASN A   3      -0.427   3.909  -1.394  0.00  0.00    +0.000 C 
ATOM     22  O   ASN A   3      -0.051   2.934  -2.158  0.00  0.00    +0.000 OA
ATOM     23  CA  ASN A   3       0.456   4.795  -0.246  0.00  0.00    +0.000 C 
ATOM     24  N   ASN A   3       1.143   3.652   0.478  0.00  0.00    +0.000 N 
ATOM     25  C   THR A   2       2.344   2.723  -0.219  0.00  0.00    +0.000 C 
ATOM     26  O   THR A   2       2.872   2.023   0.639  0.00  0.00    +0.000 OA
ATOM     27  CA  THR A   2       2.933   2.971  -2.150  0.00  0.00    +0.000 C 
ATOM     28  N   THR A   2       4.417   3.180  -2.530  0.00  0.00    +0.000 N 
ATOM     29  C   UNK A   1       5.517   3.135  -1.727  0.00  0.00    +0.000 C 
ATOM     30  O   UNK A   1       6.607   2.601  -1.806  0.00  0.00    +0.000 OA
ATOM     31  H   UNK A   1       5.572   7.130  -1.791  0.00  0.00    +0.000 HD
ATOM     32  H   UNK A   1       6.572   8.563   1.306  0.00  0.00    +0.000 HD
ATOM     33  H   UNK A   4      -2.027   4.192  -2.622  0.00  0.00    +0.000 HD
ATOM     34  H   ASN A   3       1.131   3.857   1.472  0.00  0.00    +0.000 HD
ATOM     35  H   THR A   2       4.538   4.179  -2.564  0.00  0.00    +0.000 HD
ENDROOT
BRANCH  19  36
ATOM     36  C   UNK A   4      -2.421   4.847   0.631  0.00  0.00    +0.000 C 
ATOM     37  O   UNK A   4      -2.326   5.610   1.613  0.00  0.00    +0.000 OA
ATOM     38  N   PRO A   5      -2.384   3.477   0.835  0.00  0.00    +0.000 N 
ATOM     39  CD  PRO A   5      -1.857   2.373   0.045  0.00  0.00    +0.000 C 
ATOM     40  CG  PRO A   5      -3.010   1.463  -0.089  0.00  0.00    +0.000 C 
ATOM     41  CB  PRO A   5      -3.549   1.527   1.334  0.00  0.00    +0.000 C 
ATOM     42  CA  PRO A   5      -3.240   2.957   1.876  0.00  0.00    +0.000 C 
BRANCH  42  43
ATOM     43  C   PRO A   5      -4.513   3.800   1.926  0.00  0.00    +0.000 C 
ATOM     44  O   PRO A   5      -5.031   4.038   0.825  0.00  0.00    +0.000 OA
ATOM     45  N   UNK A   6      -5.080   4.160   3.146  0.00  0.00    +0.000 N 
ATOM     46  H   UNK A   6      -4.534   4.221   4.010  0.00  0.00    +0.000 HD
BRANCH  45  47
ATOM     47  C   UNK A   6      -6.517   4.570   3.277  0.00  0.00    +0.000 C 
BRANCH  47  48
ATOM     48  C   UNK A   6      -6.860   4.985   4.730  0.00  0.00    +0.000 C 
ATOM     49  O   UNK A   6      -6.010   4.963   5.615  0.00  0.00    +0.000 OA
BRANCH  48  50
ATOM     50  O   UNK A   6      -8.132   5.369   5.005  0.00  0.00    +0.000 OA
ATOM     51  H   UNK A   6      -8.823   5.394   4.314  0.00  0.00    +0.000 HD
ENDBRANCH  48  50
ENDBRANCH  47  48
BRANCH  47  52
ATOM     52  C   UNK A   6      -7.404   3.388   2.873  0.00  0.00    +0.000 C 
BRANCH  52  53
ATOM     53  C   UNK A   6      -7.141   2.937   1.448  0.00  0.00    +0.000 C 
BRANCH  53  54
ATOM     54  C   UNK A   6      -7.925   1.756   0.975  0.00  0.00    +0.000 C 
BRANCH  54  55
ATOM     55  N   UNK A   6      -7.564   1.341  -0.423  0.00  0.00    +0.000 N 
ATOM     56  C   UNK A   6      -8.228   0.259  -1.045  0.00  0.00    +0.000 C 
ATOM     57  O   UNK A   6      -9.071  -0.332  -0.351  0.00  0.00    +0.000 OA
ATOM     58  H   UNK A   6      -6.849   1.889  -0.877  0.00  0.00    +0.000 HD
BRANCH  56  59
ATOM     59  C   UNK A   6      -8.175  -0.276  -2.537  0.00  0.00    +0.000 A 
ATOM     60  C   UNK A   6      -8.704  -1.432  -2.775  0.00  0.00    +0.000 A 
ATOM     61  C   UNK A   6      -8.208  -2.277  -3.857  0.00  0.00    +0.000 A 
ATOM     62  C   UNK A   6      -9.106  -2.677  -4.635  0.00  0.00    +0.000 A 
ATOM     63  C   UNK A   6      -8.627  -1.666  -5.231  0.00  0.00    +0.000 A 
ATOM     64  C   UNK A   6      -7.981  -0.302  -3.937  0.00  0.00    +0.000 A 
ATOM     65  C   UNK A   6      -8.593  -3.385  -6.350  0.00  0.00    +0.000 C 
ATOM     66  O   UNK A   6     -10.165  -3.620  -6.041  0.00  0.00    +0.000 OA
ATOM     67  C   UNK A   6     -10.119  -3.590  -4.686  0.00  0.00    +0.000 C 
ATOM     68  O   UNK A   6     -10.641  -3.493  -3.588  0.00  0.00    +0.000 OA
ATOM     69  C   UNK A   6      -8.672  -4.215  -8.105  0.00  0.00    +0.000 A 
ATOM     70  C   UNK A   6      -8.509  -5.613  -8.733  0.00  0.00    +0.000 A 
ATOM     71  C   UNK A   6      -8.075  -5.875 -10.149  0.00  0.00    +0.000 A 
ATOM     72  C   UNK A   6      -7.842  -4.794 -10.985  0.00  0.00    +0.000 A 
ATOM     73  C   UNK A   6      -8.086  -3.523 -10.480  0.00  0.00    +0.000 A 
ATOM     74  C   UNK A   6      -8.536  -3.288  -9.141  0.00  0.00    +0.000 A 
ATOM     75  O   UNK A   6      -8.825  -2.000  -8.804  0.00  0.00    +0.000 OA
ATOM     76  C   UNK A   6      -8.072  -1.552  -7.765  0.00  0.00    +0.000 A 
ATOM     77  C   UNK A   6      -8.313  -0.242  -7.306  0.00  0.00    +0.000 A 
ATOM     78  C   UNK A   6      -7.509   0.353  -6.338  0.00  0.00    +0.000 A 
ATOM     79  C   UNK A   6      -6.326  -0.388  -5.926  0.00  0.00    +0.000 A 
ATOM     80  C   UNK A   6      -6.230  -1.880  -6.224  0.00  0.00    +0.000 A 
ATOM     81  C   UNK A   6      -7.331  -2.445  -6.995  0.00  0.00    +0.000 A 
BRANCH  78  82
ATOM     82  O   UNK A   6      -7.962   1.472  -5.639  0.00  0.00    +0.000 OA
ATOM     83  H   UNK A   6      -8.694   1.939  -6.085  0.00  0.00    +0.000 HD
ENDBRANCH  78  82
BRANCH  72  84
ATOM     84  O   UNK A   6      -7.403  -4.852 -12.279  0.00  0.00    +0.000 OA
ATOM     85  H   UNK A   6      -7.267  -5.756 -12.608  0.00  0.00    +0.000 HD
ENDBRANCH  72  84
ENDBRANCH  56  59
ENDBRANCH  54  55
ENDBRANCH  53  54
ENDBRANCH  52  53
ENDBRANCH  47  52
ENDBRANCH  45  47
ENDBRANCH  42  43
ENDBRANCH  19  36
BRANCH   5  86
ATOM     86  C   UNK A   1       4.292   6.404  -0.684  0.00  0.00    +0.000 A 
ATOM     87  C   UNK A   1       4.461   6.225  -2.529  0.00  0.00    +0.000 A 
ATOM     88  C   UNK A   1       3.453   5.640  -2.909  0.00  0.00    +0.000 A 
ATOM     89  C   UNK A   1       2.932   4.953  -1.487  0.00  0.00    +0.000 A 
ATOM     90  C   UNK A   1       3.212   4.977  -0.076  0.00  0.00    +0.000 A 
ATOM     91  C   UNK A   1       4.073   5.707   0.466  0.00  0.00    +0.000 A 
BRANCH  89  92
ATOM     92  O   UNK A   1       1.650   3.966  -1.476  0.00  0.00    +0.000 OA
ATOM     93  H   UNK A   1       1.246   3.292  -2.196  0.00  0.00    +0.000 HD
ENDBRANCH  89  92
ENDBRANCH   5  86
BRANCH   1  94
ATOM     94  C   UNK A   1       5.226   1.832  -0.166  0.00  0.00    +0.000 C 
ATOM     95  C   UNK A   1       6.412   0.991   0.502  0.00  0.00    +0.000 C 
BRANCH  94  97
ATOM     96  C   UNK A   1       4.033  -0.250   2.013  0.00  0.00    +0.000 C 
ATOM     97  C   UNK A   1       4.492  -0.050   0.517  0.00  0.00    +0.000 C 
ENDBRANCH  94  97
ENDBRANCH   1  94
BRANCH  27  98
ATOM     98  CB  THR A   2       1.812   4.415  -3.196  0.00  0.00    +0.000 C 
ATOM     99  CG2 THR A   2       2.317   4.308  -4.488  0.00  0.00    +0.000 C 
BRANCH  98 100
ATOM    100  OG1 THR A   2       0.421   4.808  -3.226  0.00  0.00    +0.000 OA
ATOM    101  HG1 THR A   2      -0.044   3.971  -3.193  0.00  0.00    +0.000 HD
ENDBRANCH  98 100
ENDBRANCH  27  98
BRANCH  23 102
ATOM    102  CB  ASN A   3      -0.145   5.844   0.605  0.00  0.00    +0.000 C 
BRANCH 102 103
ATOM    103  CG  ASN A   3      -0.973   7.388  -0.052  0.00  0.00    +0.000 C 
ATOM    104  ND2 ASN A   3      -0.733   7.180  -2.103  0.00  0.00    +0.000 N 
ATOM    105  OD1 ASN A   3      -1.457   8.362   0.494  0.00  0.00    +0.000 OA
ATOM    106 HD21 ASN A   3       0.078   6.497  -2.360  0.00  0.00    +0.000 HD
ATOM    107 HD22 ASN A   3      -0.740   7.996  -2.658  0.00  0.00    +0.000 HD
ENDBRANCH 102 103
ENDBRANCH  23 102
TORSDOF 20
