REMARK  Name = CHEMBL594361
REMARK  6 active torsions:
REMARK  status: ('A' for Active; 'I' for Inactive)
REMARK    1  A    between atoms: C_1  and  O_2
REMARK    2  A    between atoms: O_2  and  C_3
REMARK    3  A    between atoms: C_6  and  N_7
REMARK    4  A    between atoms: C_8  and  C_9
REMARK    5  A    between atoms: C_15  and  O_16
REMARK    6  A    between atoms: O_16  and  C_17
REMARK                            x       y       z     vdW  Elec       q    Type
REMARK                         _______ _______ _______ _____ _____    ______ ____
ROOT
ATOM      1  N   UNL     1       5.313  -4.810   0.443  0.00  0.00    +0.000 N 
ATOM      2  C   UNL     1       5.600  -5.634   1.532  0.00  0.00    +0.000 A 
ATOM      3  C   UNL     1       5.107  -5.526   2.942  0.00  0.00    +0.000 C 
ATOM      4  N   UNL     1       6.300  -6.666   1.092  0.00  0.00    +0.000 NA
ATOM      5  N   UNL     1       6.447  -6.560  -0.274  0.00  0.00    +0.000 NA
ATOM      6  C   UNL     1       5.875  -5.439  -0.680  0.00  0.00    +0.000 A 
ATOM      7  N   UNL     1       5.735  -4.917  -1.933  0.00  0.00    +0.000 N 
ATOM      8  C   UNL     1       5.690  -5.594  -3.199  0.00  0.00    +0.000 C 
ATOM      9  C   UNL     1       6.777  -4.645  -3.752  0.00  0.00    +0.000 C 
ATOM     10  C   UNL     1       6.484  -3.815  -2.483  0.00  0.00    +0.000 C 
ENDROOT
BRANCH   1  14
ATOM     11  C   UNL     1       3.157  -1.255   0.185  0.00  0.00    +0.000 A 
ATOM     12  C   UNL     1       2.782  -2.314  -0.627  0.00  0.00    +0.000 A 
ATOM     13  C   UNL     1       3.478  -3.519  -0.518  0.00  0.00    +0.000 A 
ATOM     14  C   UNL     1       4.524  -3.634   0.400  0.00  0.00    +0.000 A 
ATOM     15  C   UNL     1       4.856  -2.519   1.149  0.00  0.00    +0.000 A 
ATOM     16  N   UNL     1       4.195  -1.334   1.051  0.00  0.00    +0.000 NA
BRANCH  11  18
ATOM     17  C   UNL     1       1.154  -0.021   0.086  0.00  0.00    +0.000 C 
ATOM     18  O   UNL     1       2.580  -0.014   0.094  0.00  0.00    +0.000 OA
ENDBRANCH  11  18
ENDBRANCH   1  14
BRANCH   9  19
ATOM     19  O   UNL     1       8.081  -5.256  -3.966  0.00  0.00    +0.000 OA
BRANCH  19  20
ATOM     20  C   UNL     1       9.101  -4.461  -4.438  0.00  0.00    +0.000 A 
ATOM     21  C   UNL     1       9.837  -4.903  -5.541  0.00  0.00    +0.000 A 
ATOM     22  C   UNL     1      10.993  -4.215  -5.935  0.00  0.00    +0.000 A 
ATOM     23  C   UNL     1      11.390  -3.064  -5.255  0.00  0.00    +0.000 A 
ATOM     24  C   UNL     1      10.646  -2.615  -4.169  0.00  0.00    +0.000 A 
ATOM     25  C   UNL     1       9.517  -3.323  -3.754  0.00  0.00    +0.000 A 
ENDBRANCH  19  20
ENDBRANCH   9  19
TORSDOF 4
