REMARK  Name = CHEMBL372128
REMARK  14 active torsions:
REMARK  status: ('A' for Active; 'I' for Inactive)
REMARK    1  A    between atoms: C_1  and  O_2
REMARK    2  A    between atoms: O_2  and  C_3
REMARK    3  A    between atoms: C_6  and  C_7
REMARK    4  A    between atoms: C_7  and  C_8
REMARK    5  A    between atoms: C_7  and  N_15
REMARK    6  A    between atoms: N_10  and  C_11
REMARK    7  A    between atoms: C_11  and  C_12
REMARK    8  A    between atoms: C_11  and  C_13
REMARK    9  A    between atoms: C_11  and  C_14
REMARK   10  A    between atoms: C_18  and  C_19
REMARK   11  A    between atoms: CA_31  and  CB_32
REMARK   12  A    between atoms: CB_32  and  CG_33
REMARK   13  A    between atoms: CG_33  and  CD1_34
REMARK   14  A    between atoms: CG_33  and  CD2_35
REMARK                            x       y       z     vdW  Elec       q    Type
REMARK                         _______ _______ _______ _____ _____    ______ ____
ROOT
ATOM      1  N   LEU A   1       4.874  -3.850  -4.603  0.00  0.00    +0.000 N 
ATOM      2  C   UNK A   2       5.017  -2.737  -5.447  0.00  0.00    +0.000 C 
ATOM      3  O   UNK A   2       5.738  -1.793  -5.087  0.00  0.00    +0.000 OA
ATOM      4  C   UNK A   2       4.263  -2.784  -6.884  0.00  0.00    +0.000 C 
ATOM      5  N   UNK A   2       4.713  -4.045  -7.448  0.00  0.00    +0.000 N 
ATOM      6  C   LEU A   1       4.588  -5.202  -6.715  0.00  0.00    +0.000 C 
ATOM      7  O   LEU A   1       4.726  -6.278  -7.236  0.00  0.00    +0.000 OA
ATOM      8  CA  LEU A   1       4.130  -4.944  -5.256  0.00  0.00    +0.000 C 
ATOM      9  H   UNK A   2       4.932  -4.194  -8.424  0.00  0.00    +0.000 HD
ENDROOT
BRANCH   4  10
ATOM     10  C   UNK A   2       4.680  -1.589  -7.752  0.00  0.00    +0.000 C 
ATOM     11  C   UNK A   2       4.534  -0.333  -6.960  0.00  0.00    +0.000 C 
ATOM     12  C   UNK A   2       5.020   0.605  -8.017  0.00  0.00    +0.000 A 
ATOM     13  C   UNK A   2       6.149   0.565  -8.882  0.00  0.00    +0.000 A 
ATOM     14  C   UNK A   2       6.291   1.544  -9.860  0.00  0.00    +0.000 A 
ATOM     15  C   UNK A   2       5.278   2.452  -9.890  0.00  0.00    +0.000 A 
ATOM     16  C   UNK A   2       4.058   1.991  -9.340  0.00  0.00    +0.000 A 
ATOM     17  C   UNK A   2       3.924   0.711  -8.781  0.00  0.00    +0.000 A 
ATOM     18  C   UNK A   2       3.913  -0.962  -9.092  0.00  0.00    +0.000 C 
ENDBRANCH   4  10
BRANCH   1  19
ATOM     19  C   UNK A   0       5.411  -3.745  -3.115  0.00  0.00    +0.000 C 
BRANCH  19  23
ATOM     20  C   UNK A   0       5.403  -7.627  -0.810  0.00  0.00    +0.000 A 
ATOM     21  C   UNK A   0       6.302  -7.384  -1.895  0.00  0.00    +0.000 A 
ATOM     22  C   UNK A   0       6.509  -6.076  -2.465  0.00  0.00    +0.000 A 
ATOM     23  C   UNK A   0       5.599  -5.036  -2.176  0.00  0.00    +0.000 A 
ATOM     24  C   UNK A   0       4.723  -5.330  -1.092  0.00  0.00    +0.000 A 
ATOM     25  C   UNK A   0       4.700  -6.529  -0.338  0.00  0.00    +0.000 A 
BRANCH  20  27
ATOM     26  C   UNK A   0       3.600  -9.238  -0.265  0.00  0.00    +0.000 C 
ATOM     27  O   UNK A   0       4.971  -8.938  -0.631  0.00  0.00    +0.000 OA
ENDBRANCH  20  27
ENDBRANCH  19  23
BRANCH  19  28
ATOM     28  C   UNK A   0       4.623  -2.547  -2.398  0.00  0.00    +0.000 C 
ATOM     29  O   UNK A   0       4.224  -1.551  -3.007  0.00  0.00    +0.000 OA
ATOM     30  N   UNK A   0       4.389  -2.640  -1.040  0.00  0.00    +0.000 N 
ATOM     31  H   UNK A   0       5.059  -3.178  -0.505  0.00  0.00    +0.000 HD
BRANCH  30  32
ATOM     32  C   UNK A   0       3.623  -1.677  -0.256  0.00  0.00    +0.000 C 
ATOM     33  C   UNK A   0       4.496  -0.435  -0.117  0.00  0.00    +0.000 C 
ATOM     34  C   UNK A   0       2.256  -1.372  -0.893  0.00  0.00    +0.000 C 
ATOM     35  C   UNK A   0       3.357  -2.281   1.139  0.00  0.00    +0.000 C 
ENDBRANCH  30  32
ENDBRANCH  19  28
ENDBRANCH   1  19
BRANCH   8  36
ATOM     36  CB  LEU A   1       4.290  -6.259  -4.591  0.00  0.00    +0.000 C 
BRANCH  36  37
ATOM     37  CG  LEU A   1       3.112  -6.431  -3.666  0.00  0.00    +0.000 C 
ATOM     38  CD1 LEU A   1       1.834  -6.716  -4.375  0.00  0.00    +0.000 C 
ATOM     39  CD2 LEU A   1       3.301  -7.640  -2.848  0.00  0.00    +0.000 C 
ENDBRANCH  36  37
ENDBRANCH   8  36
TORSDOF 8
