REMARK  Name = CHEMBL273988
REMARK  11 active torsions:
REMARK  status: ('A' for Active; 'I' for Inactive)
REMARK    1  A    between atoms: CD1_1  and  CG_2
REMARK    2  A    between atoms: CG_2  and  CD2_3
REMARK    3  A    between atoms: CG_2  and  CB_4
REMARK    4  A    between atoms: CB_4  and  CA_5
REMARK    5  A    between atoms: C_9  and  C_10
REMARK    6  A    between atoms: N_21  and  C_22
REMARK    7  A    between atoms: C_22  and  C_23
REMARK    8  A    between atoms: C_22  and  C_29
REMARK    9  A    between atoms: N_25  and  C_26
REMARK   10  A    between atoms: C_26  and  C_27
REMARK   11  A    between atoms: C_26  and  C_28
REMARK                            x       y       z     vdW  Elec       q    Type
REMARK                         _______ _______ _______ _____ _____    ______ ____
ROOT
ATOM      1  CA  LEU A   2       2.905   1.679   2.505  0.00  0.00    +0.000 C 
ATOM      2  C   LEU A   2       1.426   1.262   2.359  0.00  0.00    +0.000 C 
ATOM      3  O   LEU A   2       0.922   0.202   2.065  0.00  0.00    +0.000 OA
ATOM      4  N   UNK A   1       0.545   2.179   2.749  0.00  0.00    +0.000 N 
ATOM      5  C   UNK A   1       0.878   3.463   3.265  0.00  0.00    +0.000 C 
ATOM      6  C   UNK A   1       2.061   4.027   2.442  0.00  0.00    +0.000 C 
ATOM      7  O   UNK A   1       2.120   5.233   2.206  0.00  0.00    +0.000 OA
ATOM      8  N   LEU A   2       3.061   3.103   2.064  0.00  0.00    +0.000 N 
ATOM      9  H   UNK A   1      -0.391   1.800   2.694  0.00  0.00    +0.000 HD
ENDROOT
BRANCH   5  10
ATOM     10  C   UNK A   1      -0.332   4.402   3.091  0.00  0.00    +0.000 C 
ATOM     11  C   UNK A   1      -1.600   3.890   3.814  0.00  0.00    +0.000 C 
ATOM     12  C   UNK A   1      -2.252   3.056   2.747  0.00  0.00    +0.000 A 
ATOM     13  C   UNK A   1      -3.127   1.996   2.912  0.00  0.00    +0.000 A 
ATOM     14  C   UNK A   1      -3.478   1.246   1.787  0.00  0.00    +0.000 A 
ATOM     15  C   UNK A   1      -2.943   1.548   0.524  0.00  0.00    +0.000 A 
ATOM     16  C   UNK A   1      -2.055   2.614   0.365  0.00  0.00    +0.000 A 
ATOM     17  C   UNK A   1      -1.736   3.372   1.480  0.00  0.00    +0.000 A 
ATOM     18  C   UNK A   1      -0.723   4.475   1.583  0.00  0.00    +0.000 C 
ENDBRANCH   5  10
BRANCH   1  19
ATOM     19  CB  LEU A   2       3.743   0.666   1.736  0.00  0.00    +0.000 C 
BRANCH  19  21
ATOM     20  CD1 LEU A   2       4.112  -1.761   0.907  0.00  0.00    +0.000 C 
ATOM     21  CG  LEU A   2       3.305  -0.796   1.741  0.00  0.00    +0.000 C 
ATOM     22  CD2 LEU A   2       3.265  -1.274   3.173  0.00  0.00    +0.000 C 
ENDBRANCH  19  21
ENDBRANCH   1  19
BRANCH   8  23
ATOM     23  C   UNK A   0       4.251   3.623   1.300  0.00  0.00    +0.000 C 
BRANCH  23  24
ATOM     24  C   UNK A   0       4.972   4.800   1.991  0.00  0.00    +0.000 A 
ATOM     25  C   UNK A   0       4.652   5.293   3.263  0.00  0.00    +0.000 A 
ATOM     26  C   UNK A   0       5.211   6.481   3.717  0.00  0.00    +0.000 A 
ATOM     27  C   UNK A   0       6.247   7.075   3.006  0.00  0.00    +0.000 A 
ATOM     28  C   UNK A   0       6.680   6.520   1.807  0.00  0.00    +0.000 A 
ATOM     29  C   UNK A   0       6.023   5.416   1.286  0.00  0.00    +0.000 A 
ENDBRANCH  23  24
BRANCH  23  30
ATOM     30  C   UNK A   0       5.434   2.660   0.870  0.00  0.00    +0.000 C 
ATOM     31  O   UNK A   0       6.364   2.435   1.650  0.00  0.00    +0.000 OA
ATOM     32  N   UNK A   0       5.384   2.031  -0.370  0.00  0.00    +0.000 N 
ATOM     33  H   UNK A   0       4.517   2.051  -0.900  0.00  0.00    +0.000 HD
BRANCH  32  34
ATOM     34  C   UNK A   0       6.412   1.034  -0.739  0.00  0.00    +0.000 C 
ATOM     35  C   UNK A   0       6.600  -0.046   0.311  0.00  0.00    +0.000 C 
ATOM     36  C   UNK A   0       6.019   0.303  -2.035  0.00  0.00    +0.000 C 
ENDBRANCH  32  34
ENDBRANCH  23  30
ENDBRANCH   8  23
TORSDOF 7
