REMARK  Name = CHEMBL372619
REMARK  13 active torsions:
REMARK  status: ('A' for Active; 'I' for Inactive)
REMARK    1  A    between atoms: C_1  and  C_2
REMARK    2  A    between atoms: N_4  and  C_5
REMARK    3  A    between atoms: C_8  and  C_9
REMARK    4  A    between atoms: C_9  and  C_10
REMARK    5  A    between atoms: C_9  and  N_16
REMARK    6  A    between atoms: N_12  and  C_13
REMARK    7  A    between atoms: C_13  and  C_14
REMARK    8  A    between atoms: C_13  and  C_15
REMARK    9  A    between atoms: C_19  and  C_20
REMARK   10  A    between atoms: CA_32  and  CB_33
REMARK   11  A    between atoms: CB_33  and  CG_34
REMARK   12  A    between atoms: CG_34  and  CD1_35
REMARK   13  A    between atoms: CG_34  and  CD2_36
REMARK                            x       y       z     vdW  Elec       q    Type
REMARK                         _______ _______ _______ _____ _____    ______ ____
ROOT
ATOM      1  N   LEU A   1       9.430   0.694   0.890  0.00  0.00    +0.000 N 
ATOM      2  C   UNK A   2       9.290   1.716   1.827  0.00  0.00    +0.000 C 
ATOM      3  O   UNK A   2       8.670   1.521   2.878  0.00  0.00    +0.000 OA
ATOM      4  C   UNK A   2       9.848   3.139   1.419  0.00  0.00    +0.000 C 
ATOM      5  N   UNK A   2      11.190   2.926   0.969  0.00  0.00    +0.000 N 
ATOM      6  C   LEU A   1      11.314   2.159  -0.150  0.00  0.00    +0.000 C 
ATOM      7  O   LEU A   1      12.228   2.419  -0.950  0.00  0.00    +0.000 OA
ATOM      8  CA  LEU A   1      10.321   0.944  -0.281  0.00  0.00    +0.000 C 
ATOM      9  H   UNK A   2      11.892   3.650   1.061  0.00  0.00    +0.000 HD
ENDROOT
BRANCH   4  10
ATOM     10  C   UNK A   2       9.761   4.083   2.613  0.00  0.00    +0.000 C 
ATOM     11  C   UNK A   2       8.269   4.322   2.856  0.00  0.00    +0.000 C 
ATOM     12  C   UNK A   2       8.310   5.401   3.857  0.00  0.00    +0.000 A 
ATOM     13  C   UNK A   2       7.228   5.703   4.661  0.00  0.00    +0.000 A 
ATOM     14  C   UNK A   2       7.366   6.727   5.564  0.00  0.00    +0.000 A 
ATOM     15  C   UNK A   2       8.635   7.290   5.747  0.00  0.00    +0.000 A 
ATOM     16  C   UNK A   2       9.740   6.954   4.908  0.00  0.00    +0.000 A 
ATOM     17  C   UNK A   2       9.544   6.054   3.867  0.00  0.00    +0.000 A 
ATOM     18  C   UNK A   2      10.331   5.534   2.652  0.00  0.00    +0.000 C 
ENDBRANCH   4  10
BRANCH   1  19
ATOM     19  C   UNK A   0       8.771  -0.676   1.140  0.00  0.00    +0.000 C 
BRANCH  19  23
ATOM     20  C   UNK A   0       4.506  -0.715   1.096  0.00  0.00    +0.000 A 
ATOM     21  C   UNK A   0       5.194  -1.870   1.451  0.00  0.00    +0.000 A 
ATOM     22  C   UNK A   0       6.565  -1.798   1.663  0.00  0.00    +0.000 A 
ATOM     23  C   UNK A   0       7.268  -0.613   1.364  0.00  0.00    +0.000 A 
ATOM     24  C   UNK A   0       6.556   0.530   1.023  0.00  0.00    +0.000 A 
ATOM     25  C   UNK A   0       5.187   0.485   0.921  0.00  0.00    +0.000 A 
BRANCH  20  29
ATOM     26  C   UNK A   0       0.965  -0.014   0.123  0.00  0.00    +0.000 C 
ATOM     27  C   UNK A   0       2.456   0.044   0.030  0.00  0.00    +0.000 C 
ATOM     28  O   UNK A   0       2.996   0.725  -0.843  0.00  0.00    +0.000 OA
ATOM     29  N   UNK A   0       3.114  -0.737   0.963  0.00  0.00    +0.000 N 
ATOM     30  H   UNK A   0       2.606  -1.405   1.527  0.00  0.00    +0.000 HD
ENDBRANCH  20  29
ENDBRANCH  19  23
BRANCH  19  31
ATOM     31  C   UNK A   0       8.858  -1.741  -0.059  0.00  0.00    +0.000 C 
ATOM     32  O   UNK A   0       8.778  -1.393  -1.240  0.00  0.00    +0.000 OA
ATOM     33  N   UNK A   0       9.094  -3.071   0.276  0.00  0.00    +0.000 N 
ATOM     34  H   UNK A   0       8.738  -3.446   1.144  0.00  0.00    +0.000 HD
BRANCH  33  35
ATOM     35  C   UNK A   0       9.543  -4.017  -0.741  0.00  0.00    +0.000 C 
ATOM     36  C   UNK A   0      11.064  -4.019  -0.812  0.00  0.00    +0.000 C 
ATOM     37  C   UNK A   0       9.049  -5.422  -0.454  0.00  0.00    +0.000 C 
ENDBRANCH  33  35
ENDBRANCH  19  31
ENDBRANCH   1  19
BRANCH   8  38
ATOM     38  CB  LEU A   1      11.209  -0.280  -0.553  0.00  0.00    +0.000 C 
BRANCH  38  39
ATOM     39  CG  LEU A   1      12.554  -0.275   0.145  0.00  0.00    +0.000 C 
ATOM     40  CD1 LEU A   1      12.344  -0.174   1.662  0.00  0.00    +0.000 C 
ATOM     41  CD2 LEU A   1      13.331  -1.517  -0.233  0.00  0.00    +0.000 C 
ENDBRANCH  38  39
ENDBRANCH   8  38
TORSDOF 8
