REMARK  Name = CHEMBL481569
REMARK  7 active torsions:
REMARK  status: ('A' for Active; 'I' for Inactive)
REMARK    1  A    between atoms: C_1  and  C_2
REMARK    2  A    between atoms: C_8  and  C_9
REMARK    3  A    between atoms: C_12  and  C_13
REMARK    4  A    between atoms: N_15  and  C_16
REMARK    5  A    between atoms: N_15  and  C_20
REMARK    6  A    between atoms: C_16  and  C_17
REMARK    7  A    between atoms: C_20  and  C_21
REMARK                            x       y       z     vdW  Elec       q    Type
REMARK                         _______ _______ _______ _____ _____    ______ ____
ROOT
ATOM      1  C   UNL     1       2.500  -1.984  -0.176  0.00  0.00    +0.000 A 
ATOM      2  C   UNL     1       2.876  -2.809  -1.253  0.00  0.00    +0.000 A 
ATOM      3  C   UNL     1       3.980  -3.702  -1.145  0.00  0.00    +0.000 A 
ATOM      4  C   UNL     1       4.724  -3.813   0.050  0.00  0.00    +0.000 A 
ATOM      5  C   UNL     1       4.122  -3.240   1.181  0.00  0.00    +0.000 A 
ATOM      6  C   UNL     1       3.136  -2.225   1.040  0.00  0.00    +0.000 A 
ENDROOT
BRANCH   1  14
ATOM      7  C   UNL     1       2.530   1.195  -0.008  0.00  0.00    +0.000 C 
ATOM      8  C   UNL     1       1.301   0.325  -0.107  0.00  0.00    +0.000 A 
ATOM      9  C   UNL     1       0.047   0.972  -0.045  0.00  0.00    +0.000 A 
ATOM     10  C   UNL     1      -1.133   0.234  -0.001  0.00  0.00    +0.000 A 
ATOM     11  F   UNL     1      -2.312   0.866   0.049  0.00  0.00    +0.000 F 
ATOM     12  C   UNL     1      -1.109  -1.148   0.012  0.00  0.00    +0.000 A 
ATOM     13  C   UNL     1       0.110  -1.796  -0.091  0.00  0.00    +0.000 A 
ATOM     14  C   UNL     1       1.328  -1.094  -0.186  0.00  0.00    +0.000 A 
ENDBRANCH   1  14
BRANCH   4  15
ATOM     15  C   UNL     1       6.250  -4.202  -0.097  0.00  0.00    +0.000 C 
ATOM     16  O   UNL     1       6.548  -4.879  -1.070  0.00  0.00    +0.000 OA
ATOM     17  N   UNL     1       7.313  -3.684   0.737  0.00  0.00    +0.000 N 
BRANCH  17  18
ATOM     18  C   UNL     1       7.224  -2.578   1.676  0.00  0.00    +0.000 C 
BRANCH  18  19
ATOM     19  C   UNL     1       6.147  -1.609   1.514  0.00  0.00    +0.000 C 
ATOM     20  C   UNL     1       6.034  -0.182   1.033  0.00  0.00    +0.000 C 
ATOM     21  C   UNL     1       5.838  -1.244   0.051  0.00  0.00    +0.000 C 
ENDBRANCH  18  19
ENDBRANCH  17  18
BRANCH  17  22
ATOM     22  C   UNL     1       8.720  -4.230   0.589  0.00  0.00    +0.000 C 
BRANCH  22  23
ATOM     23  C   UNL     1       9.768  -3.772   1.685  0.00  0.00    +0.000 C 
ATOM     24  C   UNL     1      10.247  -2.318   1.574  0.00  0.00    +0.000 C 
ATOM     25  C   UNL     1      11.600  -2.318   2.204  0.00  0.00    +0.000 C 
ATOM     26  C   UNL     1      12.113  -3.686   1.852  0.00  0.00    +0.000 C 
ATOM     27  O   UNL     1      10.981  -4.555   1.657  0.00  0.00    +0.000 OA
ENDBRANCH  22  23
ENDBRANCH  17  22
ENDBRANCH   4  15
TORSDOF 6
