REMARK  Name = CHEMBL2369840
REMARK  19 active torsions:
REMARK  status: ('A' for Active; 'I' for Inactive)
REMARK    1  A    between atoms: C_2  and  C_4
REMARK    2  A    between atoms: C_4  and  N_5
REMARK    3  A    between atoms: C_6  and  C_8
REMARK    4  A    between atoms: C_8  and  C_9
REMARK    5  A    between atoms: C_8  and  N_16
REMARK    6  A    between atoms: C_9  and  C_10
REMARK    7  A    between atoms: C_10  and  C_11
REMARK    8  A    between atoms: C_11  and  N_12
REMARK    9  A    between atoms: C_17  and  C_19
REMARK   10  A    between atoms: C_24  and  C_26
REMARK   11  A    between atoms: C_35  and  C_36
REMARK   12  A    between atoms: C_36  and  C_37
REMARK   13  A    between atoms: C_40  and  O_41
REMARK   14  A    between atoms: C_47  and  C_48
REMARK   15  A    between atoms: C_48  and  C_49
REMARK   16  A    between atoms: C_58  and  C_59
REMARK   17  A    between atoms: C_59  and  C_60
REMARK   18  A    between atoms: C_72  and  C_73
REMARK   19  A    between atoms: C_73  and  C_74
REMARK                            x       y       z     vdW  Elec       q    Type
REMARK                         _______ _______ _______ _____ _____    ______ ____
ROOT
ATOM      1  C   UNL     1       9.346   0.894   5.914  0.00  0.00    +0.000 C 
ATOM      2  C   UNL     1       9.255   3.152   7.278  0.00  0.00    +0.000 C 
ATOM      3  S   UNL     1       9.146   5.832   7.910  0.00  0.00    +0.000 S 
ATOM      4  S   UNL     1       9.614   8.635   8.356  0.00  0.00    +0.000 S 
ATOM      5  C   UNL     1       9.946   9.796   6.747  0.00  0.00    +0.000 C 
ATOM      6  C   UNL     1      10.810  10.910   6.194  0.00  0.00    +0.000 C 
ATOM      7  C   UNL     1      11.097  10.888   4.678  0.00  0.00    +0.000 C 
ATOM      8  O   UNL     1      11.648  11.850   4.135  0.00  0.00    +0.000 OA
ATOM      9  N   UNL     1      10.785   9.755   3.963  0.00  0.00    +0.000 N 
ATOM     10  C   UNL     1      10.096   8.583   4.474  0.00  0.00    +0.000 C 
ATOM     11  C   UNL     1      11.191   7.873   5.526  0.00  0.00    +0.000 C 
ATOM     12  O   UNL     1      11.826   8.434   6.473  0.00  0.00    +0.000 OA
ATOM     13  N   UNL     1      11.327   6.580   5.493  0.00  0.00    +0.000 N 
ATOM     14  C   UNL     1      10.935   5.780   4.429  0.00  0.00    +0.000 C 
ATOM     15  C   UNL     1       9.341   5.723   4.607  0.00  0.00    +0.000 C 
ATOM     16  O   UNL     1       8.394   6.535   4.621  0.00  0.00    +0.000 OA
ATOM     17  N   UNL     1       8.948   4.589   4.488  0.00  0.00    +0.000 N 
ATOM     18  C   UNL     1       9.744   3.433   4.714  0.00  0.00    +0.000 C 
ATOM     19  C   UNL     1      10.813   3.218   2.832  0.00  0.00    +0.000 C 
ATOM     20  O   UNL     1      11.496   4.083   2.380  0.00  0.00    +0.000 OA
ATOM     21  N   UNL     1      10.155   2.324   1.873  0.00  0.00    +0.000 N 
ATOM     22  C   UNL     1       8.979   0.881   2.411  0.00  0.00    +0.000 C 
ATOM     23  C   UNL     1       9.600   0.815   3.592  0.00  0.00    +0.000 C 
ATOM     24  O   UNL     1      10.094   1.885   4.748  0.00  0.00    +0.000 OA
ATOM     25  N   UNL     1       9.701  -0.846   4.651  0.00  0.00    +0.000 N 
ATOM     26  H   UNL     1      10.928   9.737   2.939  0.00  0.00    +0.000 HD
ATOM     27  H   UNL     1      11.975   6.222   6.179  0.00  0.00    +0.000 HD
ATOM     28  H   UNL     1       8.089   4.373   3.926  0.00  0.00    +0.000 HD
ATOM     29  H   UNL     1      11.139   1.964   1.620  0.00  0.00    +0.000 HD
ATOM     30  H   UNL     1      10.322  -1.719   5.083  0.00  0.00    +0.000 HD
ENDROOT
BRANCH   1  36
ATOM     31  C   UNL     1      11.774  -0.787   1.176  0.00  0.00    +0.000 C 
ATOM     32  C   UNL     1      11.633   0.145  -0.144  0.00  0.00    +0.000 C 
ATOM     33  C   UNL     1      11.503  -0.804  -1.255  0.00  0.00    +0.000 C 
ATOM     34  C   UNL     1      10.566  -1.981  -0.021  0.00  0.00    +0.000 C 
ATOM     35  N   UNL     1      10.422  -1.576   2.104  0.00  0.00    +0.000 N 
ATOM     36  C   UNL     1       9.677  -0.737   3.999  0.00  0.00    +0.000 C 
ATOM     37  O   UNL     1       9.235  -1.975   3.062  0.00  0.00    +0.000 OA
BRANCH  31  39
ATOM     38  N   UNL     1      11.215   0.859   2.435  0.00  0.00    +0.000 N 
ATOM     39  C   UNL     1      11.861  -0.227   2.419  0.00  0.00    +0.000 C 
ATOM     40  O   UNL     1      12.167  -0.699   3.475  0.00  0.00    +0.000 OA
ATOM     41  H   UNL     1      10.266   1.152   1.616  0.00  0.00    +0.000 HD
BRANCH  38  42
ATOM     42  C   UNL     1      11.078   1.612   3.580  0.00  0.00    +0.000 C 
BRANCH  42  44
ATOM     43  N   UNL     1      11.009   0.008   6.176  0.00  0.00    +0.000 N 
ATOM     44  C   UNL     1      10.504   0.407   5.044  0.00  0.00    +0.000 C 
ATOM     45  O   UNL     1       8.641   0.136   4.920  0.00  0.00    +0.000 OA
ATOM     46  H   UNL     1      11.623   0.739   6.178  0.00  0.00    +0.000 HD
BRANCH  43  47
ATOM     47  C   UNL     1      10.237  -0.903   7.030  0.00  0.00    +0.000 C 
BRANCH  47  49
ATOM     48  N   UNL     1      11.033  -2.001   8.939  0.00  0.00    +0.000 N 
ATOM     49  C   UNL     1      11.264  -1.050   7.990  0.00  0.00    +0.000 C 
ATOM     50  O   UNL     1      12.268  -0.338   7.949  0.00  0.00    +0.000 OA
ATOM     51  H   UNL     1      11.718  -2.144   9.671  0.00  0.00    +0.000 HD
ATOM     52  H   UNL     1      10.211  -2.595   8.979  0.00  0.00    +0.000 HD
ENDBRANCH  47  49
ENDBRANCH  43  47
ENDBRANCH  42  44
BRANCH  42  53
ATOM     53  C   UNL     1       9.127   2.787   3.411  0.00  0.00    +0.000 C 
BRANCH  53  54
ATOM     54  C   UNL     1       8.120   3.174   5.361  0.00  0.00    +0.000 C 
BRANCH  54  55
ATOM     55  C   UNL     1       6.983   3.802   5.059  0.00  0.00    +0.000 C 
BRANCH  55  56
ATOM     56  N   UNL     1       6.437   3.630   6.274  0.00  0.00    +0.000 NA
ATOM     57  C   UNL     1       5.450   4.405   6.261  0.00  0.00    +0.000 C 
ATOM     58  N   UNL     1       5.095   5.219   5.213  0.00  0.00    +0.000 N 
ATOM     59  N   UNL     1       4.739   4.327   7.402  0.00  0.00    +0.000 N 
ATOM     60  H   UNL     1       5.641   5.305   4.337  0.00  0.00    +0.000 HD
ATOM     61  H   UNL     1       4.303   5.823   5.249  0.00  0.00    +0.000 HD
ATOM     62  H   UNL     1       5.004   3.709   8.182  0.00  0.00    +0.000 HD
ATOM     63  H   UNL     1       3.915   4.867   7.559  0.00  0.00    +0.000 HD
ENDBRANCH  55  56
ENDBRANCH  54  55
ENDBRANCH  53  54
ENDBRANCH  42  53
ENDBRANCH  38  42
ENDBRANCH  31  39
ENDBRANCH   1  36
BRANCH  10  64
ATOM     64  C   UNL     1       9.800   7.778   3.305  0.00  0.00    +0.000 C 
BRANCH  64  65
ATOM     65  C   UNL     1       8.796   8.161   2.366  0.00  0.00    +0.000 A 
ATOM     66  C   UNL     1       8.778   9.501   2.151  0.00  0.00    +0.000 A 
ATOM     67  C   UNL     1       8.057  10.065   1.155  0.00  0.00    +0.000 A 
ATOM     68  C   UNL     1       7.301   9.246   0.362  0.00  0.00    +0.000 A 
ATOM     69  C   UNL     1       7.256   7.885   0.603  0.00  0.00    +0.000 A 
ATOM     70  C   UNL     1       8.008   7.331   1.612  0.00  0.00    +0.000 A 
BRANCH  68  71
ATOM     71  O   UNL     1       6.549   9.692  -0.675  0.00  0.00    +0.000 OA
ATOM     72  H   UNL     1       6.591  10.648  -0.835  0.00  0.00    +0.000 HD
ENDBRANCH  68  71
ENDBRANCH  64  65
ENDBRANCH  10  64
BRANCH  14  73
ATOM     73  C   UNL     1      11.708   4.584   4.677  0.00  0.00    +0.000 C 
BRANCH  73  74
ATOM     74  C   UNL     1      13.092   4.466   4.472  0.00  0.00    +0.000 A 
ATOM     75  C   UNL     1      13.816   3.318   4.441  0.00  0.00    +0.000 A 
ATOM     76  C   UNL     1      15.148   3.455   4.706  0.00  0.00    +0.000 A 
ATOM     77  C   UNL     1      15.774   4.669   4.671  0.00  0.00    +0.000 A 
ATOM     78  C   UNL     1      15.005   5.782   4.619  0.00  0.00    +0.000 A 
ATOM     79  C   UNL     1      13.679   5.675   4.472  0.00  0.00    +0.000 A 
ENDBRANCH  73  74
ENDBRANCH  14  73
BRANCH  18  80
ATOM     80  C   UNL     1       8.078   1.793   4.569  0.00  0.00    +0.000 C 
BRANCH  80  81
ATOM     81  C   UNL     1       7.342   0.904   6.432  0.00  0.00    +0.000 A 
ATOM     82  C   UNL     1       6.129   0.923   6.029  0.00  0.00    +0.000 A 
ATOM     83  N   UNL     1       5.934   1.216   7.363  0.00  0.00    +0.000 N 
ATOM     84  C   UNL     1       5.059   0.310   7.630  0.00  0.00    +0.000 A 
ATOM     85  C   UNL     1       3.739   0.464   8.120  0.00  0.00    +0.000 A 
ATOM     86  C   UNL     1       2.999  -0.566   8.658  0.00  0.00    +0.000 A 
ATOM     87  C   UNL     1       3.433  -1.813   8.477  0.00  0.00    +0.000 A 
ATOM     88  C   UNL     1       4.919  -1.753   7.864  0.00  0.00    +0.000 A 
ATOM     89  C   UNL     1       6.178  -0.546   7.274  0.00  0.00    +0.000 A 
ATOM     90  H   UNL     1       6.093   2.019   7.939  0.00  0.00    +0.000 HD
ENDBRANCH  80  81
ENDBRANCH  18  80
BRANCH  22  91
ATOM     91  C   UNL     1       9.051  -0.183   1.568  0.00  0.00    +0.000 C 
BRANCH  91  92
ATOM     92  C   UNL     1       8.913   0.294   0.291  0.00  0.00    +0.000 C 
ATOM     93  N   UNL     1       8.742   1.637   0.217  0.00  0.00    +0.000 N 
ATOM     94  O   UNL     1       8.994  -0.427  -0.663  0.00  0.00    +0.000 OA
ATOM     95  H   UNL     1       8.768   2.292   1.003  0.00  0.00    +0.000 HD
ATOM     96  H   UNL     1       8.567   2.064  -0.659  0.00  0.00    +0.000 HD
ENDBRANCH  91  92
ENDBRANCH  22  91
TORSDOF 19
