REMARK  Name = CHEMBL104530
REMARK  7 active torsions:
REMARK  status: ('A' for Active; 'I' for Inactive)
REMARK    1  A    between atoms: C_1  and  C_2
REMARK    2  A    between atoms: C_2  and  O_3
REMARK    3  A    between atoms: O_3  and  C_4
REMARK    4  A    between atoms: C_7  and  C_8
REMARK    5  A    between atoms: C_13  and  N_14
REMARK    6  A    between atoms: C_27  and  O_28
REMARK    7  A    between atoms: O_28  and  C_29
REMARK                            x       y       z     vdW  Elec       q    Type
REMARK                         _______ _______ _______ _____ _____    ______ ____
ROOT
ATOM      1  C   UNL     1       8.739  -2.428  -0.508  0.00  0.00    +0.000 C 
ATOM      2  O   UNL     1       9.178  -2.923  -1.554  0.00  0.00    +0.000 OA
ATOM      3  N   UNL     1       9.650  -1.998   0.538  0.00  0.00    +0.000 N 
ATOM      4  C   UNL     1      10.676  -0.974   0.289  0.00  0.00    +0.000 C 
ATOM      5  C   UNL     1      12.033  -1.283   1.000  0.00  0.00    +0.000 C 
ATOM      6  C   UNL     1      11.970  -1.300   2.831  0.00  0.00    +0.000 C 
ATOM      7  C   UNL     1      10.816  -2.638   2.743  0.00  0.00    +0.000 C 
ATOM      8  C   UNL     1       9.502  -2.298   1.971  0.00  0.00    +0.000 C 
ENDROOT
BRANCH   6   9
ATOM      9  N   UNL     1      12.704  -0.074   4.063  0.00  0.00    +0.000 N 
ATOM     10  C   UNL     1      13.490   0.274   2.952  0.00  0.00    +0.000 C 
ATOM     11  O   UNL     1      14.269  -0.456   2.267  0.00  0.00    +0.000 OA
ATOM     12  O   UNL     1      13.136   1.430   2.436  0.00  0.00    +0.000 OA
ATOM     13  C   UNL     1      14.104   2.170   3.061  0.00  0.00    +0.000 C 
ATOM     14  C   UNL     1      13.181   2.678   4.087  0.00  0.00    +0.000 A 
ATOM     15  C   UNL     1      13.351   4.202   4.167  0.00  0.00    +0.000 A 
ATOM     16  C   UNL     1      13.508   4.987   5.273  0.00  0.00    +0.000 A 
ATOM     17  C   UNL     1      13.520   4.153   6.359  0.00  0.00    +0.000 A 
ATOM     18  C   UNL     1      13.250   2.492   6.228  0.00  0.00    +0.000 A 
ATOM     19  C   UNL     1      12.820   1.602   4.923  0.00  0.00    +0.000 A 
ENDBRANCH   6   9
BRANCH   1  23
ATOM     20  C   UNL     1       4.417  -1.528  -0.584  0.00  0.00    +0.000 A 
ATOM     21  C   UNL     1       5.005  -2.253  -1.614  0.00  0.00    +0.000 A 
ATOM     22  C   UNL     1       6.371  -2.635  -1.533  0.00  0.00    +0.000 A 
ATOM     23  C   UNL     1       7.208  -2.210  -0.461  0.00  0.00    +0.000 A 
ATOM     24  C   UNL     1       6.577  -1.467   0.541  0.00  0.00    +0.000 A 
ATOM     25  C   UNL     1       5.211  -1.152   0.484  0.00  0.00    +0.000 A 
BRANCH  24  26
ATOM     26  O   UNL     1       7.337  -1.041   1.572  0.00  0.00    +0.000 OA
ATOM     27  C   UNL     1       6.746  -0.436   2.700  0.00  0.00    +0.000 C 
ENDBRANCH  24  26
BRANCH  20  28
ATOM     28  O   UNL     1       3.064  -1.315  -0.619  0.00  0.00    +0.000 OA
BRANCH  28  30
ATOM     29  C   UNL     1       1.093  -0.061  -0.055  0.00  0.00    +0.000 C 
ATOM     30  C   UNL     1       2.611  -0.067  -0.074  0.00  0.00    +0.000 C 
ENDBRANCH  28  30
ENDBRANCH  20  28
ENDBRANCH   1  23
TORSDOF 5
