REMARK  Name = CHEMBL2037503
REMARK  11 active torsions:
REMARK  status: ('A' for Active; 'I' for Inactive)
REMARK    1  A    between atoms: CD1_1  and  CG1_2
REMARK    2  A    between atoms: CG1_2  and  CB_3
REMARK    3  A    between atoms: CB_3  and  CG2_4
REMARK    4  A    between atoms: CB_3  and  CA_5
REMARK    5  A    between atoms: C_9  and  C_10
REMARK    6  A    between atoms: N_21  and  C_22
REMARK    7  A    between atoms: C_22  and  C_23
REMARK    8  A    between atoms: C_22  and  C_27
REMARK    9  A    between atoms: N_25  and  C_26
REMARK   10  A    between atoms: C_29  and  C_30
REMARK   11  A    between atoms: C_33  and  C_34
REMARK                            x       y       z     vdW  Elec       q    Type
REMARK                         _______ _______ _______ _____ _____    ______ ____
ROOT
ATOM      1  CA  ILE A   2       4.714   0.165  -1.305  0.00  0.00    +0.000 C 
ATOM      2  C   ILE A   2       5.234   1.062  -2.458  0.00  0.00    +0.000 C 
ATOM      3  O   ILE A   2       4.794   2.083  -2.919  0.00  0.00    +0.000 OA
ATOM      4  N   UNK A   1       6.442   0.700  -2.908  0.00  0.00    +0.000 N 
ATOM      5  C   UNK A   1       7.267  -0.252  -2.241  0.00  0.00    +0.000 C 
ATOM      6  C   UNK A   1       6.420  -1.502  -2.044  0.00  0.00    +0.000 C 
ATOM      7  O   UNK A   1       6.969  -2.582  -2.222  0.00  0.00    +0.000 OA
ATOM      8  N   ILE A   2       5.098  -1.301  -1.603  0.00  0.00    +0.000 N 
ATOM      9  H   UNK A   1       6.770   1.340  -3.617  0.00  0.00    +0.000 HD
ENDROOT
BRANCH   5  10
ATOM     10  C   UNK A   1       8.467  -0.648  -3.118  0.00  0.00    +0.000 C 
ATOM     11  C   UNK A   1       9.329   0.578  -3.450  0.00  0.00    +0.000 C 
ATOM     12  C   UNK A   1       8.696   1.045  -4.729  0.00  0.00    +0.000 A 
ATOM     13  C   UNK A   1       8.687   2.327  -5.245  0.00  0.00    +0.000 A 
ATOM     14  C   UNK A   1       7.896   2.581  -6.367  0.00  0.00    +0.000 A 
ATOM     15  C   UNK A   1       7.111   1.568  -6.944  0.00  0.00    +0.000 A 
ATOM     16  C   UNK A   1       7.104   0.281  -6.406  0.00  0.00    +0.000 A 
ATOM     17  C   UNK A   1       7.913   0.033  -5.309  0.00  0.00    +0.000 A 
ATOM     18  C   UNK A   1       7.977  -1.216  -4.487  0.00  0.00    +0.000 C 
ENDBRANCH   5  10
BRANCH   1  19
ATOM     19  CB  ILE A   2       3.221   0.330  -1.201  0.00  0.00    +0.000 C 
ATOM     20  CG2 ILE A   2       2.645   0.098   0.193  0.00  0.00    +0.000 C 
BRANCH  19  22
ATOM     21  CD1 ILE A   2       2.596   2.691  -1.204  0.00  0.00    +0.000 C 
ATOM     22  CG1 ILE A   2       2.450   1.404  -1.962  0.00  0.00    +0.000 C 
ENDBRANCH  19  22
ENDBRANCH   1  19
BRANCH   8  23
ATOM     23  C   UNK A   0       4.111  -2.509  -1.458  0.00  0.00    +0.000 C 
BRANCH  23  24
ATOM     24  C   UNK A   0       4.855  -3.884  -1.457  0.00  0.00    +0.000 A 
ATOM     25  C   UNK A   0       4.602  -4.818  -2.472  0.00  0.00    +0.000 A 
ATOM     26  C   UNK A   0       5.336  -5.972  -2.675  0.00  0.00    +0.000 A 
ATOM     27  C   UNK A   0       4.934  -6.882  -3.791  0.00  0.00    +0.000 C 
ATOM     28  C   UNK A   0       6.379  -6.183  -1.808  0.00  0.00    +0.000 A 
ATOM     29  N   UNK A   0       6.663  -5.367  -0.759  0.00  0.00    +0.000 NA
ATOM     30  C   UNK A   0       5.910  -4.231  -0.584  0.00  0.00    +0.000 A 
ATOM     31  C   UNK A   0       6.396  -3.314   0.517  0.00  0.00    +0.000 C 
ENDBRANCH  23  24
BRANCH  23  32
ATOM     32  C   UNK A   0       2.788  -2.534  -2.533  0.00  0.00    +0.000 C 
ATOM     33  O   UNK A   0       2.795  -3.127  -3.615  0.00  0.00    +0.000 OA
ATOM     34  N   UNK A   0       1.628  -1.792  -2.313  0.00  0.00    +0.000 N 
ATOM     35  C   UNK A   0       0.822  -1.378  -3.453  0.00  0.00    +0.000 C 
ATOM     36  H   UNK A   0       1.499  -1.202  -1.509  0.00  0.00    +0.000 HD
ENDBRANCH  23  32
ENDBRANCH   8  23
TORSDOF 6
