REMARK  Name = CHEMBL279230
REMARK  8 active torsions:
REMARK  status: ('A' for Active; 'I' for Inactive)
REMARK    1  A    between atoms: C_1  and  O_2
REMARK    2  A    between atoms: O_2  and  C_3
REMARK    3  A    between atoms: C_5  and  O_6
REMARK    4  A    between atoms: O_6  and  C_7
REMARK    5  A    between atoms: C_11  and  C_12
REMARK    6  A    between atoms: C_18  and  C_19
REMARK    7  A    between atoms: C_19  and  C_20
REMARK    8  A    between atoms: C_25  and  N_26
REMARK                            x       y       z     vdW  Elec       q    Type
REMARK                         _______ _______ _______ _____ _____    ______ ____
ROOT
ATOM      1  C   UNL     1       1.316   2.288  -1.056  0.00  0.00    +0.000 C 
ENDROOT
BRANCH   1   2
ATOM      2  C   UNL     1       0.853   2.156   0.392  0.00  0.00    +0.000 C 
ATOM      3  O   UNL     1       1.730   1.933   1.240  0.00  0.00    +0.000 OA
ATOM      4  N   UNL     1      -0.523   2.235   0.773  0.00  0.00    +0.000 N 
ATOM      5  C   UNL     1      -0.719   2.374   2.210  0.00  0.00    +0.000 C 
ATOM      6  C   UNL     1      -2.077   1.894   2.757  0.00  0.00    +0.000 C 
ATOM      7  C   UNL     1      -3.475   2.813   2.175  0.00  0.00    +0.000 C 
ATOM      8  C   UNL     1      -3.128   2.315   0.548  0.00  0.00    +0.000 C 
ATOM      9  C   UNL     1      -1.681   2.692  -0.033  0.00  0.00    +0.000 C 
BRANCH   7  10
ATOM     10  N   UNL     1      -4.529   3.912   3.208  0.00  0.00    +0.000 N 
ATOM     11  C   UNL     1      -3.894   3.359   4.300  0.00  0.00    +0.000 C 
ATOM     12  O   UNL     1      -4.003   2.115   4.656  0.00  0.00    +0.000 OA
ATOM     13  O   UNL     1      -2.924   4.084   4.826  0.00  0.00    +0.000 OA
ATOM     14  C   UNL     1      -3.687   4.783   5.750  0.00  0.00    +0.000 C 
ATOM     15  C   UNL     1      -4.000   5.890   4.840  0.00  0.00    +0.000 A 
ATOM     16  C   UNL     1      -3.422   7.165   4.779  0.00  0.00    +0.000 A 
ATOM     17  C   UNL     1      -4.200   8.310   4.907  0.00  0.00    +0.000 A 
ATOM     18  C   UNL     1      -5.530   8.029   4.977  0.00  0.00    +0.000 A 
ATOM     19  C   UNL     1      -5.902   6.599   4.490  0.00  0.00    +0.000 A 
ATOM     20  C   UNL     1      -4.844   5.594   3.845  0.00  0.00    +0.000 A 
ENDBRANCH   7  10
ENDBRANCH   1   2
BRANCH   1  26
ATOM     21  C   UNL     1       2.915   0.116  -0.993  0.00  0.00    +0.000 A 
ATOM     22  C   UNL     1       4.129  -0.523  -1.448  0.00  0.00    +0.000 A 
ATOM     23  C   UNL     1       4.853   0.029  -2.469  0.00  0.00    +0.000 A 
ATOM     24  C   UNL     1       4.197   1.089  -3.013  0.00  0.00    +0.000 A 
ATOM     25  C   UNL     1       3.114   1.815  -2.582  0.00  0.00    +0.000 A 
ATOM     26  C   UNL     1       2.453   1.363  -1.488  0.00  0.00    +0.000 A 
BRANCH  21  28
ATOM     27  C   UNL     1       0.897  -0.694  -0.112  0.00  0.00    +0.000 C 
ATOM     28  O   UNL     1       2.303  -0.584   0.002  0.00  0.00    +0.000 OA
ENDBRANCH  21  28
BRANCH  23  29
ATOM     29  O   UNL     1       6.060  -0.428  -2.906  0.00  0.00    +0.000 OA
BRANCH  29  30
ATOM     30  C   UNL     1       6.898   0.269  -3.894  0.00  0.00    +0.000 C 
ATOM     31  C   UNL     1       7.360   1.697  -3.543  0.00  0.00    +0.000 C 
ATOM     32  C   UNL     1       6.324   2.751  -3.837  0.00  0.00    +0.000 C 
ATOM     33  N   UNL     1       5.716   2.556  -5.217  0.00  0.00    +0.000 N 
ATOM     34  C   UNL     1       5.405   3.616  -6.050  0.00  0.00    +0.000 C 
ATOM     35  C   UNL     1       5.770   5.015  -5.622  0.00  0.00    +0.000 C 
ATOM     36  O   UNL     1       4.884   3.446  -7.154  0.00  0.00    +0.000 OA
ATOM     37  C   UNL     1       5.338   1.154  -5.722  0.00  0.00    +0.000 C 
ATOM     38  C   UNL     1       6.413   0.151  -5.355  0.00  0.00    +0.000 C 
ENDBRANCH  29  30
ENDBRANCH  23  29
ENDBRANCH   1  26
TORSDOF 6
