REMARK  Name = CHEMBL285013
REMARK  7 active torsions:
REMARK  status: ('A' for Active; 'I' for Inactive)
REMARK    1  A    between atoms: C_1  and  S_2
REMARK    2  A    between atoms: S_2  and  N_5
REMARK    3  A    between atoms: N_5  and  C_6
REMARK    4  A    between atoms: C_6  and  C_7
REMARK    5  A    between atoms: C_7  and  N_8
REMARK    6  A    between atoms: C_13  and  C_14
REMARK    7  A    between atoms: C_19  and  N_20
REMARK                            x       y       z     vdW  Elec       q    Type
REMARK                         _______ _______ _______ _____ _____    ______ ____
ROOT
ATOM      1  C   UNL     1      10.979   2.341  -6.137  0.00  0.00    +0.000 C 
ATOM      2  O   UNL     1      12.128   2.198  -5.711  0.00  0.00    +0.000 OA
ATOM      3  N   UNL     1      10.694   2.358  -7.549  0.00  0.00    +0.000 N 
ATOM      4  C   UNL     1      11.103   1.243  -8.417  0.00  0.00    +0.000 C 
ATOM      5  C   UNL     1      11.701   1.689  -9.778  0.00  0.00    +0.000 C 
ATOM      6  C   UNL     1      10.536   2.599 -10.819  0.00  0.00    +0.000 C 
ATOM      7  C   UNL     1      10.434   3.852  -9.603  0.00  0.00    +0.000 C 
ATOM      8  C   UNL     1       9.863   3.359  -8.234  0.00  0.00    +0.000 C 
ENDROOT
BRANCH   6   9
ATOM      9  N   UNL     1       9.578   2.030 -12.331  0.00  0.00    +0.000 N 
ATOM     10  C   UNL     1      10.702   1.168 -12.456  0.00  0.00    +0.000 C 
ATOM     11  O   UNL     1      11.938   1.451 -12.486  0.00  0.00    +0.000 OA
ATOM     12  O   UNL     1      10.393  -0.092 -12.237  0.00  0.00    +0.000 OA
ATOM     13  C   UNL     1      10.361  -0.495 -13.546  0.00  0.00    +0.000 C 
ATOM     14  C   UNL     1       8.912  -0.381 -13.670  0.00  0.00    +0.000 A 
ATOM     15  C   UNL     1       8.403  -1.655 -14.391  0.00  0.00    +0.000 A 
ATOM     16  C   UNL     1       7.361  -1.778 -15.256  0.00  0.00    +0.000 A 
ATOM     17  C   UNL     1       6.821  -0.527 -15.402  0.00  0.00    +0.000 A 
ATOM     18  C   UNL     1       7.324   0.818 -14.509  0.00  0.00    +0.000 A 
ATOM     19  C   UNL     1       8.460   0.939 -13.380  0.00  0.00    +0.000 A 
ENDBRANCH   6   9
BRANCH   1  25
ATOM     20  N   UNL     1       6.913   2.354  -2.065  0.00  0.00    +0.000 N 
ATOM     21  C   UNL     1       7.699   2.379  -0.935  0.00  0.00    +0.000 A 
ATOM     22  C   UNL     1       9.019   2.364  -1.323  0.00  0.00    +0.000 A 
ATOM     23  C   UNL     1       9.063   2.372  -2.745  0.00  0.00    +0.000 A 
ATOM     24  C   UNL     1      10.125   2.382  -3.702  0.00  0.00    +0.000 A 
ATOM     25  C   UNL     1       9.856   2.400  -5.096  0.00  0.00    +0.000 A 
ATOM     26  C   UNL     1       8.519   2.365  -5.481  0.00  0.00    +0.000 A 
ATOM     27  C   UNL     1       7.450   2.362  -4.562  0.00  0.00    +0.000 A 
ATOM     28  C   UNL     1       7.732   2.366  -3.189  0.00  0.00    +0.000 A 
BRANCH  20  29
ATOM     29  C   UNL     1       5.445   2.325  -2.026  0.00  0.00    +0.000 C 
BRANCH  29  30
ATOM     30  C   UNL     1       4.902   1.264  -1.057  0.00  0.00    +0.000 C 
BRANCH  30  31
ATOM     31  N   UNL     1       3.393   1.236  -0.980  0.00  0.00    +0.000 NA
ATOM     32  H   UNL     1       3.035   2.144  -0.674  0.00  0.00    +0.000 HD
BRANCH  31  34
ATOM     33  C   UNL     1       1.092   0.087   0.039  0.00  0.00    +0.000 C 
ATOM     34  S   UNL     1       2.876   0.017   0.110  0.00  0.00    +0.000 S 
ATOM     35  O   UNL     1       3.291   0.464   1.422  0.00  0.00    +0.000 OA
ATOM     36  O   UNL     1       3.308  -1.251  -0.431  0.00  0.00    +0.000 OA
ENDBRANCH  31  34
ENDBRANCH  30  31
ENDBRANCH  29  30
ENDBRANCH  20  29
ENDBRANCH   1  25
TORSDOF 6
