REMARK  Name = CHEMBL278988
REMARK  8 active torsions:
REMARK  status: ('A' for Active; 'I' for Inactive)
REMARK    1  A    between atoms: C_1  and  C_2
REMARK    2  A    between atoms: N_4  and  C_5
REMARK    3  A    between atoms: C_7  and  C_8
REMARK    4  A    between atoms: N_20  and  C_21
REMARK    5  A    between atoms: C_21  and  C_22
REMARK    6  A    between atoms: N_24  and  C_25
REMARK    7  A    between atoms: C_25  and  C_26
REMARK    8  A    between atoms: C_28  and  C_29
REMARK                            x       y       z     vdW  Elec       q    Type
REMARK                         _______ _______ _______ _____ _____    ______ ____
ROOT
ATOM      1  C   UNL     1       4.736  -0.933  -0.677  0.00  0.00    +0.000 C 
ATOM      2  N   UNL     1       5.173  -2.242  -1.188  0.00  0.00    +0.000 NA
ATOM      3  C   UNL     1       6.443  -2.463  -1.358  0.00  0.00    +0.000 C 
ATOM      4  C   UNL     1       7.531  -1.445  -1.188  0.00  0.00    +0.000 A 
ATOM      5  C   UNL     1       8.628  -1.491  -2.072  0.00  0.00    +0.000 A 
ATOM      6  C   UNL     1       9.696  -0.599  -1.942  0.00  0.00    +0.000 A 
ATOM      7  C   UNL     1       9.648   0.398  -0.980  0.00  0.00    +0.000 A 
ATOM      8  C   UNL     1       8.539   0.497  -0.146  0.00  0.00    +0.000 A 
ATOM      9  C   UNL     1       7.523  -0.475  -0.167  0.00  0.00    +0.000 A 
ATOM     10  N   UNL     1       6.625  -0.530   0.936  0.00  0.00    +0.000 N 
ATOM     11  C   UNL     1       5.267  -0.796   0.789  0.00  0.00    +0.000 C 
ATOM     12  O   UNL     1       4.540  -0.897   1.786  0.00  0.00    +0.000 OA
ENDROOT
BRANCH   3  13
ATOM     13  C   UNL     1       6.847  -3.856  -1.761  0.00  0.00    +0.000 A 
ATOM     14  C   UNL     1       6.349  -4.411  -2.944  0.00  0.00    +0.000 A 
ATOM     15  C   UNL     1       6.535  -5.772  -3.209  0.00  0.00    +0.000 A 
ATOM     16  C   UNL     1       7.301  -6.556  -2.347  0.00  0.00    +0.000 A 
ATOM     17  C   UNL     1       7.915  -5.972  -1.240  0.00  0.00    +0.000 A 
ATOM     18  C   UNL     1       7.657  -4.633  -0.920  0.00  0.00    +0.000 A 
ENDBRANCH   3  13
BRANCH   1  22
ATOM     19  C   UNL     1       1.107   0.040  -0.062  0.00  0.00    +0.000 C 
ATOM     20  C   UNL     1       2.609   0.159  -0.103  0.00  0.00    +0.000 C 
ATOM     21  O   UNL     1       3.175   1.158   0.338  0.00  0.00    +0.000 OA
ATOM     22  N   UNL     1       3.282  -0.913  -0.653  0.00  0.00    +0.000 N 
ATOM     23  H   UNL     1       2.803  -1.634  -1.168  0.00  0.00    +0.000 HD
ENDBRANCH   1  22
BRANCH  10  24
ATOM     24  C   UNL     1       7.110  -0.351   2.322  0.00  0.00    +0.000 C 
BRANCH  24  25
ATOM     25  C   UNL     1       8.623  -0.461   2.599  0.00  0.00    +0.000 C 
ATOM     26  O   UNL     1       9.416  -1.028   1.836  0.00  0.00    +0.000 OA
ATOM     27  N   UNL     1       9.109   0.092   3.759  0.00  0.00    +0.000 N 
ATOM     28  H   UNL     1       8.516   0.129   4.582  0.00  0.00    +0.000 HD
BRANCH  27  29
ATOM     29  C   UNL     1      10.559   0.128   3.894  0.00  0.00    +0.000 C 
BRANCH  29  30
ATOM     30  C   UNL     1      10.986   0.250   5.296  0.00  0.00    +0.000 A 
ATOM     31  N   UNL     1      11.367  -0.690   6.129  0.00  0.00    +0.000 NA
ATOM     32  C   UNL     1      11.604   0.021   7.279  0.00  0.00    +0.000 A 
ATOM     33  N   UNL     1      11.387   1.342   7.166  0.00  0.00    +0.000 NA
ATOM     34  O   UNL     1      10.998   1.498   5.837  0.00  0.00    +0.000 OA
BRANCH  32  35
ATOM     35  C   UNL     1      11.976  -0.633   8.517  0.00  0.00    +0.000 A 
ATOM     36  C   UNL     1      13.064  -1.514   8.565  0.00  0.00    +0.000 A 
ATOM     37  C   UNL     1      13.350  -2.208   9.744  0.00  0.00    +0.000 A 
ATOM     38  C   UNL     1      12.605  -1.960  10.896  0.00  0.00    +0.000 A 
ATOM     39  C   UNL     1      11.574  -1.023  10.873  0.00  0.00    +0.000 A 
ATOM     40  C   UNL     1      11.227  -0.399   9.675  0.00  0.00    +0.000 A 
ENDBRANCH  32  35
ENDBRANCH  29  30
ENDBRANCH  27  29
ENDBRANCH  24  25
ENDBRANCH  10  24
TORSDOF 7
