REMARK  Name = CHEMBL549633
REMARK  9 active torsions:
REMARK  status: ('A' for Active; 'I' for Inactive)
REMARK    1  A    between atoms: C_1  and  O_2
REMARK    2  A    between atoms: O_2  and  C_3
REMARK    3  A    between atoms: C_6  and  N_7
REMARK    4  A    between atoms: C_8  and  C_9
REMARK    5  A    between atoms: C_12  and  C_13
REMARK    6  A    between atoms: C_16  and  O_17
REMARK    7  A    between atoms: O_17  and  C_18
REMARK    8  A    between atoms: C_23  and  O_24
REMARK    9  A    between atoms: O_24  and  C_25
REMARK                            x       y       z     vdW  Elec       q    Type
REMARK                         _______ _______ _______ _____ _____    ______ ____
ROOT
ATOM      1  C   UNL     1       5.750  -0.293  -5.352  0.00  0.00    +0.000 A 
ATOM      2  C   UNL     1       5.987   0.522  -4.246  0.00  0.00    +0.000 A 
ATOM      3  N   UNL     1       5.811   1.873  -4.247  0.00  0.00    +0.000 NA
ATOM      4  C   UNL     1       5.544   2.404  -5.460  0.00  0.00    +0.000 A 
ATOM      5  C   UNL     1       5.321   1.599  -6.579  0.00  0.00    +0.000 A 
ATOM      6  N   UNL     1       5.389   0.237  -6.546  0.00  0.00    +0.000 NA
ENDROOT
BRANCH   1  12
ATOM      7  N   UNL     1       5.138  -2.476  -4.228  0.00  0.00    +0.000 N 
ATOM      8  C   UNL     1       5.492  -3.804  -4.463  0.00  0.00    +0.000 A 
ATOM      9  C   UNL     1       4.999  -5.024  -3.764  0.00  0.00    +0.000 C 
ATOM     10  N   UNL     1       6.265  -3.860  -5.525  0.00  0.00    +0.000 NA
ATOM     11  N   UNL     1       6.428  -2.592  -6.018  0.00  0.00    +0.000 NA
ATOM     12  C   UNL     1       5.767  -1.758  -5.251  0.00  0.00    +0.000 A 
BRANCH   7  16
ATOM     13  C   UNL     1       3.135  -0.578  -1.095  0.00  0.00    +0.000 A 
ATOM     14  C   UNL     1       2.783  -0.246  -2.392  0.00  0.00    +0.000 A 
ATOM     15  C   UNL     1       3.400  -0.923  -3.447  0.00  0.00    +0.000 A 
ATOM     16  C   UNL     1       4.369  -1.904  -3.181  0.00  0.00    +0.000 A 
ATOM     17  C   UNL     1       4.706  -2.119  -1.853  0.00  0.00    +0.000 A 
ATOM     18  N   UNL     1       4.108  -1.477  -0.815  0.00  0.00    +0.000 NA
BRANCH  13  20
ATOM     19  C   UNL     1       1.156   0.032  -0.001  0.00  0.00    +0.000 C 
ATOM     20  O   UNL     1       2.583   0.044  -0.004  0.00  0.00    +0.000 OA
ENDBRANCH  13  20
ENDBRANCH   7  16
ENDBRANCH   1  12
BRANCH   4  21
ATOM     21  O   UNL     1       5.779   3.752  -5.706  0.00  0.00    +0.000 OA
BRANCH  21  22
ATOM     22  C   UNL     1       6.551   4.497  -4.833  0.00  0.00    +0.000 A 
ATOM     23  C   UNL     1       5.906   5.683  -4.420  0.00  0.00    +0.000 A 
ATOM     24  C   UNL     1       6.570   6.664  -3.677  0.00  0.00    +0.000 A 
ATOM     25  C   UNL     1       7.879   6.451  -3.276  0.00  0.00    +0.000 A 
ATOM     26  C   UNL     1       8.532   5.287  -3.676  0.00  0.00    +0.000 A 
ATOM     27  C   UNL     1       7.909   4.322  -4.496  0.00  0.00    +0.000 A 
BRANCH  27  28
ATOM     28  O   UNL     1       8.836   3.390  -4.882  0.00  0.00    +0.000 OA
ATOM     29  C   UNL     1       8.459   2.344  -5.740  0.00  0.00    +0.000 C 
ENDBRANCH  27  28
ENDBRANCH  21  22
ENDBRANCH   4  21
TORSDOF 6
