REMARK  Name = CHEMBL1779420
REMARK  12 active torsions:
REMARK  status: ('A' for Active; 'I' for Inactive)
REMARK    1  A    between atoms: C_1  and  O_2
REMARK    2  A    between atoms: O_2  and  C_3
REMARK    3  A    between atoms: C_6  and  S_7
REMARK    4  A    between atoms: S_7  and  N_10
REMARK    5  A    between atoms: C_13  and  C_14
REMARK    6  A    between atoms: C_13  and  N_30
REMARK    7  A    between atoms: C_16  and  C_17
REMARK    8  A    between atoms: C_17  and  N_18
REMARK    9  A    between atoms: N_21  and  C_22
REMARK   10  A    between atoms: C_27  and  O_28
REMARK   11  A    between atoms: O_28  and  C_29
REMARK   12  A    between atoms: C_34  and  C_35
REMARK                            x       y       z     vdW  Elec       q    Type
REMARK                         _______ _______ _______ _____ _____    ______ ____
ROOT
ATOM      1  N   UNL     1       5.683  -7.584   1.816  0.00  0.00    +0.000 N 
ATOM      2  C   UNL     1       5.905  -7.664   0.449  0.00  0.00    +0.000 C 
ATOM      3  O   UNL     1       7.068  -7.425   0.107  0.00  0.00    +0.000 OA
ATOM      4  C   UNL     1       4.938  -8.752  -0.161  0.00  0.00    +0.000 C 
ATOM      5  C   UNL     1       5.892  -9.919   0.408  0.00  0.00    +0.000 A 
ATOM      6  C   UNL     1       5.996 -11.519   0.059  0.00  0.00    +0.000 A 
ATOM      7  C   UNL     1       6.297 -12.517   0.910  0.00  0.00    +0.000 A 
ATOM      8 CL   UNL     1       5.630 -14.123   0.784  0.00  0.00    +0.000 Cl
ATOM      9  C   UNL     1       7.117 -11.962   1.809  0.00  0.00    +0.000 A 
ATOM     10  C   UNL     1       7.167 -10.379   2.130  0.00  0.00    +0.000 A 
ATOM     11  C   UNL     1       6.405  -9.278   1.567  0.00  0.00    +0.000 A 
ENDROOT
BRANCH   4  12
ATOM     12  C   UNL     1       3.412  -8.882   0.516  0.00  0.00    +0.000 A 
ATOM     13  C   UNL     1       2.705  -7.758   0.929  0.00  0.00    +0.000 A 
ATOM     14  C   UNL     1       1.425  -7.905   1.514  0.00  0.00    +0.000 A 
ATOM     15  C   UNL     1       0.827  -9.157   1.749  0.00  0.00    +0.000 A 
ATOM     16  C   UNL     1       1.484 -10.282   1.392  0.00  0.00    +0.000 A 
ATOM     17  C   UNL     1       2.605 -10.101   0.616  0.00  0.00    +0.000 A 
BRANCH  17  18
ATOM     18  O   UNL     1       2.590 -11.204  -0.263  0.00  0.00    +0.000 OA
ATOM     19  C   UNL     1       3.716 -11.036  -0.993  0.00  0.00    +0.000 C 
ENDBRANCH  17  18
BRANCH  14  20
ATOM     20  C   UNL     1       0.782  -6.718   2.156  0.00  0.00    +0.000 C 
BRANCH  20  21
ATOM     21  N   UNL     1       0.757  -6.936   3.597  0.00  0.00    +0.000 NA
ATOM     22  C   UNL     1       0.094  -5.815   4.257  0.00  0.00    +0.000 C 
ATOM     23  C   UNL     1      -0.007  -6.058   5.773  0.00  0.00    +0.000 C 
ATOM     24  N   UNL     1       1.282  -6.350   6.439  0.00  0.00    +0.000 NA
ATOM     25  C   UNL     1       2.097  -5.138   6.511  0.00  0.00    +0.000 C 
ATOM     26  C   UNL     1       2.016  -7.392   5.688  0.00  0.00    +0.000 C 
ATOM     27  C   UNL     1       2.108  -7.114   4.177  0.00  0.00    +0.000 C 
ENDBRANCH  20  21
ENDBRANCH  14  20
ENDBRANCH   4  12
BRANCH   4  28
ATOM     28  N   UNL     1       4.889  -8.484  -1.614  0.00  0.00    +0.000 NA
ATOM     29  C   UNL     1       6.137  -7.986  -2.191  0.00  0.00    +0.000 C 
ATOM     30  C   UNL     1       5.971  -6.478  -2.071  0.00  0.00    +0.000 C 
ATOM     31  C   UNL     1       4.525  -6.264  -2.429  0.00  0.00    +0.000 C 
ATOM     32  C   UNL     1       3.812  -7.554  -2.049  0.00  0.00    +0.000 C 
BRANCH  32  33
ATOM     33  C   UNL     1       3.039  -8.119  -3.195  0.00  0.00    +0.000 A 
ATOM     34  N   UNL     1       3.509  -8.479  -4.368  0.00  0.00    +0.000 NA
ATOM     35  C   UNL     1       2.410  -8.944  -5.024  0.00  0.00    +0.000 A 
ATOM     36  C   UNL     1       1.299  -8.845  -4.226  0.00  0.00    +0.000 A 
ATOM     37  O   UNL     1       1.688  -8.312  -3.032  0.00  0.00    +0.000 OA
ENDBRANCH  32  33
ENDBRANCH   4  28
BRANCH   1  38
ATOM     38  S   UNL     1       5.964  -5.429   1.677  0.00  0.00    +0.000 S 
ATOM     39  O   UNL     1       7.180  -5.110   0.863  0.00  0.00    +0.000 OA
ATOM     40  O   UNL     1       5.880  -5.036   3.035  0.00  0.00    +0.000 OA
BRANCH  38  44
ATOM     41  C   UNL     1       3.194  -1.212   0.357  0.00  0.00    +0.000 A 
ATOM     42  C   UNL     1       4.361  -1.206   1.115  0.00  0.00    +0.000 A 
ATOM     43  C   UNL     1       5.141  -2.435   1.345  0.00  0.00    +0.000 A 
ATOM     44  C   UNL     1       4.737  -3.782   0.930  0.00  0.00    +0.000 A 
ATOM     45  C   UNL     1       3.589  -3.723   0.107  0.00  0.00    +0.000 A 
ATOM     46  C   UNL     1       2.846  -2.457  -0.173  0.00  0.00    +0.000 A 
BRANCH  41  48
ATOM     47  C   UNL     1       1.138   0.009   0.018  0.00  0.00    +0.000 C 
ATOM     48  O   UNL     1       2.571  -0.009   0.109  0.00  0.00    +0.000 OA
ENDBRANCH  41  48
ENDBRANCH  38  44
ENDBRANCH   1  38
TORSDOF 9
