REMARK  Name = CHEMBL1089026
REMARK  9 active torsions:
REMARK  status: ('A' for Active; 'I' for Inactive)
REMARK    1  A    between atoms: C_1  and  O_2
REMARK    2  A    between atoms: O_2  and  C_3
REMARK    3  A    between atoms: C_6  and  N_7
REMARK    4  A    between atoms: N_7  and  C_23
REMARK    5  A    between atoms: C_8  and  C_10
REMARK    6  A    between atoms: C_13  and  C_14
REMARK    7  A    between atoms: C_19  and  C_20
REMARK    8  A    between atoms: C_23  and  C_24
REMARK    9  A    between atoms: C_23  and  C_25
REMARK                            x       y       z     vdW  Elec       q    Type
REMARK                         _______ _______ _______ _____ _____    ______ ____
ROOT
ATOM      1  N   UNL     1       5.638  -3.795   2.376  0.00  0.00    +0.000 N 
ATOM      2  C   UNL     1       6.764  -3.383   3.174  0.00  0.00    +0.000 C 
ATOM      3  O   UNL     1       7.567  -4.159   3.715  0.00  0.00    +0.000 OA
ENDROOT
BRANCH   1   7
ATOM      4  C   UNL     1       3.073  -0.952   0.458  0.00  0.00    +0.000 A 
ATOM      5  C   UNL     1       2.703  -2.284   0.439  0.00  0.00    +0.000 A 
ATOM      6  C   UNL     1       3.513  -3.233   1.099  0.00  0.00    +0.000 A 
ATOM      7  C   UNL     1       4.743  -2.871   1.664  0.00  0.00    +0.000 A 
ATOM      8  C   UNL     1       5.056  -1.537   1.428  0.00  0.00    +0.000 A 
ATOM      9  N   UNL     1       4.244  -0.570   0.953  0.00  0.00    +0.000 NA
BRANCH   4  11
ATOM     10  C   UNL     1       1.015   0.039  -0.052  0.00  0.00    +0.000 C 
ATOM     11  O   UNL     1       2.424   0.066  -0.160  0.00  0.00    +0.000 OA
ENDBRANCH   4  11
ENDBRANCH   1   7
BRANCH   2  12
ATOM     12  C   UNL     1       7.109  -1.979   3.462  0.00  0.00    +0.000 A 
ATOM     13  C   UNL     1       6.178  -1.086   3.963  0.00  0.00    +0.000 A 
ATOM     14  N   UNL     1       6.412   0.247   3.968  0.00  0.00    +0.000 NA
ATOM     15  C   UNL     1       7.644   0.658   3.561  0.00  0.00    +0.000 A 
ATOM     16  C   UNL     1       8.610  -0.265   3.177  0.00  0.00    +0.000 A 
ATOM     17  N   UNL     1       8.361  -1.590   3.089  0.00  0.00    +0.000 NA
BRANCH  15  18
ATOM     18  C   UNL     1       7.922   2.095   3.633  0.00  0.00    +0.000 A 
ATOM     19  C   UNL     1       8.465   2.777   2.523  0.00  0.00    +0.000 A 
ATOM     20  C   UNL     1       8.794   4.131   2.601  0.00  0.00    +0.000 A 
ATOM     21  C   UNL     1       8.576   4.829   3.784  0.00  0.00    +0.000 A 
ATOM     22  C   UNL     1       8.028   4.177   4.888  0.00  0.00    +0.000 A 
ATOM     23  C   UNL     1       7.697   2.817   4.827  0.00  0.00    +0.000 A 
ATOM     24  C   UNL     1       7.142   2.138   6.052  0.00  0.00    +0.000 C 
ENDBRANCH  15  18
ENDBRANCH   2  12
BRANCH   1  25
ATOM     25  C   UNL     1       5.339  -5.271   2.255  0.00  0.00    +0.000 C 
ATOM     26  C   UNL     1       5.376  -5.768   0.796  0.00  0.00    +0.000 C 
ATOM     27  C   UNL     1       6.270  -6.223   3.033  0.00  0.00    +0.000 C 
ENDBRANCH   1  25
TORSDOF 5
