REMARK  Name = CHEMBL475561
REMARK  7 active torsions:
REMARK  status: ('A' for Active; 'I' for Inactive)
REMARK    1  A    between atoms: C_2  and  C_3
REMARK    2  A    between atoms: C_8  and  C_9
REMARK    3  A    between atoms: C_12  and  C_13
REMARK    4  A    between atoms: N_15  and  C_16
REMARK    5  A    between atoms: N_15  and  C_20
REMARK    6  A    between atoms: C_16  and  C_17
REMARK    7  A    between atoms: C_20  and  C_21
REMARK                            x       y       z     vdW  Elec       q    Type
REMARK                         _______ _______ _______ _____ _____    ______ ____
ROOT
ATOM      1  C   UNL     1      -0.419  -2.445   0.225  0.00  0.00    +0.000 A 
ATOM      2  C   UNL     1      -0.304  -3.456   1.192  0.00  0.00    +0.000 A 
ATOM      3  C   UNL     1      -0.875  -4.758   1.009  0.00  0.00    +0.000 A 
ATOM      4  C   UNL     1      -1.583  -5.056  -0.131  0.00  0.00    +0.000 A 
ATOM      5  C   UNL     1      -1.273  -4.155  -1.096  0.00  0.00    +0.000 A 
ATOM      6  C   UNL     1      -0.957  -2.815  -0.960  0.00  0.00    +0.000 A 
ENDROOT
BRANCH   1  12
ATOM      7  C   UNL     1      -0.465   0.062   0.084  0.00  0.00    +0.000 A 
ATOM      8  C   UNL     1       0.242   1.260  -0.016  0.00  0.00    +0.000 A 
ATOM      9  C   UNL     1       1.641   1.245   0.017  0.00  0.00    +0.000 A 
ATOM     10  C   UNL     1       2.342   0.042   0.077  0.00  0.00    +0.000 A 
ATOM     11  C   UNL     1       1.644  -1.153   0.132  0.00  0.00    +0.000 A 
ATOM     12  C   UNL     1       0.243  -1.152   0.214  0.00  0.00    +0.000 A 
BRANCH   7  14
ATOM     13  N   UNL     1      -3.062   0.068   0.037  0.00  0.00    +0.000 NA
ATOM     14  C   UNL     1      -1.916   0.080   0.057  0.00  0.00    +0.000 C 
ENDBRANCH   7  14
ENDBRANCH   1  12
BRANCH   4  15
ATOM     15  C   UNL     1      -2.426  -6.298  -0.441  0.00  0.00    +0.000 C 
ATOM     16  O   UNL     1      -2.342  -7.207   0.391  0.00  0.00    +0.000 OA
ATOM     17  N   UNL     1      -3.329  -6.427  -1.561  0.00  0.00    +0.000 N 
BRANCH  17  18
ATOM     18  C   UNL     1      -3.655  -5.492  -2.650  0.00  0.00    +0.000 C 
BRANCH  18  19
ATOM     19  C   UNL     1      -3.195  -4.132  -2.655  0.00  0.00    +0.000 C 
ATOM     20  C   UNL     1      -2.158  -3.898  -3.837  0.00  0.00    +0.000 C 
ATOM     21  C   UNL     1      -3.076  -2.833  -3.415  0.00  0.00    +0.000 C 
ENDBRANCH  18  19
ENDBRANCH  17  18
BRANCH  17  22
ATOM     22  C   UNL     1      -4.121  -7.698  -1.684  0.00  0.00    +0.000 C 
BRANCH  22  23
ATOM     23  C   UNL     1      -5.090  -7.902  -2.944  0.00  0.00    +0.000 C 
ATOM     24  C   UNL     1      -4.658  -9.033  -3.866  0.00  0.00    +0.000 C 
ATOM     25  C   UNL     1      -4.958  -8.512  -5.264  0.00  0.00    +0.000 C 
ATOM     26  C   UNL     1      -4.747  -7.042  -5.129  0.00  0.00    +0.000 C 
ATOM     27  O   UNL     1      -5.305  -6.787  -3.840  0.00  0.00    +0.000 OA
ENDBRANCH  22  23
ENDBRANCH  17  22
ENDBRANCH   4  15
TORSDOF 7
