REMARK  Name = CHEMBL1088765
REMARK  8 active torsions:
REMARK  status: ('A' for Active; 'I' for Inactive)
REMARK    1  A    between atoms: C_1  and  C_2
REMARK    2  A    between atoms: C_2  and  N_3
REMARK    3  A    between atoms: N_3  and  C_18
REMARK    4  A    between atoms: C_4  and  C_6
REMARK    5  A    between atoms: N_9  and  C_10
REMARK    6  A    between atoms: C_16  and  C_17
REMARK    7  A    between atoms: C_21  and  O_22
REMARK    8  A    between atoms: O_22  and  C_23
REMARK                            x       y       z     vdW  Elec       q    Type
REMARK                         _______ _______ _______ _____ _____    ______ ____
ROOT
ATOM      1  N   UNL     1       3.023   0.587  -1.281  0.00  0.00    +0.000 N 
ATOM      2  C   UNL     1       2.144   1.204  -2.231  0.00  0.00    +0.000 C 
ATOM      3  O   UNL     1       2.573   1.687  -3.270  0.00  0.00    +0.000 OA
ENDROOT
BRANCH   2   4
ATOM      4  C   UNL     1       0.681   1.158  -2.068  0.00  0.00    +0.000 A 
ATOM      5  C   UNL     1      -0.193   1.716  -1.104  0.00  0.00    +0.000 A 
ATOM      6  N   UNL     1      -1.468   1.374  -1.283  0.00  0.00    +0.000 NA
ATOM      7  N   UNL     1      -1.466   0.692  -2.448  0.00  0.00    +0.000 N 
ATOM      8  C   UNL     1      -0.201   0.608  -2.995  0.00  0.00    +0.000 A 
ATOM      9  C   UNL     1       0.070   0.140  -4.377  0.00  0.00    +0.000 C 
BRANCH   7  10
ATOM     10  C   UNL     1      -2.683   0.240  -2.995  0.00  0.00    +0.000 A 
ATOM     11  C   UNL     1      -3.762   1.128  -3.028  0.00  0.00    +0.000 A 
ATOM     12  C   UNL     1      -4.979   0.705  -3.550  0.00  0.00    +0.000 A 
ATOM     13  C   UNL     1      -5.102  -0.585  -4.070  0.00  0.00    +0.000 A 
ATOM     14  C   UNL     1      -4.022  -1.470  -4.035  0.00  0.00    +0.000 A 
ATOM     15  C   UNL     1      -2.805  -1.062  -3.492  0.00  0.00    +0.000 A 
ENDBRANCH   7  10
ENDBRANCH   2   4
BRANCH   1  16
ATOM     16  C   UNL     1       4.457   0.702  -1.513  0.00  0.00    +0.000 A 
ATOM     17  C   UNL     1       5.333  -0.354  -1.241  0.00  0.00    +0.000 A 
ATOM     18  C   UNL     1       6.704  -0.232  -1.492  0.00  0.00    +0.000 A 
ATOM     19  C   UNL     1       7.201   0.961  -1.986  0.00  0.00    +0.000 A 
ATOM     20  N   UNL     1       6.397   2.017  -2.224  0.00  0.00    +0.000 NA
ATOM     21  C   UNL     1       5.060   1.862  -2.000  0.00  0.00    +0.000 A 
BRANCH  19  22
ATOM     22  O   UNL     1       8.518   1.190  -2.283  0.00  0.00    +0.000 OA
ATOM     23  C   UNL     1       9.411   0.100  -2.089  0.00  0.00    +0.000 C 
ENDBRANCH  19  22
ENDBRANCH   1  16
BRANCH   1  25
ATOM     24  C   UNL     1       1.221  -0.404   0.239  0.00  0.00    +0.000 C 
ATOM     25  C   UNL     1       2.676  -0.182  -0.051  0.00  0.00    +0.000 C 
ENDBRANCH   1  25
TORSDOF 5
