REMARK  Name = CHEMBL1790712
REMARK  24 active torsions:
REMARK  status: ('A' for Active; 'I' for Inactive)
REMARK    1  A    between atoms: C_1  and  C_2
REMARK    2  A    between atoms: C_2  and  C_3
REMARK    3  A    between atoms: C_3  and  C_4
REMARK    4  A    between atoms: C_3  and  C_5
REMARK    5  A    between atoms: C_9  and  C_10
REMARK    6  A    between atoms: C_9  and  C_11
REMARK    7  A    between atoms: C_14  and  O_15
REMARK    8  A    between atoms: C_31  and  C_32
REMARK    9  A    between atoms: C_38  and  C_39
REMARK   10  A    between atoms: N_41  and  C_42
REMARK   11  A    between atoms: C_42  and  C_43
REMARK   12  A    between atoms: C_42  and  C_47
REMARK   13  A    between atoms: C_43  and  C_44
REMARK   14  A    between atoms: C_44  and  C_45
REMARK   15  A    between atoms: C_45  and  N_46
REMARK   16  A    between atoms: N_49  and  C_50
REMARK   17  A    between atoms: C_50  and  C_51
REMARK   18  A    between atoms: C_50  and  C_54
REMARK   19  A    between atoms: C_57  and  O_58
REMARK   20  A    between atoms: C_64  and  C_65
REMARK   21  A    between atoms: C_65  and  C_66
REMARK   22  A    between atoms: C_72  and  C_73
REMARK   23  A    between atoms: C_73  and  C_74
REMARK   24  A    between atoms: C_73  and  O_75
REMARK                            x       y       z     vdW  Elec       q    Type
REMARK                         _______ _______ _______ _____ _____    ______ ____
ROOT
ATOM      1  C   UNL     1      -5.012  18.037   4.331  0.00  0.00    +0.000 C 
ATOM      2  N   UNL     1      -6.468  18.116   3.005  0.00  0.00    +0.000 N 
ATOM      3  C   UNL     1      -7.692  19.239   2.497  0.00  0.00    +0.000 C 
ATOM      4  O   UNL     1      -7.451  19.930   3.519  0.00  0.00    +0.000 OA
ATOM      5  C   UNL     1      -9.575  19.672   1.794  0.00  0.00    +0.000 C 
ATOM      6  C   UNL     1      -9.110  20.995   1.161  0.00  0.00    +0.000 C 
ATOM      7  N   UNL     1     -10.263  19.636   3.080  0.00  0.00    +0.000 N 
ATOM      8  C   UNL     1     -10.929  18.563   3.667  0.00  0.00    +0.000 C 
ATOM      9  O   UNL     1     -11.558  18.792   4.706  0.00  0.00    +0.000 OA
ATOM     10  C   UNL     1     -10.949  17.048   3.079  0.00  0.00    +0.000 C 
ATOM     11  C   UNL     1     -10.236  16.761   1.664  0.00  0.00    +0.000 C 
ATOM     12  C   UNL     1      -8.827  17.136   1.852  0.00  0.00    +0.000 C 
ATOM     13  C   UNL     1      -7.987  17.479   0.366  0.00  0.00    +0.000 C 
ATOM     14  C   UNL     1      -8.547  18.336  -0.699  0.00  0.00    +0.000 C 
ATOM     15  C   UNL     1      -9.831  17.744  -0.940  0.00  0.00    +0.000 C 
ATOM     16  C   UNL     1     -10.427  17.509   0.414  0.00  0.00    +0.000 C 
ATOM     17  S   UNL     1     -10.567  15.418   0.736  0.00  0.00    +0.000 S 
ATOM     18  S   UNL     1      -8.231  14.777   0.822  0.00  0.00    +0.000 S 
ATOM     19  C   UNL     1      -8.173  12.328   0.791  0.00  0.00    +0.000 C 
ATOM     20  C   UNL     1      -7.306  11.554   1.570  0.00  0.00    +0.000 C 
ATOM     21  N   UNL     1      -6.123  12.220   1.313  0.00  0.00    +0.000 N 
ATOM     22  C   UNL     1      -5.813  13.295   2.080  0.00  0.00    +0.000 C 
ATOM     23  O   UNL     1      -4.610  13.602   2.010  0.00  0.00    +0.000 OA
ATOM     24  C   UNL     1      -6.990  14.180   2.798  0.00  0.00    +0.000 C 
ATOM     25  N   UNL     1      -6.486  14.735   3.955  0.00  0.00    +0.000 N 
ATOM     26  C   UNL     1      -5.332  15.432   3.878  0.00  0.00    +0.000 C 
ATOM     27  O   UNL     1      -4.867  15.543   5.021  0.00  0.00    +0.000 OA
ATOM     28  C   UNL     1      -4.636  16.151   2.340  0.00  0.00    +0.000 C 
ATOM     29  N   UNL     1      -4.316  17.741   2.153  0.00  0.00    +0.000 N 
ATOM     30  C   UNL     1      -4.319  18.660   3.193  0.00  0.00    +0.000 C 
ATOM     31  O   UNL     1      -4.086  19.855   3.122  0.00  0.00    +0.000 OA
ATOM     32  H   UNL     1      -6.729  17.197   2.653  0.00  0.00    +0.000 HD
ATOM     33  H   UNL     1     -10.410  20.554   3.466  0.00  0.00    +0.000 HD
ATOM     34  H   UNL     1      -5.553  11.906   0.543  0.00  0.00    +0.000 HD
ATOM     35  H   UNL     1      -6.909  14.548   4.849  0.00  0.00    +0.000 HD
ATOM     36  H   UNL     1      -5.132  18.160   1.707  0.00  0.00    +0.000 HD
ENDROOT
BRANCH  20  37
ATOM     37  C   UNL     1      -7.732  11.234   3.006  0.00  0.00    +0.000 C 
ATOM     38  O   UNL     1      -8.896  11.272   3.420  0.00  0.00    +0.000 OA
ATOM     39  N   UNL     1      -6.694  10.930   3.827  0.00  0.00    +0.000 N 
ATOM     40  C   UNL     1      -5.285  11.191   3.684  0.00  0.00    +0.000 C 
ATOM     41  C   UNL     1      -4.694   9.850   3.843  0.00  0.00    +0.000 C 
ATOM     42  C   UNL     1      -5.533   9.324   4.995  0.00  0.00    +0.000 C 
ATOM     43  C   UNL     1      -6.924   9.993   4.877  0.00  0.00    +0.000 C 
BRANCH  43  44
ATOM     44  C   UNL     1      -8.034   9.003   4.584  0.00  0.00    +0.000 C 
ATOM     45  O   UNL     1      -8.788   9.023   3.617  0.00  0.00    +0.000 OA
ATOM     46  N   UNL     1      -8.092   8.000   5.507  0.00  0.00    +0.000 N 
ATOM     47  H   UNL     1      -7.504   8.004   6.326  0.00  0.00    +0.000 HD
BRANCH  46  48
ATOM     48  C   UNL     1      -8.585   6.752   5.043  0.00  0.00    +0.000 C 
BRANCH  48  49
ATOM     49  C   UNL     1      -8.430   5.648   6.209  0.00  0.00    +0.000 C 
ATOM     50  O   UNL     1      -7.877   5.946   7.275  0.00  0.00    +0.000 OA
ATOM     51  N   UNL     1      -8.838   4.333   6.049  0.00  0.00    +0.000 N 
ATOM     52  H   UNL     1      -8.780   3.742   6.875  0.00  0.00    +0.000 HD
BRANCH  51  53
ATOM     53  C   UNL     1      -9.612   3.741   4.944  0.00  0.00    +0.000 C 
BRANCH  53  54
ATOM     54  C   UNL     1     -11.048   4.243   4.915  0.00  0.00    +0.000 A 
ATOM     55  C   UNL     1     -11.450   5.483   5.448  0.00  0.00    +0.000 A 
ATOM     56  C   UNL     1     -12.752   5.968   5.382  0.00  0.00    +0.000 A 
ATOM     57  C   UNL     1     -13.722   5.150   4.849  0.00  0.00    +0.000 A 
ATOM     58  C   UNL     1     -13.387   3.886   4.377  0.00  0.00    +0.000 A 
ATOM     59  C   UNL     1     -12.060   3.439   4.391  0.00  0.00    +0.000 A 
BRANCH  57  60
ATOM     60  O   UNL     1     -15.029   5.523   4.785  0.00  0.00    +0.000 OA
ATOM     61  H   UNL     1     -15.125   6.429   5.121  0.00  0.00    +0.000 HD
ENDBRANCH  57  60
ENDBRANCH  53  54
BRANCH  53  62
ATOM     62  C   UNL     1      -8.796   3.804   3.644  0.00  0.00    +0.000 C 
ATOM     63  N   UNL     1      -7.409   3.953   3.845  0.00  0.00    +0.000 N 
ATOM     64  O   UNL     1      -9.284   3.853   2.519  0.00  0.00    +0.000 OA
ATOM     65  H   UNL     1      -6.959   4.451   3.074  0.00  0.00    +0.000 HD
ATOM     66  H   UNL     1      -7.160   4.419   4.721  0.00  0.00    +0.000 HD
ENDBRANCH  53  62
ENDBRANCH  51  53
ENDBRANCH  48  49
BRANCH  48  67
ATOM     67  C   UNL     1      -7.827   6.439   3.782  0.00  0.00    +0.000 C 
BRANCH  67  68
ATOM     68  C   UNL     1      -7.897   7.090   2.442  0.00  0.00    +0.000 C 
BRANCH  68  69
ATOM     69  C   UNL     1      -7.214   6.329   1.335  0.00  0.00    +0.000 C 
BRANCH  69  70
ATOM     70  N   UNL     1      -7.320   7.229   0.200  0.00  0.00    +0.000 NA
ATOM     71  H   UNL     1      -8.317   7.347  -0.003  0.00  0.00    +0.000 HD
ATOM     72  H   UNL     1      -6.896   6.798  -0.611  0.00  0.00    +0.000 HD
ENDBRANCH  69  70
ENDBRANCH  68  69
ENDBRANCH  67  68
ENDBRANCH  48  67
ENDBRANCH  46  48
ENDBRANCH  43  44
ENDBRANCH  20  37
BRANCH   5  73
ATOM     73  C   UNL     1     -11.345  19.644   0.832  0.00  0.00    +0.000 A 
ATOM     74  C   UNL     1     -12.580  18.418   0.984  0.00  0.00    +0.000 A 
ATOM     75  C   UNL     1     -13.233  17.606  -0.122  0.00  0.00    +0.000 A 
ATOM     76  C   UNL     1     -13.129  18.208  -1.355  0.00  0.00    +0.000 A 
ATOM     77  C   UNL     1     -12.358  19.443  -1.524  0.00  0.00    +0.000 A 
ATOM     78  C   UNL     1     -11.445  20.127  -0.512  0.00  0.00    +0.000 A 
BRANCH  76  79
ATOM     79  O   UNL     1     -13.747  17.622  -2.428  0.00  0.00    +0.000 OA
ATOM     80  H   UNL     1     -14.280  16.877  -2.085  0.00  0.00    +0.000 HD
ENDBRANCH  76  79
ENDBRANCH   5  73
BRANCH   1  81
ATOM     81  C   UNL     1      -3.277  18.187   5.266  0.00  0.00    +0.000 C 
ATOM     82  C   UNL     1      -3.046  19.628   5.678  0.00  0.00    +0.000 C 
BRANCH  81  84
ATOM     83  C   UNL     1      -3.949  17.442   7.672  0.00  0.00    +0.000 C 
ATOM     84  C   UNL     1      -2.753  17.461   6.790  0.00  0.00    +0.000 C 
ENDBRANCH  81  84
ENDBRANCH   1  81
BRANCH  28  85
ATOM     85  C   UNL     1      -5.402  15.905   0.985  0.00  0.00    +0.000 C 
ATOM     86  C   UNL     1      -4.748  16.455  -0.211  0.00  0.00    +0.000 C 
BRANCH  85  87
ATOM     87  O   UNL     1      -5.822  14.719   0.362  0.00  0.00    +0.000 OA
ATOM     88  H   UNL     1      -5.048  14.146   0.353  0.00  0.00    +0.000 HD
ENDBRANCH  85  87
ENDBRANCH  28  85
BRANCH  24  89
ATOM     89  C   UNL     1      -8.665  13.675   2.854  0.00  0.00    +0.000 C 
BRANCH  89  90
ATOM     90  C   UNL     1      -9.971  13.232   1.356  0.00  0.00    +0.000 C 
ATOM     91  N   UNL     1      -9.373  13.474  -0.397  0.00  0.00    +0.000 N 
ATOM     92  O   UNL     1     -11.045  12.770   1.470  0.00  0.00    +0.000 OA
ATOM     93  H   UNL     1      -8.315  13.930  -0.372  0.00  0.00    +0.000 HD
ATOM     94  H   UNL     1      -9.440  13.630  -1.371  0.00  0.00    +0.000 HD
ENDBRANCH  89  90
ENDBRANCH  24  89
TORSDOF 20
