REMARK  Name = CHEMBL304577
REMARK  8 active torsions:
REMARK  status: ('A' for Active; 'I' for Inactive)
REMARK    1  A    between atoms: C_1  and  O_2
REMARK    2  A    between atoms: O_2  and  C_3
REMARK    3  A    between atoms: C_5  and  O_6
REMARK    4  A    between atoms: O_6  and  C_7
REMARK    5  A    between atoms: N_10  and  C_11
REMARK    6  A    between atoms: C_11  and  C_12
REMARK    7  A    between atoms: C_22  and  C_23
REMARK    8  A    between atoms: C_28  and  N_29
REMARK                            x       y       z     vdW  Elec       q    Type
REMARK                         _______ _______ _______ _____ _____    ______ ____
ROOT
ATOM      1  C   UNL     1       3.095  -0.521  -0.898  0.00  0.00    +0.000 A 
ATOM      2  C   UNL     1       4.244  -1.379  -0.797  0.00  0.00    +0.000 A 
ATOM      3  C   UNL     1       4.982  -1.659  -1.892  0.00  0.00    +0.000 A 
ATOM      4  C   UNL     1       4.345  -1.181  -2.986  0.00  0.00    +0.000 A 
ATOM      5  C   UNL     1       3.289  -0.322  -3.187  0.00  0.00    +0.000 A 
ATOM      6  C   UNL     1       2.611   0.069  -2.101  0.00  0.00    +0.000 A 
ENDROOT
BRANCH   6   7
ATOM      7  C   UNL     1       1.436   0.944  -2.485  0.00  0.00    +0.000 C 
ATOM      8  O   UNL     1       1.129   1.065  -3.677  0.00  0.00    +0.000 OA
ATOM      9  N   UNL     1       0.639   1.495  -1.482  0.00  0.00    +0.000 N 
ATOM     10  C   UNL     1      -0.741   0.943  -1.345  0.00  0.00    +0.000 C 
ATOM     11  C   UNL     1      -1.699   1.969  -0.837  0.00  0.00    +0.000 C 
ATOM     12  C   UNL     1      -1.345   2.224   0.869  0.00  0.00    +0.000 C 
ATOM     13  C   UNL     1       0.240   3.015   0.374  0.00  0.00    +0.000 C 
ATOM     14  C   UNL     1       1.238   2.105  -0.287  0.00  0.00    +0.000 C 
BRANCH  12  15
ATOM     15  N   UNL     1      -2.284   1.070   1.979  0.00  0.00    +0.000 N 
ATOM     16  C   UNL     1      -3.314   2.019   1.782  0.00  0.00    +0.000 C 
ATOM     17  O   UNL     1      -3.831   2.324   0.651  0.00  0.00    +0.000 OA
ATOM     18  O   UNL     1      -3.599   2.808   2.798  0.00  0.00    +0.000 OA
ATOM     19  C   UNL     1      -4.574   1.998   3.340  0.00  0.00    +0.000 C 
ATOM     20  C   UNL     1      -3.677   1.334   4.289  0.00  0.00    +0.000 A 
ATOM     21  C   UNL     1      -3.027   1.513   5.521  0.00  0.00    +0.000 A 
ATOM     22  C   UNL     1      -2.958   0.457   6.480  0.00  0.00    +0.000 A 
ATOM     23  C   UNL     1      -3.670  -0.625   6.125  0.00  0.00    +0.000 A 
ATOM     24  C   UNL     1      -3.698  -0.705   4.584  0.00  0.00    +0.000 A 
ATOM     25  C   UNL     1      -2.993   0.455   3.657  0.00  0.00    +0.000 A 
ENDBRANCH  12  15
ENDBRANCH   6   7
BRANCH   1  27
ATOM     26  C   UNL     1       1.215  -0.700   0.351  0.00  0.00    +0.000 C 
ATOM     27  O   UNL     1       2.573  -0.351   0.351  0.00  0.00    +0.000 OA
ENDBRANCH   1  27
BRANCH   3  28
ATOM     28  O   UNL     1       6.182  -2.296  -1.891  0.00  0.00    +0.000 OA
BRANCH  28  29
ATOM     29  C   UNL     1       7.046  -2.469  -3.075  0.00  0.00    +0.000 C 
ATOM     30  C   UNL     1       7.506  -1.204  -3.840  0.00  0.00    +0.000 C 
ATOM     31  C   UNL     1       6.438  -0.601  -4.740  0.00  0.00    +0.000 C 
ATOM     32  N   UNL     1       5.783  -1.668  -5.598  0.00  0.00    +0.000 NA
ATOM     33  C   UNL     1       5.475  -3.009  -4.931  0.00  0.00    +0.000 C 
ATOM     34  C   UNL     1       6.547  -3.539  -4.033  0.00  0.00    +0.000 C 
BRANCH  32  35
ATOM     35  C   UNL     1       4.574  -1.098  -6.257  0.00  0.00    +0.000 C 
BRANCH  35  36
ATOM     36  C   UNL     1       3.848  -2.058  -7.144  0.00  0.00    +0.000 A 
ATOM     37  C   UNL     1       3.801  -1.874  -8.511  0.00  0.00    +0.000 A 
ATOM     38  C   UNL     1       3.145  -2.829  -9.276  0.00  0.00    +0.000 A 
ATOM     39  C   UNL     1       2.716  -4.034  -8.707  0.00  0.00    +0.000 A 
ATOM     40  C   UNL     1       2.739  -4.207  -7.339  0.00  0.00    +0.000 A 
ATOM     41  C   UNL     1       3.177  -3.156  -6.570  0.00  0.00    +0.000 A 
ENDBRANCH  35  36
ENDBRANCH  32  35
ENDBRANCH  28  29
ENDBRANCH   3  28
TORSDOF 7
