REMARK  Name = CHEMBL65949
REMARK  10 active torsions:
REMARK  status: ('A' for Active; 'I' for Inactive)
REMARK    1  A    between atoms: C_1  and  O_2
REMARK    2  A    between atoms: O_2  and  C_3
REMARK    3  A    between atoms: C_5  and  O_6
REMARK    4  A    between atoms: O_6  and  C_7
REMARK    5  A    between atoms: N_10  and  C_11
REMARK    6  A    between atoms: C_11  and  C_12
REMARK    7  A    between atoms: C_15  and  C_16
REMARK    8  A    between atoms: C_19  and  C_20
REMARK    9  A    between atoms: C_25  and  C_26
REMARK   10  A    between atoms: C_31  and  N_32
REMARK                            x       y       z     vdW  Elec       q    Type
REMARK                         _______ _______ _______ _____ _____    ______ ____
ROOT
ATOM      1  C   UNL     1       3.089  -0.475  -0.936  0.00  0.00    +0.000 A 
ATOM      2  C   UNL     1       4.246  -1.335  -0.885  0.00  0.00    +0.000 A 
ATOM      3  C   UNL     1       4.992  -1.543  -1.990  0.00  0.00    +0.000 A 
ATOM      4  C   UNL     1       4.350  -0.991  -3.044  0.00  0.00    +0.000 A 
ATOM      5  C   UNL     1       3.278  -0.139  -3.199  0.00  0.00    +0.000 A 
ATOM      6  C   UNL     1       2.593   0.177  -2.099  0.00  0.00    +0.000 A 
ENDROOT
BRANCH   6   7
ATOM      7  C   UNL     1       1.413   1.065  -2.434  0.00  0.00    +0.000 C 
ATOM      8  O   UNL     1       1.113   1.251  -3.620  0.00  0.00    +0.000 OA
ATOM      9  N   UNL     1       0.612   1.558  -1.400  0.00  0.00    +0.000 N 
ATOM     10  C   UNL     1      -0.759   0.972  -1.276  0.00  0.00    +0.000 C 
ATOM     11  C   UNL     1      -1.730   1.954  -0.708  0.00  0.00    +0.000 C 
ATOM     12  C   UNL     1      -1.394   2.124   1.033  0.00  0.00    +0.000 C 
ATOM     13  C   UNL     1       0.202   2.967   0.547  0.00  0.00    +0.000 C 
ATOM     14  C   UNL     1       1.208   2.107  -0.171  0.00  0.00    +0.000 C 
BRANCH  12  15
ATOM     15  N   UNL     1      -2.326   0.892   2.096  0.00  0.00    +0.000 N 
ATOM     16  C   UNL     1      -3.354   1.839   1.908  0.00  0.00    +0.000 C 
ATOM     17  O   UNL     1      -3.868   2.143   0.794  0.00  0.00    +0.000 OA
ATOM     18  O   UNL     1      -3.646   2.584   2.958  0.00  0.00    +0.000 OA
ATOM     19  C   UNL     1      -4.542   1.697   3.499  0.00  0.00    +0.000 C 
ATOM     20  C   UNL     1      -3.653   1.022   4.464  0.00  0.00    +0.000 A 
ATOM     21  C   UNL     1      -2.726   0.857   5.509  0.00  0.00    +0.000 A 
ATOM     22  C   UNL     1      -2.820  -0.271   6.425  0.00  0.00    +0.000 A 
ATOM     23  C   UNL     1      -3.834  -1.082   6.118  0.00  0.00    +0.000 A 
ATOM     24  C   UNL     1      -3.986  -0.988   4.583  0.00  0.00    +0.000 A 
ATOM     25  C   UNL     1      -3.156   0.162   3.685  0.00  0.00    +0.000 A 
ENDBRANCH  12  15
ENDBRANCH   6   7
BRANCH   1  27
ATOM     26  C   UNL     1       1.224  -0.710   0.317  0.00  0.00    +0.000 C 
ATOM     27  O   UNL     1       2.580  -0.355   0.322  0.00  0.00    +0.000 OA
ENDBRANCH   1  27
BRANCH   3  28
ATOM     28  O   UNL     1       6.202  -2.161  -2.036  0.00  0.00    +0.000 OA
BRANCH  28  29
ATOM     29  C   UNL     1       7.090  -2.229  -3.220  0.00  0.00    +0.000 C 
ATOM     30  C   UNL     1       7.521  -0.895  -3.893  0.00  0.00    +0.000 C 
ATOM     31  C   UNL     1       6.444  -0.198  -4.726  0.00  0.00    +0.000 C 
ATOM     32  N   UNL     1       5.829  -1.167  -5.689  0.00  0.00    +0.000 NA
ATOM     33  C   UNL     1       5.659  -2.538  -5.172  0.00  0.00    +0.000 C 
ATOM     34  C   UNL     1       6.634  -3.216  -4.275  0.00  0.00    +0.000 C 
BRANCH  32  35
ATOM     35  C   UNL     1       4.532  -0.696  -6.249  0.00  0.00    +0.000 C 
BRANCH  35  36
ATOM     36  C   UNL     1       3.819  -1.631  -7.206  0.00  0.00    +0.000 A 
ATOM     37  C   UNL     1       3.706  -1.116  -8.493  0.00  0.00    +0.000 A 
ATOM     38  C   UNL     1       3.392  -1.969  -9.516  0.00  0.00    +0.000 A 
ATOM     39  C   UNL     1       2.763  -3.173  -9.220  0.00  0.00    +0.000 A 
ATOM     40  C   UNL     1       2.073  -3.967 -10.267  0.00  0.00    +0.000 C 
ATOM     41  N   UNL     1       2.649  -3.636  -7.916  0.00  0.00    +0.000 N 
ATOM     42  O   UNL     1       2.020  -4.721  -7.679  0.00  0.00    +0.000 OA
ATOM     43  C   UNL     1       3.245  -2.920  -6.894  0.00  0.00    +0.000 A 
ATOM     44  C   UNL     1       3.172  -3.639  -5.567  0.00  0.00    +0.000 C 
ENDBRANCH  35  36
ENDBRANCH  32  35
ENDBRANCH  28  29
ENDBRANCH   3  28
TORSDOF 7
