REMARK  Name = CHEMBL2037489
REMARK  12 active torsions:
REMARK  status: ('A' for Active; 'I' for Inactive)
REMARK    1  A    between atoms: CD1_1  and  CG_2
REMARK    2  A    between atoms: CG_2  and  CD2_3
REMARK    3  A    between atoms: CG_2  and  CB_4
REMARK    4  A    between atoms: CB_4  and  CA_5
REMARK    5  A    between atoms: C_9  and  C_10
REMARK    6  A    between atoms: N_21  and  C_22
REMARK    7  A    between atoms: C_22  and  C_23
REMARK    8  A    between atoms: C_22  and  C_28
REMARK    9  A    between atoms: N_25  and  C_26
REMARK   10  A    between atoms: N_25  and  C_27
REMARK   11  A    between atoms: N_32  and  C_33
REMARK   12  A    between atoms: N_32  and  C_34
REMARK                            x       y       z     vdW  Elec       q    Type
REMARK                         _______ _______ _______ _____ _____    ______ ____
ROOT
ATOM      1  CA  LEU A   2       4.844  -0.959   0.750  0.00  0.00    +0.000 C 
ATOM      2  C   LEU A   2       5.178  -2.327   1.511  0.00  0.00    +0.000 C 
ATOM      3  O   LEU A   2       4.483  -3.302   1.639  0.00  0.00    +0.000 OA
ATOM      4  N   UNK A   1       6.406  -2.302   2.089  0.00  0.00    +0.000 N 
ATOM      5  C   UNK A   1       7.270  -1.164   1.940  0.00  0.00    +0.000 C 
ATOM      6  C   UNK A   1       6.491   0.111   2.245  0.00  0.00    +0.000 C 
ATOM      7  O   UNK A   1       7.094   1.024   2.764  0.00  0.00    +0.000 OA
ATOM      8  N   LEU A   2       5.140   0.109   1.828  0.00  0.00    +0.000 N 
ATOM      9  H   UNK A   1       6.646  -3.145   2.596  0.00  0.00    +0.000 HD
ENDROOT
BRANCH   5  10
ATOM     10  C   UNK A   1       8.437  -1.167   2.938  0.00  0.00    +0.000 C 
ATOM     11  C   UNK A   1       9.296  -2.410   2.728  0.00  0.00    +0.000 C 
ATOM     12  C   UNK A   1       8.646  -3.365   3.681  0.00  0.00    +0.000 A 
ATOM     13  C   UNK A   1       8.636  -4.743   3.601  0.00  0.00    +0.000 A 
ATOM     14  C   UNK A   1       7.842  -5.448   4.506  0.00  0.00    +0.000 A 
ATOM     15  C   UNK A   1       7.058  -4.775   5.459  0.00  0.00    +0.000 A 
ATOM     16  C   UNK A   1       7.050  -3.382   5.518  0.00  0.00    +0.000 A 
ATOM     17  C   UNK A   1       7.857  -2.692   4.630  0.00  0.00    +0.000 A 
ATOM     18  C   UNK A   1       7.922  -1.214   4.411  0.00  0.00    +0.000 C 
ENDBRANCH   5  10
BRANCH   1  19
ATOM     19  CB  LEU A   2       3.444  -1.158   0.192  0.00  0.00    +0.000 C 
BRANCH  19  21
ATOM     20  CD1 LEU A   2       0.955   0.134  -0.481  0.00  0.00    +0.000 C 
ATOM     21  CG  LEU A   2       2.551   0.034  -0.549  0.00  0.00    +0.000 C 
ATOM     22  CD2 LEU A   2       2.923   1.466  -0.175  0.00  0.00    +0.000 C 
ENDBRANCH  19  21
ENDBRANCH   1  19
BRANCH   8  23
ATOM     23  C   UNK A   0       4.174   1.098   2.554  0.00  0.00    +0.000 C 
BRANCH  23  24
ATOM     24  C   UNK A   0       4.879   2.413   3.035  0.00  0.00    +0.000 A 
ATOM     25  C   UNK A   0       5.815   3.095   2.230  0.00  0.00    +0.000 A 
ATOM     26  C   UNK A   0       6.566   4.140   2.762  0.00  0.00    +0.000 A 
ATOM     27  C   UNK A   0       6.265   4.640   4.019  0.00  0.00    +0.000 A 
ATOM     28  N   UNK A   0       6.940   5.673   4.613  0.00  0.00    +0.000 N 
ATOM     29  C   UNK A   0       6.470   6.162   5.904  0.00  0.00    +0.000 C 
ATOM     30  C   UNK A   0       8.039   6.362   3.983  0.00  0.00    +0.000 C 
ATOM     31  N   UNK A   0       5.257   4.101   4.717  0.00  0.00    +0.000 NA
ATOM     32  C   UNK A   0       4.621   3.017   4.245  0.00  0.00    +0.000 A 
ENDBRANCH  23  24
BRANCH  23  33
ATOM     33  C   UNK A   0       2.816   0.658   3.543  0.00  0.00    +0.000 C 
ATOM     34  O   UNK A   0       2.713   1.090   4.696  0.00  0.00    +0.000 OA
ATOM     35  N   UNK A   0       1.694  -0.080   3.132  0.00  0.00    +0.000 N 
ATOM     36  C   UNK A   0       1.663  -0.872   2.017  0.00  0.00    +0.000 C 
ATOM     37  C   UNK A   0       0.678  -0.607   3.970  0.00  0.00    +0.000 C 
ENDBRANCH  23  33
ENDBRANCH   8  23
TORSDOF 6
