REMARK  Name = CHEMBL373167
REMARK  7 active torsions:
REMARK  status: ('A' for Active; 'I' for Inactive)
REMARK    1  A    between atoms: C_1  and  O_2
REMARK    2  A    between atoms: O_2  and  C_3
REMARK    3  A    between atoms: C_6  and  N_7
REMARK    4  A    between atoms: N_7  and  C_8
REMARK    5  A    between atoms: N_7  and  S_21
REMARK    6  A    between atoms: C_8  and  C_9
REMARK    7  A    between atoms: S_21  and  C_24
REMARK                            x       y       z     vdW  Elec       q    Type
REMARK                         _______ _______ _______ _____ _____    ______ ____
ROOT
ATOM      1  N   UNL     1       5.181   3.928  -3.032  0.00  0.00    +0.000 N 
ENDROOT
BRANCH   1   5
ATOM      2  C   UNL     1       3.012   0.991  -0.773  0.00  0.00    +0.000 A 
ATOM      3  C   UNL     1       4.173   0.686  -1.438  0.00  0.00    +0.000 A 
ATOM      4  C   UNL     1       4.948   1.742  -1.895  0.00  0.00    +0.000 A 
ATOM      5  C   UNL     1       4.433   3.004  -2.164  0.00  0.00    +0.000 A 
ATOM      6  C   UNL     1       3.267   3.309  -1.465  0.00  0.00    +0.000 A 
ATOM      7  C   UNL     1       2.602   2.321  -0.722  0.00  0.00    +0.000 A 
BRANCH   2   9
ATOM      8  C   UNL     1       1.041   0.036  -0.003  0.00  0.00    +0.000 C 
ATOM      9  O   UNL     1       2.456  -0.024  -0.052  0.00  0.00    +0.000 OA
ENDBRANCH   2   9
ENDBRANCH   1   5
BRANCH   1  10
ATOM     10  S   UNL     1       4.433   5.492  -3.270  0.00  0.00    +0.000 S 
ATOM     11  O   UNL     1       3.110   5.350  -3.781  0.00  0.00    +0.000 OA
ATOM     12  O   UNL     1       4.620   6.183  -1.963  0.00  0.00    +0.000 OA
BRANCH  10  13
ATOM     13  C   UNL     1       5.283   6.557  -4.426  0.00  0.00    +0.000 A 
ATOM     14  C   UNL     1       6.249   6.130  -5.325  0.00  0.00    +0.000 A 
ATOM     15  C   UNL     1       6.957   7.021  -6.121  0.00  0.00    +0.000 A 
ATOM     16  C   UNL     1       6.599   8.355  -6.142  0.00  0.00    +0.000 A 
ATOM     17  C   UNL     1       5.588   8.808  -5.297  0.00  0.00    +0.000 A 
ATOM     18  C   UNL     1       4.940   7.920  -4.427  0.00  0.00    +0.000 A 
ENDBRANCH  10  13
ENDBRANCH   1  10
BRANCH   1  19
ATOM     19  C   UNL     1       6.271   3.386  -3.975  0.00  0.00    +0.000 C 
BRANCH  19  20
ATOM     20  C   UNL     1       6.621   1.877  -4.175  0.00  0.00    +0.000 C 
ATOM     21  O   UNL     1       5.593   1.195  -4.370  0.00  0.00    +0.000 OA
ATOM     22  N   UNL     1       7.826   1.160  -4.216  0.00  0.00    +0.000 N 
ATOM     23  C   UNL     1       7.628  -0.136  -4.726  0.00  0.00    +0.000 C 
ATOM     24  C   UNL     1       8.613  -0.262  -6.081  0.00  0.00    +0.000 C 
ATOM     25  C   UNL     1       9.397  -1.318  -5.518  0.00  0.00    +0.000 A 
ATOM     26  C   UNL     1       9.000  -2.601  -6.085  0.00  0.00    +0.000 A 
ATOM     27  C   UNL     1       9.210  -3.788  -5.456  0.00  0.00    +0.000 A 
ATOM     28  C   UNL     1       9.911  -3.521  -4.306  0.00  0.00    +0.000 A 
ATOM     29  C   UNL     1      10.248  -2.025  -3.723  0.00  0.00    +0.000 A 
ATOM     30  C   UNL     1      10.021  -0.725  -4.398  0.00  0.00    +0.000 A 
ATOM     31  C   UNL     1       9.367   1.086  -4.269  0.00  0.00    +0.000 C 
ENDBRANCH  19  20
ENDBRANCH   1  19
TORSDOF 6
