REMARK  Name = CHEMBL4216926
REMARK  6 active torsions:
REMARK  status: ('A' for Active; 'I' for Inactive)
REMARK    1  A    between atoms: C_1  and  C_2
REMARK    2  A    between atoms: N_5  and  C_6
REMARK    3  A    between atoms: C_9  and  C_10
REMARK    4  A    between atoms: C_16  and  N_17
REMARK    5  A    between atoms: N_17  and  C_18
REMARK    6  A    between atoms: N_17  and  C_19
REMARK                            x       y       z     vdW  Elec       q    Type
REMARK                         _______ _______ _______ _____ _____    ______ ____
ROOT
ATOM      1  C   UNL     1      10.152  -4.858  -1.019  0.00  0.00    +0.000 C 
ATOM      2  O   UNL     1      10.287  -4.590   0.270  0.00  0.00    +0.000 OA
ATOM      3  N   UNL     1      11.298  -6.320  -1.781  0.00  0.00    +0.000 N 
ATOM      4  C   UNL     1      10.374  -6.563  -0.960  0.00  0.00    +0.000 C 
ATOM      5  C   UNL     1       9.815  -7.102  -2.193  0.00  0.00    +0.000 C 
ATOM      6  C   UNL     1      10.988  -7.934  -2.412  0.00  0.00    +0.000 C 
ATOM      7  C   UNL     1      10.965  -8.786  -3.642  0.00  0.00    +0.000 C 
ATOM      8  C   UNL     1      12.170  -9.373  -3.180  0.00  0.00    +0.000 A 
ATOM      9  C   UNL     1      12.289 -11.057  -3.666  0.00  0.00    +0.000 A 
ATOM     10  C   UNL     1      13.333 -11.905  -3.431  0.00  0.00    +0.000 A 
ATOM     11  C   UNL     1      14.344 -11.026  -3.183  0.00  0.00    +0.000 A 
ATOM     12  C   UNL     1      14.034  -9.264  -2.705  0.00  0.00    +0.000 A 
ATOM     13  C   UNL     1      12.741  -8.014  -2.367  0.00  0.00    +0.000 A 
ENDROOT
BRANCH   1  17
ATOM     14  C   UNL     1       5.584  -1.661   0.025  0.00  0.00    +0.000 A 
ATOM     15  C   UNL     1       6.608  -1.675   0.943  0.00  0.00    +0.000 A 
ATOM     16  C   UNL     1       7.973  -2.610   0.630  0.00  0.00    +0.000 A 
ATOM     17  C   UNL     1       8.479  -3.747  -0.588  0.00  0.00    +0.000 A 
ATOM     18  C   UNL     1       7.165  -3.494  -1.223  0.00  0.00    +0.000 A 
ATOM     19  C   UNL     1       5.819  -2.563  -1.006  0.00  0.00    +0.000 A 
BRANCH  14  24
ATOM     20  C   UNL     1       0.947  -0.070  -0.026  0.00  0.00    +0.000 C 
ATOM     21  C   UNL     1       2.433  -0.071  -0.027  0.00  0.00    +0.000 A 
ATOM     22  C   UNL     1       3.240   1.074  -0.019  0.00  0.00    +0.000 A 
ATOM     23  C   UNL     1       4.527   0.607   0.016  0.00  0.00    +0.000 A 
ATOM     24  N   UNL     1       4.466  -0.767   0.022  0.00  0.00    +0.000 N 
ATOM     25  N   UNL     1       3.171  -1.196  -0.057  0.00  0.00    +0.000 NA
ENDBRANCH  14  24
ENDBRANCH   1  17
BRANCH   7  26
ATOM     26  N   UNL     1      11.249  -8.110  -4.892  0.00  0.00    +0.000 NA
ATOM     27  C   UNL     1      11.231  -9.013  -6.020  0.00  0.00    +0.000 C 
ATOM     28  C   UNL     1      10.150  -7.221  -5.056  0.00  0.00    +0.000 C 
ENDBRANCH   7  26
TORSDOF 3
