REMARK  Name = CHEMBL211556
REMARK  9 active torsions:
REMARK  status: ('A' for Active; 'I' for Inactive)
REMARK    1  A    between atoms: CD1_1  and  CG_2
REMARK    2  A    between atoms: CG_2  and  CD2_3
REMARK    3  A    between atoms: CG_2  and  CB_4
REMARK    4  A    between atoms: CB_4  and  CA_5
REMARK    5  A    between atoms: CA_9  and  C_10
REMARK    6  A    between atoms: N_21  and  CA_22
REMARK    7  A    between atoms: CA_22  and  C_23
REMARK    8  A    between atoms: CA_22  and  C_26
REMARK    9  A    between atoms: C_23  and  OXT_25
REMARK                            x       y       z     vdW  Elec       q    Type
REMARK                         _______ _______ _______ _____ _____    ______ ____
ROOT
ATOM      1  CA  UNL     1       4.556  -1.238   0.306  0.00  0.00    +0.000 C 
ATOM      2  C   UNL     1       4.995  -2.199   1.450  0.00  0.00    +0.000 C 
ATOM      3  O   UNL     1       4.318  -3.152   1.898  0.00  0.00    +0.000 OA
ATOM      4  N   UNL     1       6.263  -2.029   1.901  0.00  0.00    +0.000 N 
ATOM      5  CA  UNL     1       7.239  -1.160   1.258  0.00  0.00    +0.000 C 
ATOM      6  C   UNL     1       6.582   0.138   0.947  0.00  0.00    +0.000 C 
ATOM      7  O   UNL     1       7.251   1.194   1.030  0.00  0.00    +0.000 OA
ATOM      8  N   UNL     1       5.264   0.111   0.601  0.00  0.00    +0.000 N 
ATOM      9  H   UNL     1       6.551  -2.683   2.621  0.00  0.00    +0.000 HD
ENDROOT
BRANCH   5  10
ATOM     10  C   UNL     1       8.419  -0.751   2.180  0.00  0.00    +0.000 C 
ATOM     11  C   UNL     1       9.283  -1.957   2.507  0.00  0.00    +0.000 C 
ATOM     12  C   UNL     1       8.628  -2.425   3.766  0.00  0.00    +0.000 A 
ATOM     13  C   UNL     1       8.634  -3.705   4.276  0.00  0.00    +0.000 A 
ATOM     14  C   UNL     1       7.854  -3.964   5.402  0.00  0.00    +0.000 A 
ATOM     15  C   UNL     1       7.078  -2.952   5.993  0.00  0.00    +0.000 A 
ATOM     16  C   UNL     1       7.064  -1.662   5.464  0.00  0.00    +0.000 A 
ATOM     17  C   UNL     1       7.850  -1.414   4.353  0.00  0.00    +0.000 A 
ATOM     18  C   UNL     1       7.920  -0.163   3.539  0.00  0.00    +0.000 C 
ENDBRANCH   5  10
BRANCH   1  19
ATOM     19  CB  UNL     1       2.958  -1.390   0.062  0.00  0.00    +0.000 C 
BRANCH  19  21
ATOM     20  CD1 UNL     1       0.572  -0.381  -0.533  0.00  0.00    +0.000 C 
ATOM     21  CG  UNL     1       2.068  -0.210  -0.583  0.00  0.00    +0.000 C 
ATOM     22  CD2 UNL     1       1.997   1.051   0.227  0.00  0.00    +0.000 C 
ENDBRANCH  19  21
ENDBRANCH   1  19
BRANCH   8  23
ATOM     23  CA  UNL     1       4.560   1.338   0.981  0.00  0.00    +0.000 C 
BRANCH  23  24
ATOM     24  C   UNL     1       5.139   2.742   0.863  0.00  0.00    +0.000 A 
ATOM     25  C   UNL     1       6.047   3.099  -0.157  0.00  0.00    +0.000 A 
ATOM     26  C   UNL     1       6.784   4.275  -0.023  0.00  0.00    +0.000 A 
ATOM     27  C   UNL     1       6.491   5.158   1.010  0.00  0.00    +0.000 A 
ATOM     28  F   UNL     1       7.227   6.256   1.197  0.00  0.00    +0.000 F 
ATOM     29  C   UNL     1       5.453   4.920   1.871  0.00  0.00    +0.000 A 
ATOM     30  C   UNL     1       4.783   3.735   1.771  0.00  0.00    +0.000 A 
ATOM     31  F   UNL     1       3.798   3.625   2.647  0.00  0.00    +0.000 F 
ENDBRANCH  23  24
BRANCH  23  32
ATOM     32  C   UNL     1       3.602   1.078   2.399  0.00  0.00    +0.000 C 
ATOM     33  O   UNL     1       2.777   1.826   2.943  0.00  0.00    +0.000 OA
BRANCH  32  34
ATOM     34  OXT UNL     1       3.331  -0.246   2.590  0.00  0.00    +0.000 OA
ATOM     35  HXT UNL     1       2.341  -0.303   2.532  0.00  0.00    +0.000 HD
ENDBRANCH  32  34
ENDBRANCH  23  32
ENDBRANCH   8  23
TORSDOF 7
