REMARK  Name = CHEMBL373742
REMARK  21 active torsions:
REMARK  status: ('A' for Active; 'I' for Inactive)
REMARK    1  A    between atoms: N_4  and  C_5
REMARK    2  A    between atoms: C_5  and  C_6
REMARK    3  A    between atoms: C_6  and  C_7
REMARK    4  A    between atoms: C_7  and  C_8
REMARK    5  A    between atoms: C_8  and  N_9
REMARK    6  A    between atoms: C_8  and  C_69
REMARK    7  A    between atoms: C_10  and  C_12
REMARK    8  A    between atoms: C_17  and  C_19
REMARK    9  A    between atoms: C_24  and  N_25
REMARK   10  A    between atoms: C_29  and  C_30
REMARK   11  A    between atoms: C_30  and  C_31
REMARK   12  A    between atoms: C_34  and  O_35
REMARK   13  A    between atoms: C_41  and  C_42
REMARK   14  A    between atoms: C_42  and  C_43
REMARK   15  A    between atoms: C_52  and  C_53
REMARK   16  A    between atoms: C_53  and  C_54
REMARK   17  A    between atoms: C_54  and  C_55
REMARK   18  A    between atoms: C_61  and  C_62
REMARK   19  A    between atoms: C_62  and  C_63
REMARK   20  A    between atoms: N_71  and  C_72
REMARK   21  A    between atoms: C_72  and  C_73
REMARK                            x       y       z     vdW  Elec       q    Type
REMARK                         _______ _______ _______ _____ _____    ______ ____
ROOT
ATOM      1  C   UNL     1      13.708   1.196  -6.253  0.00  0.00    +0.000 C 
ATOM      2  C   UNL     1      15.561   2.118  -8.271  0.00  0.00    +0.000 C 
ATOM      3  S   UNL     1      17.330   2.999 -10.633  0.00  0.00    +0.000 S 
ATOM      4  S   UNL     1      19.713   2.579 -12.604  0.00  0.00    +0.000 S 
ATOM      5  C   UNL     1      19.680   3.488 -11.519  0.00  0.00    +0.000 C 
ATOM      6  C   UNL     1      19.139   1.992 -10.785  0.00  0.00    +0.000 C 
ATOM      7  C   UNL     1      17.667   1.234 -11.867  0.00  0.00    +0.000 C 
ATOM      8  O   UNL     1      17.881   1.190 -13.076  0.00  0.00    +0.000 OA
ATOM      9  N   UNL     1      16.210   1.420 -11.355  0.00  0.00    +0.000 N 
ATOM     10  C   UNL     1      15.493   2.062 -10.164  0.00  0.00    +0.000 C 
ATOM     11  C   UNL     1      16.935   1.062  -8.904  0.00  0.00    +0.000 C 
ATOM     12  O   UNL     1      18.150   1.268  -8.877  0.00  0.00    +0.000 OA
ATOM     13  N   UNL     1      16.236   0.634  -7.778  0.00  0.00    +0.000 N 
ATOM     14  C   UNL     1      14.783   0.735  -7.754  0.00  0.00    +0.000 C 
ATOM     15  C   UNL     1      14.350   2.707  -7.363  0.00  0.00    +0.000 C 
ATOM     16  O   UNL     1      14.708   3.691  -8.110  0.00  0.00    +0.000 OA
ATOM     17  N   UNL     1      13.695   2.976  -6.367  0.00  0.00    +0.000 N 
ATOM     18  C   UNL     1      13.231   2.266  -5.262  0.00  0.00    +0.000 C 
ATOM     19  C   UNL     1      11.941   0.718  -6.363  0.00  0.00    +0.000 C 
ATOM     20  O   UNL     1      12.301  -0.061  -7.292  0.00  0.00    +0.000 OA
ATOM     21  N   UNL     1      10.757   0.481  -5.675  0.00  0.00    +0.000 N 
ATOM     22  C   UNL     1      10.179   1.090  -4.353  0.00  0.00    +0.000 C 
ATOM     23  C   UNL     1      11.412   1.536  -2.950  0.00  0.00    +0.000 C 
ATOM     24  O   UNL     1      12.891   1.236  -2.686  0.00  0.00    +0.000 OA
ATOM     25  N   UNL     1      12.746   0.759  -4.238  0.00  0.00    +0.000 N 
ATOM     26  H   UNL     1      15.516   1.404 -11.929  0.00  0.00    +0.000 HD
ATOM     27  H   UNL     1      16.701   0.188  -7.125  0.00  0.00    +0.000 HD
ATOM     28  H   UNL     1      13.390   3.833  -6.249  0.00  0.00    +0.000 HD
ATOM     29  H   UNL     1      10.311  -0.301  -5.915  0.00  0.00    +0.000 HD
ATOM     30  H   UNL     1      12.133   0.574  -2.821  0.00  0.00    +0.000 HD
ENDROOT
BRANCH   1  36
ATOM     31  C   UNL     1       7.759  -0.462  -1.538  0.00  0.00    +0.000 C 
ATOM     32  C   UNL     1       5.823  -0.267  -0.329  0.00  0.00    +0.000 C 
ATOM     33  C   UNL     1       6.377  -1.068   0.712  0.00  0.00    +0.000 C 
ATOM     34  C   UNL     1       8.472  -0.771  -0.419  0.00  0.00    +0.000 C 
ATOM     35  N   UNL     1       9.962  -0.148  -2.451  0.00  0.00    +0.000 N 
ATOM     36  C   UNL     1      11.800   0.322  -4.197  0.00  0.00    +0.000 C 
ATOM     37  O   UNL     1      11.273  -0.090  -2.652  0.00  0.00    +0.000 OA
BRANCH  31  39
ATOM     38  N   UNL     1       6.491   1.517  -2.317  0.00  0.00    +0.000 N 
ATOM     39  C   UNL     1       6.836   0.195  -2.363  0.00  0.00    +0.000 C 
ATOM     40  O   UNL     1       7.246  -0.482  -3.291  0.00  0.00    +0.000 OA
ATOM     41  H   UNL     1       5.959   1.977  -1.590  0.00  0.00    +0.000 HD
BRANCH  38  42
ATOM     42  C   UNL     1       6.965   2.375  -3.416  0.00  0.00    +0.000 C 
BRANCH  42  43
ATOM     43  C   UNL     1       8.487   2.677  -3.330  0.00  0.00    +0.000 C 
ATOM     44  O   UNL     1       9.185   2.093  -2.356  0.00  0.00    +0.000 OA
ATOM     45  N   UNL     1       9.096   3.245  -4.455  0.00  0.00    +0.000 N 
ATOM     46  H   UNL     1       8.672   3.477  -5.296  0.00  0.00    +0.000 HD
BRANCH  45  47
ATOM     47  C   UNL     1      10.491   3.457  -4.606  0.00  0.00    +0.000 C 
BRANCH  47  48
ATOM     48  C   UNL     1      11.090   3.923  -5.843  0.00  0.00    +0.000 C 
ATOM     49  N   UNL     1      10.242   4.380  -6.695  0.00  0.00    +0.000 N 
ATOM     50  O   UNL     1      12.254   4.133  -5.979  0.00  0.00    +0.000 OA
ATOM     51  H   UNL     1       9.266   4.305  -6.551  0.00  0.00    +0.000 HD
ATOM     52  H   UNL     1      10.580   4.902  -7.478  0.00  0.00    +0.000 HD
ENDBRANCH  47  48
ENDBRANCH  45  47
ENDBRANCH  42  43
BRANCH  42  53
ATOM     53  C   UNL     1       6.445   3.748  -3.391  0.00  0.00    +0.000 C 
BRANCH  53  54
ATOM     54  C   UNL     1       6.834   5.053  -2.743  0.00  0.00    +0.000 C 
BRANCH  54  55
ATOM     55  C   UNL     1       5.607   5.968  -2.691  0.00  0.00    +0.000 C 
BRANCH  55  59
ATOM     56  N   UNL     1       5.256   9.389  -1.331  0.00  0.00    +0.000 NA
ATOM     57  C   UNL     1       4.913   8.270  -1.899  0.00  0.00    +0.000 C 
ATOM     58  N   UNL     1       3.611   8.042  -2.350  0.00  0.00    +0.000 N 
ATOM     59  N   UNL     1       5.885   7.250  -2.070  0.00  0.00    +0.000 N 
ATOM     60  H   UNL     1       4.534  10.109  -1.221  0.00  0.00    +0.000 HD
ATOM     61  H   UNL     1       2.869   8.741  -2.254  0.00  0.00    +0.000 HD
ATOM     62  H   UNL     1       3.318   7.180  -2.795  0.00  0.00    +0.000 HD
ATOM     63  H   UNL     1       6.855   7.401  -1.742  0.00  0.00    +0.000 HD
ENDBRANCH  55  59
ENDBRANCH  54  55
ENDBRANCH  53  54
ENDBRANCH  42  53
ENDBRANCH  38  42
ENDBRANCH  31  39
ENDBRANCH   1  36
BRANCH   6  64
ATOM     64  N   UNL     1      19.981   0.962 -10.717  0.00  0.00    +0.000 NA
ATOM     65  H   UNL     1      20.181   0.773 -11.683  0.00  0.00    +0.000 HD
ATOM     66  H   UNL     1      19.374   0.320 -10.282  0.00  0.00    +0.000 HD
ENDBRANCH   6  64
BRANCH  14  67
ATOM     67  C   UNL     1      14.476  -0.253  -6.574  0.00  0.00    +0.000 C 
BRANCH  67  68
ATOM     68  C   UNL     1      14.612  -1.525  -6.758  0.00  0.00    +0.000 A 
ATOM     69  C   UNL     1      14.289  -2.345  -5.779  0.00  0.00    +0.000 A 
ATOM     70  C   UNL     1      14.901  -3.544  -5.900  0.00  0.00    +0.000 A 
ATOM     71  C   UNL     1      15.491  -3.961  -7.052  0.00  0.00    +0.000 A 
ATOM     72  C   UNL     1      15.709  -3.035  -8.013  0.00  0.00    +0.000 A 
ATOM     73  C   UNL     1      15.231  -1.802  -7.891  0.00  0.00    +0.000 A 
ENDBRANCH  67  68
ENDBRANCH  14  67
BRANCH  10  74
ATOM     74  C   UNL     1      14.194   2.187  -9.845  0.00  0.00    +0.000 C 
BRANCH  74  75
ATOM     75  C   UNL     1      13.812   3.158 -10.676  0.00  0.00    +0.000 A 
ATOM     76  C   UNL     1      14.394   3.311 -11.893  0.00  0.00    +0.000 A 
ATOM     77  C   UNL     1      13.735   3.939 -12.879  0.00  0.00    +0.000 A 
ATOM     78  C   UNL     1      12.486   4.434 -12.602  0.00  0.00    +0.000 A 
ATOM     79  C   UNL     1      11.950   4.315 -11.336  0.00  0.00    +0.000 A 
ATOM     80  C   UNL     1      12.627   3.672 -10.356  0.00  0.00    +0.000 A 
BRANCH  78  81
ATOM     81  O   UNL     1      11.714   5.074 -13.514  0.00  0.00    +0.000 OA
ATOM     82  H   UNL     1      12.085   5.160 -14.404  0.00  0.00    +0.000 HD
ENDBRANCH  78  81
ENDBRANCH  74  75
ENDBRANCH  10  74
BRANCH  18  83
ATOM     83  C   UNL     1      12.793   2.808  -4.213  0.00  0.00    +0.000 C 
BRANCH  83  84
ATOM     84  C   UNL     1      13.431   3.629  -3.484  0.00  0.00    +0.000 C 
BRANCH  84  85
ATOM     85  C   UNL     1      12.599   4.218  -2.395  0.00  0.00    +0.000 C 
ATOM     86  N   UNL     1      11.294   3.824  -2.054  0.00  0.00    +0.000 N 
ATOM     87  O   UNL     1      13.145   5.116  -1.772  0.00  0.00    +0.000 OA
ATOM     88  H   UNL     1      10.741   3.083  -2.486  0.00  0.00    +0.000 HD
ATOM     89  H   UNL     1      10.731   4.247  -1.360  0.00  0.00    +0.000 HD
ENDBRANCH  84  85
ENDBRANCH  83  84
ENDBRANCH  18  83
BRANCH  22  90
ATOM     90  C   UNL     1       8.943   0.683  -4.181  0.00  0.00    +0.000 C 
BRANCH  90  91
ATOM     91  C   UNL     1       8.132   1.008  -5.325  0.00  0.00    +0.000 C 
ATOM     92  N   UNL     1       8.689   1.622  -6.440  0.00  0.00    +0.000 N 
ATOM     93  O   UNL     1       6.951   0.706  -5.298  0.00  0.00    +0.000 OA
ATOM     94  H   UNL     1       9.680   1.849  -6.519  0.00  0.00    +0.000 HD
ATOM     95  H   UNL     1       8.133   1.770  -7.259  0.00  0.00    +0.000 HD
ENDBRANCH  90  91
ENDBRANCH  22  90
TORSDOF 21
