REMARK  Name = CHEMBL562946
REMARK  7 active torsions:
REMARK  status: ('A' for Active; 'I' for Inactive)
REMARK    1  A    between atoms: C_1  and  O_2
REMARK    2  A    between atoms: O_2  and  C_3
REMARK    3  A    between atoms: C_6  and  N_7
REMARK    4  A    between atoms: C_8  and  C_9
REMARK    5  A    between atoms: C_12  and  C_13
REMARK    6  A    between atoms: C_16  and  O_17
REMARK    7  A    between atoms: O_17  and  C_18
REMARK                            x       y       z     vdW  Elec       q    Type
REMARK                         _______ _______ _______ _____ _____    ______ ____
ROOT
ATOM      1  N   UNL     1       5.154   0.004  -4.902  0.00  0.00    +0.000 N 
ATOM      2  C   UNL     1       5.448  -1.050  -5.765  0.00  0.00    +0.000 A 
ATOM      3  C   UNL     1       4.951  -2.451  -5.732  0.00  0.00    +0.000 C 
ATOM      4  N   UNL     1       6.182  -0.590  -6.762  0.00  0.00    +0.000 NA
ATOM      5  N   UNL     1       6.378   0.747  -6.584  0.00  0.00    +0.000 NA
ATOM      6  C   UNL     1       5.778   1.119  -5.464  0.00  0.00    +0.000 A 
ENDROOT
BRANCH   1  10
ATOM      7  C   UNL     1       3.056   0.069  -1.286  0.00  0.00    +0.000 A 
ATOM      8  C   UNL     1       2.684   0.958  -2.282  0.00  0.00    +0.000 A 
ATOM      9  C   UNL     1       3.369   0.931  -3.504  0.00  0.00    +0.000 A 
ATOM     10  C   UNL     1       4.394   0.002  -3.702  0.00  0.00    +0.000 A 
ATOM     11  C   UNL     1       4.732  -0.819  -2.637  0.00  0.00    +0.000 A 
ATOM     12  N   UNL     1       4.088  -0.793  -1.438  0.00  0.00    +0.000 NA
BRANCH   7  14
ATOM     13  C   UNL     1       1.054   0.073  -0.039  0.00  0.00    +0.000 C 
ATOM     14  O   UNL     1       2.481   0.065  -0.041  0.00  0.00    +0.000 OA
ENDBRANCH   7  14
ENDBRANCH   1  10
BRANCH   6  15
ATOM     15  C   UNL     1       5.877   2.443  -4.857  0.00  0.00    +0.000 A 
ATOM     16  C   UNL     1       6.444   2.640  -3.599  0.00  0.00    +0.000 A 
ATOM     17  N   UNL     1       6.474   3.846  -2.977  0.00  0.00    +0.000 NA
ATOM     18  C   UNL     1       5.998   4.889  -3.694  0.00  0.00    +0.000 A 
ATOM     19  C   UNL     1       5.455   4.703  -4.963  0.00  0.00    +0.000 A 
ATOM     20  N   UNL     1       5.362   3.482  -5.561  0.00  0.00    +0.000 NA
BRANCH  18  21
ATOM     21  O   UNL     1       6.027   6.184  -3.182  0.00  0.00    +0.000 OA
BRANCH  21  22
ATOM     22  C   UNL     1       6.659   6.382  -1.970  0.00  0.00    +0.000 A 
ATOM     23  C   UNL     1       5.894   6.974  -0.953  0.00  0.00    +0.000 A 
ATOM     24  C   UNL     1       6.458   7.227   0.303  0.00  0.00    +0.000 A 
ATOM     25  C   UNL     1       7.788   6.895   0.549  0.00  0.00    +0.000 A 
ATOM     26  C   UNL     1       8.567   6.349  -0.472  0.00  0.00    +0.000 A 
ATOM     27  C   UNL     1       8.018   6.123  -1.740  0.00  0.00    +0.000 A 
ATOM     28 CL   UNL     1       9.097   5.600  -2.986  0.00  0.00    +0.000 Cl
ENDBRANCH  21  22
ENDBRANCH  18  21
ENDBRANCH   6  15
TORSDOF 5
