REMARK  Name = CHEMBL1089391
REMARK  7 active torsions:
REMARK  status: ('A' for Active; 'I' for Inactive)
REMARK    1  A    between atoms: C_1  and  O_2
REMARK    2  A    between atoms: O_2  and  C_3
REMARK    3  A    between atoms: C_6  and  N_7
REMARK    4  A    between atoms: C_8  and  C_9
REMARK    5  A    between atoms: C_15  and  O_16
REMARK    6  A    between atoms: O_16  and  C_17
REMARK    7  A    between atoms: C_23  and  C_24
REMARK                            x       y       z     vdW  Elec       q    Type
REMARK                         _______ _______ _______ _____ _____    ______ ____
ROOT
ATOM      1  N   UNL     1       5.281   0.351   4.936  0.00  0.00    +0.000 N 
ATOM      2  C   UNL     1       5.599   1.451   5.736  0.00  0.00    +0.000 A 
ATOM      3  C   UNL     1       5.105   2.861   5.608  0.00  0.00    +0.000 C 
ATOM      4  N   UNL     1       6.306   1.026   6.764  0.00  0.00    +0.000 NA
ATOM      5  N   UNL     1       6.409  -0.351   6.697  0.00  0.00    +0.000 NA
ATOM      6  C   UNL     1       5.790  -0.768   5.625  0.00  0.00    +0.000 A 
ATOM      7  N   UNL     1       5.601  -2.042   5.128  0.00  0.00    +0.000 N 
ATOM      8  C   UNL     1       5.656  -3.303   5.807  0.00  0.00    +0.000 C 
ATOM      9  C   UNL     1       6.762  -3.799   4.840  0.00  0.00    +0.000 C 
ATOM     10  C   UNL     1       6.349  -2.552   4.016  0.00  0.00    +0.000 C 
ENDROOT
BRANCH   1  14
ATOM     11  C   UNL     1       3.170   0.076   1.350  0.00  0.00    +0.000 A 
ATOM     12  C   UNL     1       2.787  -0.729   2.411  0.00  0.00    +0.000 A 
ATOM     13  C   UNL     1       3.472  -0.614   3.620  0.00  0.00    +0.000 A 
ATOM     14  C   UNL     1       4.520   0.303   3.743  0.00  0.00    +0.000 A 
ATOM     15  C   UNL     1       4.865   1.041   2.624  0.00  0.00    +0.000 A 
ATOM     16  N   UNL     1       4.213   0.937   1.433  0.00  0.00    +0.000 NA
BRANCH  11  18
ATOM     17  C   UNL     1       1.167  -0.027   0.115  0.00  0.00    +0.000 C 
ATOM     18  O   UNL     1       2.594  -0.016   0.109  0.00  0.00    +0.000 OA
ENDBRANCH  11  18
ENDBRANCH   1  14
BRANCH   9  19
ATOM     19  O   UNL     1       8.108  -3.925   5.402  0.00  0.00    +0.000 OA
BRANCH  19  20
ATOM     20  C   UNL     1       9.085  -4.566   4.654  0.00  0.00    +0.000 A 
ATOM     21  C   UNL     1       9.670  -5.734   5.172  0.00  0.00    +0.000 A 
ATOM     22  C   UNL     1      10.752  -6.347   4.511  0.00  0.00    +0.000 A 
ATOM     23  C   UNL     1      11.256  -5.799   3.337  0.00  0.00    +0.000 A 
ATOM     24  C   UNL     1      10.684  -4.642   2.837  0.00  0.00    +0.000 A 
ATOM     25  F   UNL     1      11.175  -4.118   1.705  0.00  0.00    +0.000 F 
ATOM     26  C   UNL     1       9.620  -4.009   3.485  0.00  0.00    +0.000 A 
ATOM     27  C   UNL     1       9.100  -2.765   2.866  0.00  0.00    +0.000 C 
ENDBRANCH  19  20
ENDBRANCH   9  19
TORSDOF 4
