REMARK  Name = CHEMBL200792
REMARK  8 active torsions:
REMARK  status: ('A' for Active; 'I' for Inactive)
REMARK    1  A    between atoms: C_2  and  C_3
REMARK    2  A    between atoms: C_3  and  N_4
REMARK    3  A    between atoms: N_4  and  C_5
REMARK    4  A    between atoms: N_4  and  S_12
REMARK    5  A    between atoms: S_12  and  C_15
REMARK    6  A    between atoms: N_21  and  N_22
REMARK    7  A    between atoms: C_23  and  C_24
REMARK    8  A    between atoms: C_29  and  O_30
REMARK                            x       y       z     vdW  Elec       q    Type
REMARK                         _______ _______ _______ _____ _____    ______ ____
ROOT
ATOM      1  N   UNL     1       1.943  -2.326  -0.092  0.00  0.00    +0.000 N 
ENDROOT
BRANCH   1   2
ATOM      2  C   UNL     1       0.557  -2.023   0.020  0.00  0.00    +0.000 A 
ATOM      3  C   UNL     1      -0.025  -1.215  -0.972  0.00  0.00    +0.000 A 
ATOM      4  C   UNL     1      -1.372  -0.874  -0.898  0.00  0.00    +0.000 A 
ATOM      5  C   UNL     1      -2.176  -1.487   0.055  0.00  0.00    +0.000 A 
ATOM      6 CL   UNL     1      -3.871  -1.208   0.043  0.00  0.00    +0.000 Cl
ATOM      7  C   UNL     1      -1.619  -2.347   1.003  0.00  0.00    +0.000 A 
ATOM      8  C   UNL     1      -0.231  -2.525   1.060  0.00  0.00    +0.000 A 
ENDBRANCH   1   2
BRANCH   1   9
ATOM      9  S   UNL     1       2.551  -3.930  -0.187  0.00  0.00    +0.000 S 
ATOM     10  O   UNL     1       3.307  -4.030  -1.429  0.00  0.00    +0.000 OA
ATOM     11  O   UNL     1       3.213  -4.193   1.073  0.00  0.00    +0.000 OA
BRANCH   9  12
ATOM     12  C   UNL     1       1.237  -5.177  -0.323  0.00  0.00    +0.000 A 
ATOM     13  C   UNL     1      -0.101  -4.846  -0.460  0.00  0.00    +0.000 A 
ATOM     14  C   UNL     1      -1.128  -5.705  -0.086  0.00  0.00    +0.000 A 
ATOM     15  C   UNL     1      -0.846  -7.046   0.028  0.00  0.00    +0.000 A 
ATOM     16  C   UNL     1       0.478  -7.470  -0.103  0.00  0.00    +0.000 A 
ATOM     17  C   UNL     1       1.531  -6.536  -0.203  0.00  0.00    +0.000 A 
ENDBRANCH   9  12
ENDBRANCH   1   9
BRANCH   1  18
ATOM     18  C   UNL     1       2.930  -1.184   0.027  0.00  0.00    +0.000 C 
BRANCH  18  20
ATOM     19  O   UNL     1       1.173   0.518   0.540  0.00  0.00    +0.000 OA
ATOM     20  C   UNL     1       2.335   0.242   0.223  0.00  0.00    +0.000 C 
ATOM     21  N   UNL     1       3.123   1.338   0.066  0.00  0.00    +0.000 N 
ATOM     22  H   UNL     1       2.639   2.224   0.177  0.00  0.00    +0.000 HD
BRANCH  21  23
ATOM     23  N   UNL     1       4.455   1.268   0.091  0.00  0.00    +0.000 NA
ATOM     24  C   UNL     1       5.061   2.407   0.169  0.00  0.00    +0.000 C 
BRANCH  24  25
ATOM     25  C   UNL     1       6.524   2.458   0.114  0.00  0.00    +0.000 A 
ATOM     26  C   UNL     1       7.215   3.356   0.931  0.00  0.00    +0.000 A 
ATOM     27  C   UNL     1       8.600   3.462   0.802  0.00  0.00    +0.000 A 
ATOM     28  C   UNL     1       9.285   2.635  -0.093  0.00  0.00    +0.000 A 
ATOM     29  C   UNL     1       8.591   1.724  -0.891  0.00  0.00    +0.000 A 
ATOM     30  C   UNL     1       7.208   1.645  -0.796  0.00  0.00    +0.000 A 
BRANCH  30  31
ATOM     31  O   UNL     1       6.515   0.812  -1.627  0.00  0.00    +0.000 OA
ATOM     32  H   UNL     1       7.121   0.214  -2.089  0.00  0.00    +0.000 HD
ENDBRANCH  30  31
ENDBRANCH  24  25
ENDBRANCH  21  23
ENDBRANCH  18  20
ENDBRANCH   1  18
TORSDOF 8
