REMARK  Name = CHEMBL283676
REMARK  7 active torsions:
REMARK  status: ('A' for Active; 'I' for Inactive)
REMARK    1  A    between atoms: C_2  and  C_3
REMARK    2  A    between atoms: C_8  and  C_9
REMARK    3  A    between atoms: C_9  and  N_10
REMARK    4  A    between atoms: C_15  and  C_16
REMARK    5  A    between atoms: C_16  and  N_17
REMARK    6  A    between atoms: C_19  and  C_20
REMARK    7  A    between atoms: C_34  and  N_35
REMARK                            x       y       z     vdW  Elec       q    Type
REMARK                         _______ _______ _______ _____ _____    ______ ____
ROOT
ATOM      1  C   UNL     1       2.935  -1.096   0.482  0.00  0.00    +0.000 A 
ATOM      2  C   UNL     1       2.451  -2.394   0.209  0.00  0.00    +0.000 A 
ATOM      3  C   UNL     1       2.965  -3.527   0.873  0.00  0.00    +0.000 A 
ATOM      4  C   UNL     1       3.939  -3.273   1.845  0.00  0.00    +0.000 A 
ATOM      5  O   UNL     1       4.481  -4.171   2.718  0.00  0.00    +0.000 OA
ATOM      6  C   UNL     1       5.616  -3.614   3.255  0.00  0.00    +0.000 A 
ATOM      7  C   UNL     1       5.581  -2.262   2.999  0.00  0.00    +0.000 A 
ATOM      8  C   UNL     1       4.513  -2.037   2.082  0.00  0.00    +0.000 A 
ATOM      9  C   UNL     1       3.969  -0.922   1.423  0.00  0.00    +0.000 A 
ENDROOT
BRANCH   1  11
ATOM     10  O   UNL     1       1.043   0.192   0.004  0.00  0.00    +0.000 OA
ATOM     11  C   UNL     1       2.268   0.140  -0.089  0.00  0.00    +0.000 C 
ATOM     12  N   UNL     1       3.101   1.206  -0.564  0.00  0.00    +0.000 N 
ATOM     13  C   UNL     1       4.130   0.937  -1.566  0.00  0.00    +0.000 C 
ATOM     14  C   UNL     1       5.395   1.796  -1.337  0.00  0.00    +0.000 C 
ATOM     15  C   UNL     1       5.154   3.585  -1.624  0.00  0.00    +0.000 C 
ATOM     16  C   UNL     1       3.944   3.600  -0.320  0.00  0.00    +0.000 C 
ATOM     17  C   UNL     1       2.708   2.637  -0.553  0.00  0.00    +0.000 C 
BRANCH  15  18
ATOM     18  N   UNL     1       5.754   4.667  -3.050  0.00  0.00    +0.000 N 
ATOM     19  C   UNL     1       6.683   3.611  -3.168  0.00  0.00    +0.000 C 
ATOM     20  O   UNL     1       7.494   3.151  -2.305  0.00  0.00    +0.000 OA
ATOM     21  O   UNL     1       6.462   2.869  -4.230  0.00  0.00    +0.000 OA
ATOM     22  C   UNL     1       7.432   3.437  -5.013  0.00  0.00    +0.000 C 
ATOM     23  C   UNL     1       6.478   4.276  -5.740  0.00  0.00    +0.000 A 
ATOM     24  C   UNL     1       6.758   4.113  -7.251  0.00  0.00    +0.000 A 
ATOM     25  C   UNL     1       6.850   5.068  -8.218  0.00  0.00    +0.000 A 
ATOM     26  C   UNL     1       6.640   6.269  -7.597  0.00  0.00    +0.000 A 
ATOM     27  C   UNL     1       6.182   6.391  -5.966  0.00  0.00    +0.000 A 
ATOM     28  C   UNL     1       5.924   5.220  -4.853  0.00  0.00    +0.000 A 
ENDBRANCH  15  18
ENDBRANCH   1  11
BRANCH   6  29
ATOM     29  C   UNL     1       6.640  -4.486   3.933  0.00  0.00    +0.000 C 
BRANCH  29  30
ATOM     30  N   UNL     1       6.510  -5.951   3.824  0.00  0.00    +0.000 NA
ATOM     31  C   UNL     1       5.293  -6.440   4.478  0.00  0.00    +0.000 C 
ATOM     32  C   UNL     1       5.291  -7.966   4.552  0.00  0.00    +0.000 C 
ATOM     33  C   UNL     1       5.526  -8.602   3.192  0.00  0.00    +0.000 C 
ATOM     34  C   UNL     1       6.803  -8.020   2.576  0.00  0.00    +0.000 C 
ATOM     35  C   UNL     1       6.682  -6.499   2.450  0.00  0.00    +0.000 C 
BRANCH  35  36
ATOM     36  C   UNL     1       5.530  -6.118   1.485  0.00  0.00    +0.000 C 
BRANCH  36  37
ATOM     37  N   UNL     1       5.533  -6.586   0.129  0.00  0.00    +0.000 N 
ATOM     38  C   UNL     1       5.532  -7.932  -0.119  0.00  0.00    +0.000 A 
ATOM     39  C   UNL     1       6.067  -8.406  -1.244  0.00  0.00    +0.000 A 
ATOM     40  C   UNL     1       6.262  -7.482  -2.337  0.00  0.00    +0.000 A 
ATOM     41  C   UNL     1       5.946  -6.187  -2.210  0.00  0.00    +0.000 A 
ATOM     42  C   UNL     1       5.697  -5.630  -0.869  0.00  0.00    +0.000 A 
ATOM     43  O   UNL     1       5.689  -4.411  -0.728  0.00  0.00    +0.000 OA
BRANCH  39  44
ATOM     44  C   UNL     1       6.446  -9.841  -1.381  0.00  0.00    +0.000 C 
ATOM     45  F   UNL     1       5.717 -10.450  -2.342  0.00  0.00    +0.000 F 
ATOM     46  F   UNL     1       7.755  -9.975  -1.712  0.00  0.00    +0.000 F 
ATOM     47  F   UNL     1       6.266 -10.546  -0.232  0.00  0.00    +0.000 F 
ENDBRANCH  39  44
ENDBRANCH  36  37
ENDBRANCH  35  36
ENDBRANCH  29  30
ENDBRANCH   6  29
TORSDOF 7
