REMARK  Name = CHEMBL511917
REMARK  11 active torsions:
REMARK  status: ('A' for Active; 'I' for Inactive)
REMARK    1  A    between atoms: C_1  and  O_2
REMARK    2  A    between atoms: O_2  and  C_3
REMARK    3  A    between atoms: C_3  and  C_4
REMARK    4  A    between atoms: C_7  and  C_8
REMARK    5  A    between atoms: C_11  and  C_12
REMARK    6  A    between atoms: C_15  and  O_16
REMARK    7  A    between atoms: O_16  and  C_17
REMARK    8  A    between atoms: C_18  and  C_19
REMARK    9  A    between atoms: N_23  and  C_24
REMARK   10  A    between atoms: C_27  and  O_28
REMARK   11  A    between atoms: O_28  and  C_29
REMARK                            x       y       z     vdW  Elec       q    Type
REMARK                         _______ _______ _______ _____ _____    ______ ____
ROOT
ATOM      1  C   UNL     1       4.603  -0.592  -1.178  0.00  0.00    +0.000 A 
ATOM      2  N   UNL     1       5.459  -1.507  -0.759  0.00  0.00    +0.000 NA
ATOM      3  N   UNL     1       6.741  -1.071  -1.047  0.00  0.00    +0.000 NA
ATOM      4  C   UNL     1       6.662   0.111  -1.636  0.00  0.00    +0.000 A 
ATOM      5  N   UNL     1       5.322   0.426  -1.764  0.00  0.00    +0.000 N 
ENDROOT
BRANCH   4   6
ATOM      6  C   UNL     1       7.749   1.020  -2.017  0.00  0.00    +0.000 A 
ATOM      7  C   UNL     1       7.830   2.323  -1.523  0.00  0.00    +0.000 A 
ATOM      8  N   UNL     1       8.754   3.235  -1.936  0.00  0.00    +0.000 NA
ATOM      9  C   UNL     1       9.617   2.813  -2.893  0.00  0.00    +0.000 A 
ATOM     10  C   UNL     1       9.526   1.511  -3.391  0.00  0.00    +0.000 A 
ATOM     11  N   UNL     1       8.600   0.594  -2.979  0.00  0.00    +0.000 NA
BRANCH   9  12
ATOM     12  C   UNL     1      10.637   3.772  -3.347  0.00  0.00    +0.000 A 
ATOM     13  C   UNL     1      11.557   4.330  -2.459  0.00  0.00    +0.000 A 
ATOM     14  C   UNL     1      12.551   5.208  -2.917  0.00  0.00    +0.000 A 
ATOM     15  C   UNL     1      12.654   5.586  -4.271  0.00  0.00    +0.000 A 
ATOM     16  C   UNL     1      11.730   5.057  -5.184  0.00  0.00    +0.000 A 
ATOM     17  C   UNL     1      11.617   5.325  -6.661  0.00  0.00    +0.000 C 
ATOM     18  C   UNL     1      10.742   4.154  -4.695  0.00  0.00    +0.000 A 
BRANCH  15  19
ATOM     19  O   UNL     1      13.694   6.454  -4.468  0.00  0.00    +0.000 OA
ATOM     20  C   UNL     1      13.948   6.960  -5.763  0.00  0.00    +0.000 C 
ENDBRANCH  15  19
ENDBRANCH   9  12
ENDBRANCH   4   6
BRANCH   5  21
ATOM     21  C   UNL     1       4.801   1.538  -2.432  0.00  0.00    +0.000 A 
ATOM     22  C   UNL     1       4.000   2.444  -1.756  0.00  0.00    +0.000 A 
ATOM     23  C   UNL     1       3.544   3.553  -2.457  0.00  0.00    +0.000 A 
ATOM     24  C   UNL     1       3.886   3.695  -3.800  0.00  0.00    +0.000 A 
ATOM     25  N   UNL     1       4.665   2.806  -4.455  0.00  0.00    +0.000 NA
ATOM     26  C   UNL     1       5.125   1.748  -3.762  0.00  0.00    +0.000 A 
BRANCH  24  27
ATOM     27  O   UNL     1       3.480   4.724  -4.600  0.00  0.00    +0.000 OA
ATOM     28  C   UNL     1       2.671   5.714  -3.986  0.00  0.00    +0.000 C 
ENDBRANCH  24  27
ENDBRANCH   5  21
BRANCH   1  29
ATOM     29  C   UNL     1       3.110  -0.691  -1.221  0.00  0.00    +0.000 C 
BRANCH  29  31
ATOM     30  C   UNL     1       1.156  -0.053  -0.064  0.00  0.00    +0.000 C 
ATOM     31  O   UNL     1       2.582  -0.037  -0.064  0.00  0.00    +0.000 OA
ENDBRANCH  29  31
ENDBRANCH   1  29
TORSDOF 7
