REMARK  Name = CHEMBL1643585
REMARK  14 active torsions:
REMARK  status: ('A' for Active; 'I' for Inactive)
REMARK    1  A    between atoms: C_1  and  O_2
REMARK    2  A    between atoms: O_2  and  C_3
REMARK    3  A    between atoms: C_6  and  S_7
REMARK    4  A    between atoms: S_7  and  N_10
REMARK    5  A    between atoms: N_10  and  C_11
REMARK    6  A    between atoms: N_10  and  C_29
REMARK    7  A    between atoms: C_11  and  C_12
REMARK    8  A    between atoms: C_15  and  C_16
REMARK    9  A    between atoms: C_19  and  C_20
REMARK   10  A    between atoms: C_20  and  N_21
REMARK   11  A    between atoms: N_21  and  C_22
REMARK   12  A    between atoms: C_22  and  C_23
REMARK   13  A    between atoms: C_23  and  C_24
REMARK   14  A    between atoms: C_23  and  C_25
REMARK                            x       y       z     vdW  Elec       q    Type
REMARK                         _______ _______ _______ _____ _____    ______ ____
ROOT
ATOM      1  C   UNL     1       4.850  -0.494  -6.047  0.00  0.00    +0.000 C 
ENDROOT
BRANCH   1   2
ATOM      2  C   UNL     1       3.981   0.474  -5.098  0.00  0.00    +0.000 A 
ATOM      3  C   UNL     1       4.251   1.805  -4.797  0.00  0.00    +0.000 A 
ATOM      4  S   UNL     1       3.253   2.244  -3.337  0.00  0.00    +0.000 S 
ATOM      5  C   UNL     1       2.096   0.776  -3.593  0.00  0.00    +0.000 A 
ATOM      6  N   UNL     1       2.610   0.147  -4.686  0.00  0.00    +0.000 NA
BRANCH   5   7
ATOM      7  C   UNL     1       1.108  -0.136  -2.339  0.00  0.00    +0.000 A 
ATOM      8  C   UNL     1      -0.011   0.427  -1.828  0.00  0.00    +0.000 A 
ATOM      9  C   UNL     1      -0.509  -0.085  -0.553  0.00  0.00    +0.000 A 
ATOM     10  C   UNL     1       0.057  -1.154   0.295  0.00  0.00    +0.000 A 
ATOM     11  C   UNL     1       1.108  -1.881  -0.190  0.00  0.00    +0.000 A 
ATOM     12  C   UNL     1       1.473  -1.513  -1.497  0.00  0.00    +0.000 A 
BRANCH  10  13
ATOM     13  C   UNL     1      -0.258  -1.228   1.770  0.00  0.00    +0.000 C 
BRANCH  13  14
ATOM     14  N   UNL     1       0.603  -2.163   2.495  0.00  0.00    +0.000 NA
ATOM     15  H   UNL     1       1.510  -1.744   2.706  0.00  0.00    +0.000 HD
BRANCH  14  16
ATOM     16  C   UNL     1      -0.056  -2.587   3.706  0.00  0.00    +0.000 C 
BRANCH  16  17
ATOM     17  C   UNL     1       0.763  -3.674   4.391  0.00  0.00    +0.000 C 
ATOM     18  C   UNL     1       2.151  -3.174   4.792  0.00  0.00    +0.000 C 
ATOM     19  C   UNL     1      -0.034  -4.104   5.613  0.00  0.00    +0.000 C 
ENDBRANCH  16  17
ENDBRANCH  14  16
ENDBRANCH  13  14
ENDBRANCH  10  13
ENDBRANCH   5   7
ENDBRANCH   1   2
BRANCH   1  20
ATOM     20  N   UNL     1       4.855  -2.062  -5.861  0.00  0.00    +0.000 NA
BRANCH  20  21
ATOM     21  C   UNL     1       5.384  -2.785  -7.110  0.00  0.00    +0.000 C 
ATOM     22  C   UNL     1       4.906  -4.241  -7.201  0.00  0.00    +0.000 C 
ATOM     23  C   UNL     1       5.206  -4.654  -8.634  0.00  0.00    +0.000 C 
ATOM     24  C   UNL     1       5.094  -3.376  -9.453  0.00  0.00    +0.000 C 
ATOM     25  C   UNL     1       4.902  -2.239  -8.449  0.00  0.00    +0.000 C 
ENDBRANCH  20  21
BRANCH  20  26
ATOM     26  S   UNL     1       5.848  -2.771  -4.478  0.00  0.00    +0.000 S 
ATOM     27  O   UNL     1       7.194  -2.185  -4.603  0.00  0.00    +0.000 OA
ATOM     28  O   UNL     1       5.596  -4.173  -4.413  0.00  0.00    +0.000 OA
BRANCH  26  32
ATOM     29  C   UNL     1       4.021  -0.393  -1.038  0.00  0.00    +0.000 A 
ATOM     30  C   UNL     1       4.935  -1.334  -0.689  0.00  0.00    +0.000 A 
ATOM     31  C   UNL     1       5.633  -2.106  -1.696  0.00  0.00    +0.000 A 
ATOM     32  C   UNL     1       5.209  -2.164  -3.024  0.00  0.00    +0.000 A 
ATOM     33  C   UNL     1       4.017  -1.723  -3.253  0.00  0.00    +0.000 A 
ATOM     34  C   UNL     1       3.682  -0.760  -2.329  0.00  0.00    +0.000 A 
BRANCH  29  36
ATOM     35  C   UNL     1       2.219   0.987   0.189  0.00  0.00    +0.000 C 
ATOM     36  O   UNL     1       3.532   0.439  -0.053  0.00  0.00    +0.000 OA
ENDBRANCH  29  36
ENDBRANCH  26  32
ENDBRANCH  20  26
ENDBRANCH   1  20
TORSDOF 11
