REMARK  Name = CHEMBL4205046
REMARK  3 active torsions:
REMARK  status: ('A' for Active; 'I' for Inactive)
REMARK    1  A    between atoms: C_1  and  C_2
REMARK    2  A    between atoms: N_8  and  C_9
REMARK    3  A    between atoms: C_12  and  C_13
REMARK                            x       y       z     vdW  Elec       q    Type
REMARK                         _______ _______ _______ _____ _____    ______ ____
ROOT
ATOM      1  C   UNL     1       6.599  -3.721   0.029  0.00  0.00    +0.000 A 
ATOM      2  C   UNL     1       7.747  -3.615   0.817  0.00  0.00    +0.000 A 
ATOM      3  C   UNL     1       8.817  -4.577   0.728  0.00  0.00    +0.000 A 
ATOM      4  C   UNL     1       8.752  -5.708  -0.138  0.00  0.00    +0.000 A 
ATOM      5  C   UNL     1       7.524  -5.777  -0.812  0.00  0.00    +0.000 A 
ATOM      6 CL   UNL     1       6.712  -7.141  -1.382  0.00  0.00    +0.000 Cl
ATOM      7  C   UNL     1       6.530  -4.784  -0.812  0.00  0.00    +0.000 A 
ENDROOT
BRANCH   4   8
ATOM      8  C   UNL     1       9.880  -6.811  -0.139  0.00  0.00    +0.000 C 
ATOM      9  O   UNL     1      10.780  -6.688   0.698  0.00  0.00    +0.000 OA
ATOM     10  N   UNL     1       9.797  -7.950  -1.017  0.00  0.00    +0.000 N 
ATOM     11  C   UNL     1       9.927  -7.825  -2.507  0.00  0.00    +0.000 C 
ATOM     12  C   UNL     1       8.710  -8.234  -3.354  0.00  0.00    +0.000 C 
ATOM     13  C   UNL     1       8.076  -9.589  -3.013  0.00  0.00    +0.000 C 
ATOM     14  C   UNL     1       7.787  -9.914  -1.550  0.00  0.00    +0.000 C 
ATOM     15  C   UNL     1       9.036 -10.288  -0.842  0.00  0.00    +0.000 A 
ATOM     16  C   UNL     1       9.111 -11.634  -0.457  0.00  0.00    +0.000 A 
ATOM     17  C   UNL     1      10.238 -12.105   0.167  0.00  0.00    +0.000 A 
ATOM     18  C   UNL     1      11.272 -11.206   0.430  0.00  0.00    +0.000 A 
ATOM     19  C   UNL     1      11.172  -9.821   0.100  0.00  0.00    +0.000 A 
ATOM     20  C   UNL     1      10.034  -9.327  -0.551  0.00  0.00    +0.000 A 
ENDBRANCH   4   8
BRANCH   1  28
ATOM     21  C   UNL     1       1.005  -0.058  -0.089  0.00  0.00    +0.000 C 
ATOM     22  C   UNL     1       2.494  -0.042  -0.088  0.00  0.00    +0.000 A 
ATOM     23  C   UNL     1       3.279   1.130  -0.092  0.00  0.00    +0.000 A 
ATOM     24  C   UNL     1       4.567   0.686  -0.082  0.00  0.00    +0.000 A 
ATOM     25  N   UNL     1       4.540  -0.691  -0.049  0.00  0.00    +0.000 N 
ATOM     26  C   UNL     1       5.699  -1.497   0.023  0.00  0.00    +0.000 C 
ATOM     27  O   UNL     1       6.805  -0.932  -0.003  0.00  0.00    +0.000 OA
ATOM     28  N   UNL     1       5.487  -2.846   0.064  0.00  0.00    +0.000 N 
ATOM     29  N   UNL     1       3.246  -1.165  -0.079  0.00  0.00    +0.000 NA
ATOM     30  H   UNL     1       4.566  -3.175  -0.237  0.00  0.00    +0.000 HD
ENDBRANCH   1  28
TORSDOF 2
