REMARK  Name = CHEMBL1779417
REMARK  11 active torsions:
REMARK  status: ('A' for Active; 'I' for Inactive)
REMARK    1  A    between atoms: C_1  and  O_2
REMARK    2  A    between atoms: O_2  and  C_3
REMARK    3  A    between atoms: C_6  and  S_7
REMARK    4  A    between atoms: S_7  and  N_10
REMARK    5  A    between atoms: C_13  and  C_14
REMARK    6  A    between atoms: C_13  and  N_28
REMARK    7  A    between atoms: C_16  and  C_17
REMARK    8  A    between atoms: C_17  and  N_18
REMARK    9  A    between atoms: C_25  and  O_26
REMARK   10  A    between atoms: O_26  and  C_27
REMARK   11  A    between atoms: C_32  and  C_33
REMARK                            x       y       z     vdW  Elec       q    Type
REMARK                         _______ _______ _______ _____ _____    ______ ____
ROOT
ATOM      1  N   UNL     1       5.683  -3.654   6.797  0.00  0.00    +0.000 N 
ATOM      2  C   UNL     1       5.862  -4.779   5.879  0.00  0.00    +0.000 C 
ATOM      3  O   UNL     1       7.012  -4.997   5.458  0.00  0.00    +0.000 OA
ATOM      4  C   UNL     1       4.854  -5.892   6.320  0.00  0.00    +0.000 C 
ATOM      5  C   UNL     1       5.891  -6.210   7.480  0.00  0.00    +0.000 A 
ATOM      6  C   UNL     1       6.193  -7.577   8.089  0.00  0.00    +0.000 A 
ATOM      7  C   UNL     1       6.436  -7.827   9.400  0.00  0.00    +0.000 A 
ATOM      8 CL   UNL     1       6.147  -9.422  10.041  0.00  0.00    +0.000 Cl
ATOM      9  C   UNL     1       6.739  -6.668  10.044  0.00  0.00    +0.000 A 
ATOM     10  C   UNL     1       6.657  -5.231   9.349  0.00  0.00    +0.000 A 
ATOM     11  C   UNL     1       6.272  -4.930   7.958  0.00  0.00    +0.000 A 
ENDROOT
BRANCH   4  12
ATOM     12  C   UNL     1       3.487  -5.304   6.982  0.00  0.00    +0.000 A 
ATOM     13  C   UNL     1       3.103  -3.937   7.166  0.00  0.00    +0.000 A 
ATOM     14  C   UNL     1       1.891  -3.653   7.770  0.00  0.00    +0.000 A 
ATOM     15  C   UNL     1       0.988  -4.640   7.575  0.00  0.00    +0.000 A 
ATOM     16  C   UNL     1       1.312  -5.869   7.925  0.00  0.00    +0.000 A 
ATOM     17  C   UNL     1       2.538  -6.198   7.542  0.00  0.00    +0.000 A 
BRANCH  17  18
ATOM     18  O   UNL     1       2.404  -7.527   7.695  0.00  0.00    +0.000 OA
ATOM     19  C   UNL     1       3.621  -8.021   7.970  0.00  0.00    +0.000 C 
ENDBRANCH  17  18
BRANCH  14  20
ATOM     20  C   UNL     1       1.481  -2.382   8.467  0.00  0.00    +0.000 C 
BRANCH  20  21
ATOM     21  N   UNL     1       0.227  -2.412   9.297  0.00  0.00    +0.000 NA
ATOM     22  C   UNL     1       0.281  -3.245  10.522  0.00  0.00    +0.000 C 
ATOM     23  C   UNL     1      -0.299  -4.597  10.169  0.00  0.00    +0.000 C 
ATOM     24  C   UNL     1      -1.385  -4.236   9.140  0.00  0.00    +0.000 C 
ATOM     25  C   UNL     1      -0.974  -2.844   8.558  0.00  0.00    +0.000 C 
ENDBRANCH  20  21
ENDBRANCH  14  20
ENDBRANCH   4  12
BRANCH   4  26
ATOM     26  N   UNL     1       4.600  -6.921   5.199  0.00  0.00    +0.000 NA
ATOM     27  C   UNL     1       3.185  -7.409   4.940  0.00  0.00    +0.000 C 
ATOM     28  C   UNL     1       2.903  -8.885   5.496  0.00  0.00    +0.000 C 
ATOM     29  C   UNL     1       4.357  -9.462   5.582  0.00  0.00    +0.000 C 
ATOM     30  C   UNL     1       5.356  -8.191   5.350  0.00  0.00    +0.000 C 
BRANCH  30  31
ATOM     31  C   UNL     1       6.186  -8.555   4.229  0.00  0.00    +0.000 A 
ATOM     32  N   UNL     1       5.718  -8.925   3.075  0.00  0.00    +0.000 NA
ATOM     33  C   UNL     1       6.832  -9.335   2.445  0.00  0.00    +0.000 A 
ATOM     34  C   UNL     1       7.935  -9.232   3.256  0.00  0.00    +0.000 A 
ATOM     35  O   UNL     1       7.522  -8.750   4.454  0.00  0.00    +0.000 OA
ENDBRANCH  30  31
ENDBRANCH   4  26
BRANCH   1  36
ATOM     36  S   UNL     1       5.921  -2.375   5.106  0.00  0.00    +0.000 S 
ATOM     37  O   UNL     1       7.062  -2.873   4.266  0.00  0.00    +0.000 OA
ATOM     38  O   UNL     1       5.962  -1.093   5.695  0.00  0.00    +0.000 OA
BRANCH  36  42
ATOM     39  C   UNL     1       3.048  -0.577   1.200  0.00  0.00    +0.000 A 
ATOM     40  C   UNL     1       4.242  -0.021   1.647  0.00  0.00    +0.000 A 
ATOM     41  C   UNL     1       5.027  -0.650   2.713  0.00  0.00    +0.000 A 
ATOM     42  C   UNL     1       4.619  -1.833   3.473  0.00  0.00    +0.000 A 
ATOM     43  C   UNL     1       3.458  -2.422   2.931  0.00  0.00    +0.000 A 
ATOM     44  C   UNL     1       2.687  -1.783   1.820  0.00  0.00    +0.000 A 
BRANCH  39  46
ATOM     45  C   UNL     1       0.991  -0.029   0.038  0.00  0.00    +0.000 C 
ATOM     46  O   UNL     1       2.422   0.029   0.131  0.00  0.00    +0.000 OA
ENDBRANCH  39  46
ENDBRANCH  36  42
ENDBRANCH   1  36
TORSDOF 9
