REMARK  Name = CHEMBL561520
REMARK  9 active torsions:
REMARK  status: ('A' for Active; 'I' for Inactive)
REMARK    1  A    between atoms: C_1  and  O_2
REMARK    2  A    between atoms: O_2  and  C_3
REMARK    3  A    between atoms: C_6  and  N_7
REMARK    4  A    between atoms: C_8  and  C_9
REMARK    5  A    between atoms: C_12  and  C_13
REMARK    6  A    between atoms: C_16  and  O_17
REMARK    7  A    between atoms: O_17  and  C_18
REMARK    8  A    between atoms: C_23  and  S_24
REMARK    9  A    between atoms: S_24  and  C_25
REMARK                            x       y       z     vdW  Elec       q    Type
REMARK                         _______ _______ _______ _____ _____    ______ ____
ROOT
ATOM      1  C   UNL     1       6.052  -5.078   0.247  0.00  0.00    +0.000 A 
ATOM      2  C   UNL     1       6.456  -3.975  -0.501  0.00  0.00    +0.000 A 
ATOM      3  N   UNL     1       6.291  -3.886  -1.845  0.00  0.00    +0.000 NA
ATOM      4  C   UNL     1       5.793  -4.994  -2.442  0.00  0.00    +0.000 A 
ATOM      5  C   UNL     1       5.399  -6.109  -1.700  0.00  0.00    +0.000 A 
ATOM      6  N   UNL     1       5.497  -6.169  -0.341  0.00  0.00    +0.000 NA
ENDROOT
BRANCH   1  12
ATOM      7  N   UNL     1       5.466  -4.114   2.499  0.00  0.00    +0.000 N 
ATOM      8  C   UNL     1       5.875  -4.400   3.800  0.00  0.00    +0.000 A 
ATOM      9  C   UNL     1       5.431  -3.762   5.070  0.00  0.00    +0.000 C 
ATOM     10  N   UNL     1       6.663  -5.454   3.777  0.00  0.00    +0.000 NA
ATOM     11  N   UNL     1       6.799  -5.875   2.480  0.00  0.00    +0.000 NA
ATOM     12  C   UNL     1       6.103  -5.074   1.710  0.00  0.00    +0.000 A 
BRANCH   7  16
ATOM     13  C   UNL     1       3.135  -1.118   0.758  0.00  0.00    +0.000 A 
ATOM     14  C   UNL     1       2.783  -2.441   0.542  0.00  0.00    +0.000 A 
ATOM     15  C   UNL     1       3.535  -3.446   1.160  0.00  0.00    +0.000 A 
ATOM     16  C   UNL     1       4.604  -3.106   2.000  0.00  0.00    +0.000 A 
ATOM     17  C   UNL     1       4.916  -1.762   2.122  0.00  0.00    +0.000 A 
ATOM     18  N   UNL     1       4.205  -0.773   1.515  0.00  0.00    +0.000 NA
BRANCH  13  20
ATOM     19  C   UNL     1       1.094  -0.091   0.139  0.00  0.00    +0.000 C 
ATOM     20  O   UNL     1       2.520  -0.066   0.131  0.00  0.00    +0.000 OA
ENDBRANCH  13  20
ENDBRANCH   7  16
ENDBRANCH   1  12
BRANCH   4  21
ATOM     21  O   UNL     1       5.957  -5.182  -3.813  0.00  0.00    +0.000 OA
BRANCH  21  22
ATOM     22  C   UNL     1       6.737  -4.265  -4.489  0.00  0.00    +0.000 A 
ATOM     23  C   UNL     1       6.042  -3.552  -5.489  0.00  0.00    +0.000 A 
ATOM     24  C   UNL     1       6.682  -2.586  -6.267  0.00  0.00    +0.000 A 
ATOM     25  C   UNL     1       8.015  -2.293  -6.026  0.00  0.00    +0.000 A 
ATOM     26  C   UNL     1       8.722  -3.029  -5.070  0.00  0.00    +0.000 A 
ATOM     27  C   UNL     1       8.122  -4.065  -4.314  0.00  0.00    +0.000 A 
BRANCH  27  28
ATOM     28  S   UNL     1       9.340  -4.960  -3.322  0.00  0.00    +0.000 S 
ATOM     29  C   UNL     1       8.461  -6.286  -2.476  0.00  0.00    +0.000 C 
ENDBRANCH  27  28
ENDBRANCH  21  22
ENDBRANCH   4  21
TORSDOF 6
