REMARK  Name = CHEMBL438609
REMARK  8 active torsions:
REMARK  status: ('A' for Active; 'I' for Inactive)
REMARK    1  A    between atoms: CD1_1  and  CG_2
REMARK    2  A    between atoms: CG_2  and  CD2_3
REMARK    3  A    between atoms: CG_2  and  CB_4
REMARK    4  A    between atoms: CB_4  and  CA_5
REMARK    5  A    between atoms: C_9  and  C_10
REMARK    6  A    between atoms: N_21  and  C_22
REMARK    7  A    between atoms: C_22  and  C_23
REMARK    8  A    between atoms: C_22  and  C_26
REMARK                            x       y       z     vdW  Elec       q    Type
REMARK                         _______ _______ _______ _____ _____    ______ ____
ROOT
ATOM      1  CA  LEU A   2       4.511  -0.767   1.280  0.00  0.00    +0.000 C 
ATOM      2  C   LEU A   2       4.955  -2.089   1.938  0.00  0.00    +0.000 C 
ATOM      3  O   LEU A   2       4.328  -3.125   2.008  0.00  0.00    +0.000 OA
ATOM      4  N   UNK A   1       6.241  -2.055   2.374  0.00  0.00    +0.000 N 
ATOM      5  C   UNK A   1       7.121  -0.932   2.160  0.00  0.00    +0.000 C 
ATOM      6  C   UNK A   1       6.369   0.365   2.440  0.00  0.00    +0.000 C 
ATOM      7  O   UNK A   1       7.033   1.309   2.845  0.00  0.00    +0.000 OA
ATOM      8  N   LEU A   2       4.987   0.366   2.172  0.00  0.00    +0.000 N 
ATOM      9  H   UNK A   1       6.558  -2.935   2.760  0.00  0.00    +0.000 HD
ENDROOT
BRANCH   5  10
ATOM     10  C   UNK A   1       8.331  -0.928   3.136  0.00  0.00    +0.000 C 
ATOM     11  C   UNK A   1       9.215  -2.161   2.931  0.00  0.00    +0.000 C 
ATOM     12  C   UNK A   1       8.580  -3.124   3.887  0.00  0.00    +0.000 A 
ATOM     13  C   UNK A   1       8.593  -4.502   3.821  0.00  0.00    +0.000 A 
ATOM     14  C   UNK A   1       7.813  -5.211   4.735  0.00  0.00    +0.000 A 
ATOM     15  C   UNK A   1       7.030  -4.540   5.689  0.00  0.00    +0.000 A 
ATOM     16  C   UNK A   1       7.011  -3.146   5.744  0.00  0.00    +0.000 A 
ATOM     17  C   UNK A   1       7.798  -2.453   4.841  0.00  0.00    +0.000 A 
ATOM     18  C   UNK A   1       7.857  -0.973   4.620  0.00  0.00    +0.000 C 
ENDBRANCH   5  10
BRANCH   1  19
ATOM     19  CB  LEU A   2       3.034  -0.903   1.004  0.00  0.00    +0.000 C 
BRANCH  19  21
ATOM     20  CD1 LEU A   2       0.919  -0.119  -0.019  0.00  0.00    +0.000 C 
ATOM     21  CG  LEU A   2       2.442  -0.101  -0.144  0.00  0.00    +0.000 C 
ATOM     22  CD2 LEU A   2       2.878   1.350  -0.217  0.00  0.00    +0.000 C 
ENDBRANCH  19  21
ENDBRANCH   1  19
BRANCH   8  23
ATOM     23  C   UNK A   0       4.113   1.519   2.667  0.00  0.00    +0.000 C 
BRANCH  23  24
ATOM     24  C   UNK A   0       4.915   2.662   3.310  0.00  0.00    +0.000 A 
ATOM     25  C   UNK A   0       5.811   3.500   2.603  0.00  0.00    +0.000 A 
ATOM     26  C   UNK A   0       6.607   4.404   3.318  0.00  0.00    +0.000 A 
ATOM     27  C   UNK A   0       6.339   4.637   4.663  0.00  0.00    +0.000 A 
ATOM     28  F   UNK A   0       7.061   5.523   5.354  0.00  0.00    +0.000 F 
ATOM     29  C   UNK A   0       5.414   3.881   5.341  0.00  0.00    +0.000 A 
ATOM     30  C   UNK A   0       4.896   2.793   4.690  0.00  0.00    +0.000 A 
ATOM     31  F   UNK A   0       4.352   1.835   5.449  0.00  0.00    +0.000 F 
ENDBRANCH  23  24
BRANCH  23  32
ATOM     32  C   UNK A   0       2.706   1.195   3.499  0.00  0.00    +0.000 C 
ATOM     33  N   UNK A   0       2.210   1.982   4.484  0.00  0.00    +0.000 N 
ATOM     34  O   UNK A   0       1.908   0.274   3.331  0.00  0.00    +0.000 OA
ATOM     35  H   UNK A   0       2.784   2.632   4.986  0.00  0.00    +0.000 HD
ATOM     36  H   UNK A   0       1.693   1.369   5.112  0.00  0.00    +0.000 HD
ENDBRANCH  23  32
ENDBRANCH   8  23
TORSDOF 6
