REMARK  Name = CHEMBL278619
REMARK  14 active torsions:
REMARK  status: ('A' for Active; 'I' for Inactive)
REMARK    1  A    between atoms: C_1  and  C_2
REMARK    2  A    between atoms: C_2  and  C_4
REMARK    3  A    between atoms: C_4  and  C_5
REMARK    4  A    between atoms: C_5  and  C_6
REMARK    5  A    between atoms: C_6  and  C_7
REMARK    6  A    between atoms: N_9  and  C_10
REMARK    7  A    between atoms: C_12  and  C_13
REMARK    8  A    between atoms: C_13  and  N_14
REMARK    9  A    between atoms: N_25  and  C_26
REMARK   10  A    between atoms: C_26  and  C_27
REMARK   11  A    between atoms: N_29  and  C_30
REMARK   12  A    between atoms: C_30  and  C_31
REMARK   13  A    between atoms: C_30  and  C_40
REMARK   14  A    between atoms: C_31  and  C_32
REMARK                            x       y       z     vdW  Elec       q    Type
REMARK                         _______ _______ _______ _____ _____    ______ ____
ROOT
ATOM      1  C   UNL     1       9.369   2.135   2.071  0.00  0.00    +0.000 C 
ATOM      2  N   UNL     1       9.717   1.006   2.941  0.00  0.00    +0.000 NA
ATOM      3  C   UNL     1      10.894   0.487   2.834  0.00  0.00    +0.000 C 
ATOM      4  C   UNL     1      11.888   1.027   1.964  0.00  0.00    +0.000 A 
ATOM      5  C   UNL     1      12.721   0.101   1.329  0.00  0.00    +0.000 A 
ATOM      6  C   UNL     1      13.760   0.628   0.690  0.00  0.00    +0.000 A 
ATOM      7  C   UNL     1      13.695   1.998   0.551  0.00  0.00    +0.000 A 
ATOM      8  C   UNL     1      12.751   2.911   0.865  0.00  0.00    +0.000 A 
ATOM      9  C   UNL     1      11.996   2.434   1.846  0.00  0.00    +0.000 A 
ATOM     10  N   UNL     1      11.407   3.395   2.682  0.00  0.00    +0.000 N 
ATOM     11  C   UNL     1      10.022   3.414   2.689  0.00  0.00    +0.000 C 
ATOM     12  O   UNL     1       9.378   4.371   3.118  0.00  0.00    +0.000 OA
ENDROOT
BRANCH   1  15
ATOM     13  C   UNL     1       7.154   1.469   1.352  0.00  0.00    +0.000 C 
ATOM     14  O   UNL     1       7.598   0.652   0.549  0.00  0.00    +0.000 OA
ATOM     15  N   UNL     1       7.953   2.283   2.105  0.00  0.00    +0.000 N 
ATOM     16  H   UNL     1       7.596   2.920   2.801  0.00  0.00    +0.000 HD
BRANCH  13  17
ATOM     17  C   UNL     1       5.674   1.695   1.583  0.00  0.00    +0.000 C 
BRANCH  17  18
ATOM     18  C   UNL     1       4.864   0.757   0.695  0.00  0.00    +0.000 C 
BRANCH  18  19
ATOM     19  C   UNL     1       3.358   0.924   0.852  0.00  0.00    +0.000 C 
BRANCH  19  21
ATOM     20  C   UNL     1       1.111   0.002  -0.023  0.00  0.00    +0.000 C 
ATOM     21  C   UNL     1       2.614  -0.039  -0.063  0.00  0.00    +0.000 C 
ATOM     22  O   UNL     1       3.192  -0.825  -0.813  0.00  0.00    +0.000 OA
ENDBRANCH  19  21
ENDBRANCH  18  19
ENDBRANCH  17  18
ENDBRANCH  13  17
ENDBRANCH   1  15
BRANCH   3  23
ATOM     23  C   UNL     1      11.365  -0.731   3.600  0.00  0.00    +0.000 C 
BRANCH  23  24
ATOM     24  N   UNL     1      10.263  -1.316   4.284  0.00  0.00    +0.000 N 
ATOM     25  C   UNL     1       9.117  -1.735   3.678  0.00  0.00    +0.000 A 
ATOM     26  C   UNL     1       8.296  -2.044   4.727  0.00  0.00    +0.000 A 
ATOM     27  N   UNL     1       8.935  -1.856   5.932  0.00  0.00    +0.000 NA
ATOM     28  C   UNL     1      10.124  -1.396   5.627  0.00  0.00    +0.000 A 
ENDBRANCH  23  24
ENDBRANCH   3  23
BRANCH  10  29
ATOM     29  C   UNL     1      12.190   4.589   3.115  0.00  0.00    +0.000 C 
BRANCH  29  30
ATOM     30  C   UNL     1      13.749   4.496   3.140  0.00  0.00    +0.000 C 
ATOM     31  O   UNL     1      14.372   3.413   3.143  0.00  0.00    +0.000 OA
ATOM     32  N   UNL     1      14.455   5.673   3.164  0.00  0.00    +0.000 N 
ATOM     33  H   UNL     1      14.017   6.446   3.647  0.00  0.00    +0.000 HD
BRANCH  32  34
ATOM     34  C   UNL     1      15.926   5.650   3.005  0.00  0.00    +0.000 C 
BRANCH  34  35
ATOM     35  C   UNL     1      16.651   6.865   3.647  0.00  0.00    +0.000 C 
ATOM     36  N   UNL     1      15.904   7.811   4.288  0.00  0.00    +0.000 N 
ATOM     37  O   UNL     1      17.872   7.011   3.601  0.00  0.00    +0.000 OA
ATOM     38  H   UNL     1      14.910   7.798   4.426  0.00  0.00    +0.000 HD
ATOM     39  H   UNL     1      16.406   8.595   4.691  0.00  0.00    +0.000 HD
ENDBRANCH  34  35
BRANCH  34  40
ATOM     40  C   UNL     1      16.351   5.602   1.505  0.00  0.00    +0.000 C 
BRANCH  40  41
ATOM     41  C   UNL     1      16.112   4.393   0.615  0.00  0.00    +0.000 A 
ATOM     42  C   UNL     1      16.674   3.143   0.942  0.00  0.00    +0.000 A 
ATOM     43  C   UNL     1      16.542   2.036   0.056  0.00  0.00    +0.000 A 
ATOM     44  C   UNL     1      15.855   2.177  -1.201  0.00  0.00    +0.000 A 
ATOM     45 CL   UNL     1      15.364   0.732  -2.076  0.00  0.00    +0.000 Cl
ATOM     46  C   UNL     1      15.205   3.410  -1.478  0.00  0.00    +0.000 A 
ATOM     47 CL   UNL     1      13.885   3.520  -2.623  0.00  0.00    +0.000 Cl
ATOM     48  C   UNL     1      15.334   4.496  -0.570  0.00  0.00    +0.000 A 
ENDBRANCH  40  41
ENDBRANCH  34  40
ENDBRANCH  32  34
ENDBRANCH  29  30
ENDBRANCH  10  29
TORSDOF 13
