REMARK  Name = CHEMBL395429
REMARK  23 active torsions:
REMARK  status: ('A' for Active; 'I' for Inactive)
REMARK    1  A    between atoms: C_1  and  C_2
REMARK    2  A    between atoms: C_2  and  C_3
REMARK    3  A    between atoms: C_3  and  C_4
REMARK    4  A    between atoms: C_3  and  C_5
REMARK    5  A    between atoms: C_9  and  C_10
REMARK    6  A    between atoms: C_10  and  C_11
REMARK    7  A    between atoms: C_14  and  O_15
REMARK    8  A    between atoms: C_21  and  N_22
REMARK    9  A    between atoms: C_27  and  C_28
REMARK   10  A    between atoms: C_34  and  C_35
REMARK   11  A    between atoms: N_37  and  C_38
REMARK   12  A    between atoms: C_38  and  C_39
REMARK   13  A    between atoms: C_38  and  C_43
REMARK   14  A    between atoms: C_39  and  C_40
REMARK   15  A    between atoms: C_40  and  C_41
REMARK   16  A    between atoms: C_40  and  C_42
REMARK   17  A    between atoms: N_45  and  C_46
REMARK   18  A    between atoms: C_46  and  C_47
REMARK   19  A    between atoms: C_53  and  C_54
REMARK   20  A    between atoms: C_54  and  C_55
REMARK   21  A    between atoms: C_61  and  C_62
REMARK   22  A    between atoms: C_62  and  C_63
REMARK   23  A    between atoms: C_63  and  C_64
REMARK                            x       y       z     vdW  Elec       q    Type
REMARK                         _______ _______ _______ _____ _____    ______ ____
ROOT
ATOM      1  C   UNL     1       5.083  -2.057  -4.599  0.00  0.00    +0.000 C 
ATOM      2  N   UNL     1       5.542  -2.643  -6.665  0.00  0.00    +0.000 N 
ATOM      3  C   UNL     1       5.860  -3.060  -8.643  0.00  0.00    +0.000 C 
ATOM      4  O   UNL     1       6.233  -4.264  -9.459  0.00  0.00    +0.000 OA
ATOM      5  C   UNL     1       5.053  -2.642 -10.540  0.00  0.00    +0.000 C 
ATOM      6  N   UNL     1       3.538  -2.923 -11.168  0.00  0.00    +0.000 N 
ATOM      7  C   UNL     1       2.612  -3.636 -10.459  0.00  0.00    +0.000 C 
ATOM      8  O   UNL     1       1.432  -3.731 -10.772  0.00  0.00    +0.000 OA
ATOM      9  C   UNL     1       2.954  -4.336  -9.192  0.00  0.00    +0.000 C 
ATOM     10  C   UNL     1       2.579  -3.639  -7.958  0.00  0.00    +0.000 C 
ATOM     11  S   UNL     1       0.901  -4.263  -8.031  0.00  0.00    +0.000 S 
ATOM     12  S   UNL     1      -0.117  -3.120  -6.843  0.00  0.00    +0.000 S 
ATOM     13  C   UNL     1      -1.551  -3.771  -6.029  0.00  0.00    +0.000 C 
ATOM     14  C   UNL     1      -2.135  -3.103  -4.801  0.00  0.00    +0.000 C 
ATOM     15  N   UNL     1      -1.434  -3.592  -3.604  0.00  0.00    +0.000 N 
ATOM     16  C   UNL     1      -0.117  -3.485  -3.394  0.00  0.00    +0.000 C 
ATOM     17  O   UNL     1       0.356  -3.981  -2.384  0.00  0.00    +0.000 OA
ATOM     18  C   UNL     1       0.654  -2.664  -4.378  0.00  0.00    +0.000 C 
ATOM     19  N   UNL     1       0.904  -1.465  -3.795  0.00  0.00    +0.000 N 
ATOM     20  C   UNL     1       2.118  -1.679  -3.488  0.00  0.00    +0.000 C 
ATOM     21  O   UNL     1       2.640  -0.495  -3.881  0.00  0.00    +0.000 OA
ATOM     22  C   UNL     1       2.773  -3.167  -2.366  0.00  0.00    +0.000 C 
ATOM     23  N   UNL     1       4.309  -3.589  -2.465  0.00  0.00    +0.000 N 
ATOM     24  C   UNL     1       5.395  -2.846  -2.951  0.00  0.00    +0.000 C 
ATOM     25  O   UNL     1       6.270  -2.528  -2.115  0.00  0.00    +0.000 OA
ATOM     26  H   UNL     1       6.259  -3.432  -7.462  0.00  0.00    +0.000 HD
ATOM     27  H   UNL     1       3.096  -2.532 -12.071  0.00  0.00    +0.000 HD
ATOM     28  H   UNL     1      -1.939  -4.131  -2.901  0.00  0.00    +0.000 HD
ATOM     29  H   UNL     1       0.921  -0.469  -4.071  0.00  0.00    +0.000 HD
ATOM     30  H   UNL     1       4.405  -4.259  -3.154  0.00  0.00    +0.000 HD
ENDROOT
BRANCH  14  31
ATOM     31  C   UNL     1      -3.635  -3.435  -4.717  0.00  0.00    +0.000 C 
ATOM     32  O   UNL     1      -3.930  -3.981  -3.654  0.00  0.00    +0.000 OA
ATOM     33  N   UNL     1      -4.505  -2.982  -5.742  0.00  0.00    +0.000 N 
ATOM     34  C   UNL     1      -4.292  -3.098  -7.171  0.00  0.00    +0.000 C 
ATOM     35  C   UNL     1      -4.962  -1.873  -7.727  0.00  0.00    +0.000 C 
ATOM     36  C   UNL     1      -6.258  -1.839  -6.966  0.00  0.00    +0.000 C 
ATOM     37  C   UNL     1      -5.927  -2.470  -5.618  0.00  0.00    +0.000 C 
BRANCH  37  38
ATOM     38  C   UNL     1      -7.018  -3.589  -5.697  0.00  0.00    +0.000 C 
ATOM     39  O   UNL     1      -6.635  -4.753  -5.892  0.00  0.00    +0.000 OA
ATOM     40  N   UNL     1      -8.306  -3.261  -5.153  0.00  0.00    +0.000 N 
ATOM     41  H   UNL     1      -8.643  -2.303  -5.069  0.00  0.00    +0.000 HD
BRANCH  40  42
ATOM     42  C   UNL     1      -9.251  -4.313  -4.625  0.00  0.00    +0.000 C 
BRANCH  42  43
ATOM     43  C   UNL     1     -10.681  -3.712  -4.446  0.00  0.00    +0.000 C 
ATOM     44  O   UNL     1     -10.863  -2.507  -4.624  0.00  0.00    +0.000 OA
ATOM     45  N   UNL     1     -11.716  -4.560  -4.091  0.00  0.00    +0.000 N 
ATOM     46  H   UNL     1     -11.556  -5.540  -3.943  0.00  0.00    +0.000 HD
BRANCH  45  47
ATOM     47  C   UNL     1     -13.090  -4.080  -3.914  0.00  0.00    +0.000 C 
BRANCH  47  48
ATOM     48  C   UNL     1     -14.103  -5.177  -3.523  0.00  0.00    +0.000 C 
ATOM     49  N   UNL     1     -13.631  -6.463  -3.380  0.00  0.00    +0.000 N 
ATOM     50  O   UNL     1     -15.292  -4.919  -3.344  0.00  0.00    +0.000 OA
ATOM     51  H   UNL     1     -12.680  -6.760  -3.506  0.00  0.00    +0.000 HD
ATOM     52  H   UNL     1     -14.268  -7.210  -3.124  0.00  0.00    +0.000 HD
ENDBRANCH  47  48
ENDBRANCH  45  47
ENDBRANCH  42  43
BRANCH  42  53
ATOM     53  C   UNL     1      -8.817  -4.950  -3.284  0.00  0.00    +0.000 C 
BRANCH  53  54
ATOM     54  C   UNL     1      -7.444  -5.596  -3.337  0.00  0.00    +0.000 C 
ATOM     55  C   UNL     1      -6.372  -4.578  -3.356  0.00  0.00    +0.000 C 
ATOM     56  C   UNL     1      -7.006  -6.226  -2.074  0.00  0.00    +0.000 C 
ENDBRANCH  53  54
ENDBRANCH  42  53
ENDBRANCH  40  42
ENDBRANCH  37  38
ENDBRANCH  14  31
BRANCH   9  57
ATOM     57  N   UNL     1       4.256  -4.241  -8.921  0.00  0.00    +0.000 NA
ATOM     58  H   UNL     1       4.265  -3.241  -9.024  0.00  0.00    +0.000 HD
ATOM     59  H   UNL     1       4.754  -4.541  -9.770  0.00  0.00    +0.000 HD
ENDBRANCH   9  57
BRANCH   1  60
ATOM     60  C   UNL     1       4.259  -1.152  -2.632  0.00  0.00    +0.000 C 
ATOM     61  C   UNL     1       3.584  -0.068  -0.944  0.00  0.00    +0.000 C 
BRANCH  60  63
ATOM     62  C   UNL     1       1.201  -1.211  -1.370  0.00  0.00    +0.000 C 
ATOM     63  C   UNL     1       2.616  -0.534  -1.950  0.00  0.00    +0.000 C 
ENDBRANCH  60  63
ENDBRANCH   1  60
BRANCH  18  64
ATOM     64  C   UNL     1       1.849  -3.428  -4.980  0.00  0.00    +0.000 C 
BRANCH  64  65
ATOM     65  C   UNL     1       2.833  -2.482  -5.560  0.00  0.00    +0.000 C 
ATOM     66  N   UNL     1       2.726  -1.143  -5.750  0.00  0.00    +0.000 N 
ATOM     67  O   UNL     1       3.809  -3.098  -5.871  0.00  0.00    +0.000 OA
ATOM     68  H   UNL     1       2.016  -0.694  -5.171  0.00  0.00    +0.000 HD
ATOM     69  H   UNL     1       3.504  -0.467  -5.613  0.00  0.00    +0.000 HD
ENDBRANCH  64  65
ENDBRANCH  18  64
BRANCH   5  70
ATOM     70  C   UNL     1       5.162  -1.410  -9.897  0.00  0.00    +0.000 C 
BRANCH  70  71
ATOM     71  C   UNL     1       6.665  -1.313  -9.858  0.00  0.00    +0.000 A 
ATOM     72  C   UNL     1       7.565  -1.859 -10.807  0.00  0.00    +0.000 A 
ATOM     73  C   UNL     1       8.924  -1.721 -10.613  0.00  0.00    +0.000 A 
ATOM     74  C   UNL     1       9.364  -1.149  -9.433  0.00  0.00    +0.000 A 
ATOM     75  C   UNL     1       8.479  -0.823  -8.420  0.00  0.00    +0.000 A 
ATOM     76  C   UNL     1       7.136  -0.927  -8.617  0.00  0.00    +0.000 A 
BRANCH  74  77
ATOM     77  O   UNL     1      10.666  -0.862  -9.176  0.00  0.00    +0.000 OA
ATOM     78  H   UNL     1      11.245  -1.089  -9.918  0.00  0.00    +0.000 HD
ENDBRANCH  74  77
ENDBRANCH  70  71
ENDBRANCH   5  70
BRANCH  22  79
ATOM     79  C   UNL     1       2.466  -3.477  -0.672  0.00  0.00    +0.000 C 
BRANCH  79  80
ATOM     80  C   UNL     1       3.079  -2.370   0.360  0.00  0.00    +0.000 C 
BRANCH  80  81
ATOM     81  C   UNL     1       2.599  -2.214   1.743  0.00  0.00    +0.000 C 
ATOM     82  N   UNL     1       1.760  -3.227   2.023  0.00  0.00    +0.000 N 
ATOM     83  O   UNL     1       2.841  -1.260   2.472  0.00  0.00    +0.000 OA
ATOM     84  H   UNL     1       1.501  -3.932   1.346  0.00  0.00    +0.000 HD
ATOM     85  H   UNL     1       1.503  -3.326   2.975  0.00  0.00    +0.000 HD
ENDBRANCH  80  81
ENDBRANCH  79  80
ENDBRANCH  22  79
TORSDOF 19
