REMARK  Name = CHEMBL31691
REMARK  2 active torsions:
REMARK  status: ('A' for Active; 'I' for Inactive)
REMARK    1  A    between atoms: C_2  and  C_3
REMARK    2  A    between atoms: C_15  and  N_16
REMARK                            x       y       z     vdW  Elec       q    Type
REMARK                         _______ _______ _______ _____ _____    ______ ____
ROOT
ATOM      1  O   UNL     1       1.172   0.048  -0.075  0.00  0.00    +0.000 OA
ATOM      2  C   UNL     1       2.395  -0.040  -0.027  0.00  0.00    +0.000 C 
ATOM      3  N   UNL     1       3.111  -1.055  -0.628  0.00  0.00    +0.000 N 
ATOM      4  C   UNL     1       4.224  -1.768   0.012  0.00  0.00    +0.000 C 
ATOM      5  C   UNL     1       5.358  -1.923  -0.984  0.00  0.00    +0.000 C 
ATOM      6  C   UNL     1       4.865  -2.563  -2.305  0.00  0.00    +0.000 C 
ATOM      7  C   UNL     1       3.659  -1.794  -2.866  0.00  0.00    +0.000 C 
ATOM      8  C   UNL     1       2.552  -1.633  -1.840  0.00  0.00    +0.000 C 
ENDROOT
BRANCH   6   9
ATOM      9  N   UNL     1       4.688  -4.047  -2.209  0.00  0.00    +0.000 N 
ATOM     10  C   UNL     1       3.833  -4.675  -1.296  0.00  0.00    +0.000 C 
ATOM     11  O   UNL     1       2.734  -4.313  -0.902  0.00  0.00    +0.000 OA
ATOM     12  O   UNL     1       4.373  -5.784  -0.734  0.00  0.00    +0.000 OA
ATOM     13  C   UNL     1       4.468  -6.807  -1.696  0.00  0.00    +0.000 C 
ATOM     14  C   UNL     1       5.211  -6.315  -2.896  0.00  0.00    +0.000 A 
ATOM     15  C   UNL     1       5.737  -7.252  -3.787  0.00  0.00    +0.000 A 
ATOM     16  C   UNL     1       6.409  -6.822  -4.920  0.00  0.00    +0.000 A 
ATOM     17  C   UNL     1       6.546  -5.458  -5.167  0.00  0.00    +0.000 A 
ATOM     18  C   UNL     1       6.014  -4.515  -4.281  0.00  0.00    +0.000 A 
ATOM     19  C   UNL     1       5.338  -4.932  -3.131  0.00  0.00    +0.000 A 
ENDBRANCH   6   9
BRANCH   2  20
ATOM     20  C   UNL     1       3.161   1.100   0.532  0.00  0.00    +0.000 A 
ATOM     21  C   UNL     1       2.657   1.713   1.683  0.00  0.00    +0.000 A 
ATOM     22  C   UNL     1       3.265   2.855   2.215  0.00  0.00    +0.000 A 
ATOM     23  C   UNL     1       4.377   3.400   1.553  0.00  0.00    +0.000 A 
ATOM     24  C   UNL     1       5.232   4.511   1.770  0.00  0.00    +0.000 A 
ATOM     25  C   UNL     1       6.129   4.519   0.728  0.00  0.00    +0.000 A 
ATOM     26  O   UNL     1       5.892   3.480  -0.118  0.00  0.00    +0.000 OA
ATOM     27  C   UNL     1       4.829   2.789   0.388  0.00  0.00    +0.000 A 
ATOM     28  C   UNL     1       4.256   1.644  -0.166  0.00  0.00    +0.000 A 
ENDBRANCH   2  20
TORSDOF 2
