REMARK  Name = CHEMBL3354594
REMARK  25 active torsions:
REMARK  status: ('A' for Active; 'I' for Inactive)
REMARK    1  A    between atoms: C_1  and  C_2
REMARK    2  A    between atoms: C_2  and  C_3
REMARK    3  A    between atoms: C_3  and  C_4
REMARK    4  A    between atoms: C_3  and  C_5
REMARK    5  A    between atoms: C_9  and  C_10
REMARK    6  A    between atoms: C_10  and  C_11
REMARK    7  A    between atoms: C_14  and  O_15
REMARK    8  A    between atoms: C_26  and  C_27
REMARK    9  A    between atoms: N_29  and  C_30
REMARK   10  A    between atoms: N_29  and  C_46
REMARK   11  A    between atoms: C_30  and  C_31
REMARK   12  A    between atoms: N_33  and  C_34
REMARK   13  A    between atoms: C_34  and  C_35
REMARK   14  A    between atoms: C_34  and  C_39
REMARK   15  A    between atoms: C_35  and  C_36
REMARK   16  A    between atoms: C_36  and  C_37
REMARK   17  A    between atoms: C_36  and  C_38
REMARK   18  A    between atoms: N_41  and  C_42
REMARK   19  A    between atoms: C_42  and  C_43
REMARK   20  A    between atoms: C_46  and  C_47
REMARK   21  A    between atoms: C_57  and  C_58
REMARK   22  A    between atoms: C_58  and  C_59
REMARK   23  A    between atoms: C_65  and  C_66
REMARK   24  A    between atoms: C_66  and  C_67
REMARK   25  A    between atoms: C_67  and  C_68
REMARK                            x       y       z     vdW  Elec       q    Type
REMARK                         _______ _______ _______ _____ _____    ______ ____
ROOT
ATOM      1  C   UNL     1       4.660   1.155   2.356  0.00  0.00    +0.000 C 
ATOM      2  N   UNL     1       4.803   1.707   4.196  0.00  0.00    +0.000 N 
ATOM      3  C   UNL     1       4.914   1.813   5.630  0.00  0.00    +0.000 C 
ATOM      4  O   UNL     1       4.794   3.022   6.027  0.00  0.00    +0.000 OA
ATOM      5  C   UNL     1       4.940   0.552   6.920  0.00  0.00    +0.000 C 
ATOM      6  N   UNL     1       5.255   1.126   8.489  0.00  0.00    +0.000 N 
ATOM      7  C   UNL     1       4.645   1.581   9.662  0.00  0.00    +0.000 C 
ATOM      8  O   UNL     1       5.400   1.623  10.656  0.00  0.00    +0.000 OA
ATOM      9  C   UNL     1       3.196   2.037  10.046  0.00  0.00    +0.000 C 
ATOM     10  C   UNL     1       2.242   2.011   8.963  0.00  0.00    +0.000 C 
ATOM     11  C   UNL     1       0.859   2.429   9.024  0.00  0.00    +0.000 C 
ATOM     12  S   UNL     1       0.210   1.981   6.862  0.00  0.00    +0.000 S 
ATOM     13  C   UNL     1      -1.746   2.572   6.045  0.00  0.00    +0.000 C 
ATOM     14  C   UNL     1      -2.380   2.081   4.777  0.00  0.00    +0.000 C 
ATOM     15  N   UNL     1      -1.766   2.902   3.758  0.00  0.00    +0.000 N 
ATOM     16  C   UNL     1      -0.413   3.082   3.664  0.00  0.00    +0.000 C 
ATOM     17  O   UNL     1       0.037   3.913   2.888  0.00  0.00    +0.000 OA
ATOM     18  C   UNL     1       0.483   2.109   4.369  0.00  0.00    +0.000 C 
ATOM     19  N   UNL     1       0.924   1.269   3.396  0.00  0.00    +0.000 N 
ATOM     20  C   UNL     1       2.224   1.681   3.275  0.00  0.00    +0.000 C 
ATOM     21  O   UNL     1       2.850   0.968   3.858  0.00  0.00    +0.000 OA
ATOM     22  C   UNL     1       2.735   3.090   2.625  0.00  0.00    +0.000 C 
ATOM     23  N   UNL     1       4.172   3.437   2.685  0.00  0.00    +0.000 N 
ATOM     24  C   UNL     1       5.163   2.554   2.277  0.00  0.00    +0.000 C 
ATOM     25  O   UNL     1       6.365   2.803   2.374  0.00  0.00    +0.000 OA
ATOM     26  H   UNL     1       4.417   2.657   4.242  0.00  0.00    +0.000 HD
ATOM     27  H   UNL     1       6.212   0.909   8.743  0.00  0.00    +0.000 HD
ATOM     28  H   UNL     1      -2.305   3.672   3.392  0.00  0.00    +0.000 HD
ATOM     29  H   UNL     1       0.962   0.376   3.914  0.00  0.00    +0.000 HD
ATOM     30  H   UNL     1       4.563   4.031   3.412  0.00  0.00    +0.000 HD
ENDROOT
BRANCH  14  31
ATOM     31  C   UNL     1      -3.956   2.248   5.099  0.00  0.00    +0.000 C 
ATOM     32  O   UNL     1      -4.532   3.183   4.523  0.00  0.00    +0.000 OA
ATOM     33  N   UNL     1      -4.664   1.453   6.079  0.00  0.00    +0.000 N 
BRANCH  33  34
ATOM     34  C   UNL     1      -4.141   0.412   7.070  0.00  0.00    +0.000 C 
BRANCH  34  35
ATOM     35  C   UNL     1      -2.897  -0.441   6.855  0.00  0.00    +0.000 C 
ATOM     36  O   UNL     1      -2.389  -0.516   5.742  0.00  0.00    +0.000 OA
ATOM     37  N   UNL     1      -2.323  -1.073   7.948  0.00  0.00    +0.000 N 
ATOM     38  H   UNL     1      -2.770  -1.178   8.848  0.00  0.00    +0.000 HD
BRANCH  37  39
ATOM     39  C   UNL     1      -0.884  -0.982   8.059  0.00  0.00    +0.000 C 
BRANCH  39  40
ATOM     40  C   UNL     1      -0.157  -2.090   8.963  0.00  0.00    +0.000 C 
ATOM     41  O   UNL     1      -0.854  -2.750   9.733  0.00  0.00    +0.000 OA
ATOM     42  N   UNL     1       1.254  -2.205   8.992  0.00  0.00    +0.000 N 
ATOM     43  H   UNL     1       1.882  -1.746   8.360  0.00  0.00    +0.000 HD
BRANCH  42  44
ATOM     44  C   UNL     1       1.947  -3.295   9.679  0.00  0.00    +0.000 C 
BRANCH  44  45
ATOM     45  C   UNL     1       3.482  -3.576   9.506  0.00  0.00    +0.000 C 
ATOM     46  N   UNL     1       4.143  -3.163   8.409  0.00  0.00    +0.000 N 
ATOM     47  O   UNL     1       4.123  -4.266  10.294  0.00  0.00    +0.000 OA
ATOM     48  H   UNL     1       3.679  -2.925   7.563  0.00  0.00    +0.000 HD
ATOM     49  H   UNL     1       5.158  -3.102   8.376  0.00  0.00    +0.000 HD
ENDBRANCH  44  45
ENDBRANCH  42  44
ENDBRANCH  39  40
BRANCH  39  50
ATOM     50  C   UNL     1      -0.535   0.342   8.792  0.00  0.00    +0.000 C 
BRANCH  50  51
ATOM     51  C   UNL     1      -1.307   1.971   8.411  0.00  0.00    +0.000 C 
ATOM     52  C   UNL     1      -2.625   2.280   8.829  0.00  0.00    +0.000 C 
ATOM     53  C   UNL     1      -0.620   3.796   7.962  0.00  0.00    +0.000 C 
ENDBRANCH  50  51
ENDBRANCH  39  50
ENDBRANCH  37  39
ENDBRANCH  34  35
ENDBRANCH  33  34
BRANCH  33  54
ATOM     54  C   UNL     1      -6.090   1.887   6.290  0.00  0.00    +0.000 C 
BRANCH  54  55
ATOM     55  C   UNL     1      -6.886   1.114   7.341  0.00  0.00    +0.000 A 
ATOM     56  C   UNL     1      -6.882  -0.291   7.314  0.00  0.00    +0.000 A 
ATOM     57  C   UNL     1      -7.252  -1.045   8.419  0.00  0.00    +0.000 A 
ATOM     58  C   UNL     1      -7.907  -0.412   9.455  0.00  0.00    +0.000 A 
ATOM     59  F   UNL     1      -8.366  -1.144  10.476  0.00  0.00    +0.000 F 
ATOM     60  C   UNL     1      -8.129   0.962   9.418  0.00  0.00    +0.000 A 
ATOM     61  C   UNL     1      -7.594   1.737   8.377  0.00  0.00    +0.000 A 
ENDBRANCH  54  55
ENDBRANCH  33  54
ENDBRANCH  14  31
BRANCH   1  62
ATOM     62  C   UNL     1       3.298   0.786   0.937  0.00  0.00    +0.000 C 
ATOM     63  C   UNL     1       2.736   0.097  -0.497  0.00  0.00    +0.000 C 
BRANCH  62  65
ATOM     64  C   UNL     1       3.509  -1.398   1.551  0.00  0.00    +0.000 C 
ATOM     65  C   UNL     1       2.558  -0.282   1.498  0.00  0.00    +0.000 C 
ENDBRANCH  62  65
ENDBRANCH   1  62
BRANCH  18  66
ATOM     66  C   UNL     1       1.804   2.634   5.250  0.00  0.00    +0.000 C 
BRANCH  66  67
ATOM     67  C   UNL     1       2.349   1.453   6.097  0.00  0.00    +0.000 C 
ATOM     68  N   UNL     1       1.713   0.263   6.240  0.00  0.00    +0.000 N 
ATOM     69  O   UNL     1       3.155   1.698   6.968  0.00  0.00    +0.000 OA
ATOM     70  H   UNL     1       0.762   0.133   5.965  0.00  0.00    +0.000 HD
ATOM     71  H   UNL     1       1.767  -0.168   7.150  0.00  0.00    +0.000 HD
ENDBRANCH  66  67
ENDBRANCH  18  66
BRANCH   5  72
ATOM     72  C   UNL     1       3.842  -0.706   7.275  0.00  0.00    +0.000 C 
BRANCH  72  73
ATOM     73  C   UNL     1       2.938  -1.764   6.153  0.00  0.00    +0.000 A 
ATOM     74  C   UNL     1       3.147  -1.412   4.889  0.00  0.00    +0.000 A 
ATOM     75  C   UNL     1       2.039  -1.559   3.931  0.00  0.00    +0.000 A 
ATOM     76  C   UNL     1       0.725  -1.945   3.959  0.00  0.00    +0.000 A 
ATOM     77  C   UNL     1       0.453  -2.363   5.178  0.00  0.00    +0.000 A 
ATOM     78  C   UNL     1       1.544  -2.321   6.188  0.00  0.00    +0.000 A 
BRANCH  76  79
ATOM     79  O   UNL     1      -0.264  -1.497   3.125  0.00  0.00    +0.000 OA
ATOM     80  H   UNL     1       0.011  -0.940   2.371  0.00  0.00    +0.000 HD
ENDBRANCH  76  79
ENDBRANCH  72  73
ENDBRANCH   5  72
BRANCH  22  81
ATOM     81  C   UNL     1       2.272   3.395   1.243  0.00  0.00    +0.000 C 
BRANCH  81  82
ATOM     82  C   UNL     1       3.452   3.256   0.152  0.00  0.00    +0.000 C 
BRANCH  82  83
ATOM     83  C   UNL     1       2.985   3.287  -1.240  0.00  0.00    +0.000 C 
ATOM     84  N   UNL     1       1.709   3.692  -1.378  0.00  0.00    +0.000 N 
ATOM     85  O   UNL     1       3.679   2.897  -2.169  0.00  0.00    +0.000 OA
ATOM     86  H   UNL     1       1.085   3.848  -0.599  0.00  0.00    +0.000 HD
ATOM     87  H   UNL     1       1.381   3.837  -2.312  0.00  0.00    +0.000 HD
ENDBRANCH  82  83
ENDBRANCH  81  82
ENDBRANCH  22  81
TORSDOF 21
