REMARK  Name = CHEMBL282767
REMARK  7 active torsions:
REMARK  status: ('A' for Active; 'I' for Inactive)
REMARK    1  A    between atoms: C_2  and  C_3
REMARK    2  A    between atoms: C_3  and  N_4
REMARK    3  A    between atoms: C_6  and  C_7
REMARK    4  A    between atoms: N_15  and  C_16
REMARK    5  A    between atoms: C_16  and  C_17
REMARK    6  A    between atoms: C_21  and  C_22
REMARK    7  A    between atoms: C_27  and  N_28
REMARK                            x       y       z     vdW  Elec       q    Type
REMARK                         _______ _______ _______ _____ _____    ______ ____
ROOT
ATOM      1  C   UNL     1       5.299   0.816  -2.692  0.00  0.00    +0.000 A 
ATOM      2  N   UNL     1       6.498   1.385  -2.648  0.00  0.00    +0.000 NA
ATOM      3  C   UNL     1       6.777   1.830  -3.925  0.00  0.00    +0.000 A 
ATOM      4  C   UNL     1       6.366   3.023  -4.576  0.00  0.00    +0.000 A 
ATOM      5  C   UNL     1       6.398   3.174  -5.981  0.00  0.00    +0.000 A 
ATOM      6  C   UNL     1       7.159   2.253  -6.714  0.00  0.00    +0.000 A 
ATOM      7  C   UNL     1       7.553   1.061  -6.075  0.00  0.00    +0.000 A 
ATOM      8  C   UNL     1       6.926   0.762  -4.813  0.00  0.00    +0.000 A 
ATOM      9  S   UNL     1       4.935   0.389  -4.407  0.00  0.00    +0.000 S 
ENDROOT
BRANCH   5  10
ATOM     10  C   UNL     1       5.457   4.136  -6.688  0.00  0.00    +0.000 C 
ATOM     11  O   UNL     1       5.499   4.154  -7.919  0.00  0.00    +0.000 OA
ATOM     12  N   UNL     1       4.468   4.849  -5.928  0.00  0.00    +0.000 N 
ATOM     13  C   UNL     1       3.026   4.705  -6.173  0.00  0.00    +0.000 C 
ATOM     14  C   UNL     1       2.247   6.060  -6.134  0.00  0.00    +0.000 C 
ATOM     15  C   UNL     1       2.234   6.961  -4.520  0.00  0.00    +0.000 C 
ATOM     16  C   UNL     1       4.021   7.015  -4.647  0.00  0.00    +0.000 C 
ATOM     17  C   UNL     1       4.754   5.634  -4.726  0.00  0.00    +0.000 C 
BRANCH  15  18
ATOM     18  N   UNL     1       0.948   7.057  -3.144  0.00  0.00    +0.000 N 
ATOM     19  C   UNL     1       0.126   6.730  -4.278  0.00  0.00    +0.000 C 
ATOM     20  O   UNL     1       0.029   7.332  -5.391  0.00  0.00    +0.000 OA
ATOM     21  O   UNL     1      -0.478   5.568  -4.185  0.00  0.00    +0.000 OA
ATOM     22  C   UNL     1      -1.713   6.053  -3.804  0.00  0.00    +0.000 C 
ATOM     23  C   UNL     1      -1.416   5.825  -2.411  0.00  0.00    +0.000 A 
ATOM     24  C   UNL     1      -1.800   4.581  -1.748  0.00  0.00    +0.000 A 
ATOM     25  C   UNL     1      -2.342   4.412  -0.495  0.00  0.00    +0.000 A 
ATOM     26  C   UNL     1      -2.344   5.615   0.113  0.00  0.00    +0.000 A 
ATOM     27  C   UNL     1      -1.320   6.761  -0.521  0.00  0.00    +0.000 A 
ATOM     28  C   UNL     1      -0.472   6.650  -1.934  0.00  0.00    +0.000 A 
ENDBRANCH  15  18
ENDBRANCH   5  10
BRANCH   1  29
ATOM     29  C   UNL     1       4.534   0.402  -1.394  0.00  0.00    +0.000 C 
BRANCH  29  32
ATOM     30  O   UNL     1       1.093  -0.036  -0.286  0.00  0.00    +0.000 OA
ATOM     31  C   UNL     1       2.324  -0.028  -0.188  0.00  0.00    +0.000 C 
ATOM     32  N   UNL     1       3.073   0.391  -1.292  0.00  0.00    +0.000 N 
ATOM     33  H   UNL     1       2.499   0.718  -2.060  0.00  0.00    +0.000 HD
BRANCH  31  34
ATOM     34  C   UNL     1       3.050  -0.504   1.115  0.00  0.00    +0.000 C 
BRANCH  34  35
ATOM     35  N   UNL     1       2.135  -0.935   2.195  0.00  0.00    +0.000 N 
ATOM     36  C   UNL     1       2.042  -2.273   2.561  0.00  0.00    +0.000 A 
ATOM     37  C   UNL     1       1.045  -2.722   3.347  0.00  0.00    +0.000 A 
ATOM     38  C   UNL     1       0.164  -1.759   3.981  0.00  0.00    +0.000 A 
ATOM     39  C   UNL     1       0.353  -0.446   3.801  0.00  0.00    +0.000 A 
ATOM     40  C   UNL     1       1.317   0.039   2.773  0.00  0.00    +0.000 A 
ATOM     41  O   UNL     1       1.344   1.231   2.487  0.00  0.00    +0.000 OA
BRANCH  37  42
ATOM     42  C   UNL     1       0.790  -4.177   3.616  0.00  0.00    +0.000 C 
ATOM     43  F   UNL     1       0.851  -4.474   4.938  0.00  0.00    +0.000 F 
ATOM     44  F   UNL     1      -0.443  -4.552   3.186  0.00  0.00    +0.000 F 
ATOM     45  F   UNL     1       1.684  -4.982   2.987  0.00  0.00    +0.000 F 
ENDBRANCH  37  42
ENDBRANCH  34  35
ENDBRANCH  31  34
ENDBRANCH  29  32
ENDBRANCH   1  29
TORSDOF 7
