REMARK  Name = CHEMBL194233
REMARK  12 active torsions:
REMARK  status: ('A' for Active; 'I' for Inactive)
REMARK    1  A    between atoms: CD1_1  and  CG_2
REMARK    2  A    between atoms: CG_2  and  CD2_3
REMARK    3  A    between atoms: CG_2  and  CB_4
REMARK    4  A    between atoms: CB_4  and  CA_5
REMARK    5  A    between atoms: C_9  and  C_10
REMARK    6  A    between atoms: N_21  and  C_22
REMARK    7  A    between atoms: C_22  and  C_23
REMARK    8  A    between atoms: C_22  and  C_29
REMARK    9  A    between atoms: N_25  and  C_26
REMARK   10  A    between atoms: C_26  and  C_27
REMARK   11  A    between atoms: C_26  and  C_28
REMARK   12  A    between atoms: C_32  and  C_33
REMARK                            x       y       z     vdW  Elec       q    Type
REMARK                         _______ _______ _______ _____ _____    ______ ____
ROOT
ATOM      1  CA  LEU A   2       2.932   0.395   2.804  0.00  0.00    +0.000 C 
ATOM      2  C   LEU A   2       1.533  -0.310   2.918  0.00  0.00    +0.000 C 
ATOM      3  O   LEU A   2       1.297  -1.468   3.064  0.00  0.00    +0.000 OA
ATOM      4  N   UNK A   1       0.508   0.610   2.862  0.00  0.00    +0.000 N 
ATOM      5  C   UNK A   1       0.752   2.037   2.775  0.00  0.00    +0.000 C 
ATOM      6  C   UNK A   1       1.823   2.283   1.717  0.00  0.00    +0.000 C 
ATOM      7  O   UNK A   1       1.832   3.325   1.061  0.00  0.00    +0.000 OA
ATOM      8  N   LEU A   2       2.781   1.275   1.604  0.00  0.00    +0.000 N 
ATOM      9  H   UNK A   1      -0.414   0.191   2.857  0.00  0.00    +0.000 HD
ENDROOT
BRANCH   5  10
ATOM     10  C   UNK A   1      -0.459   2.836   2.273  0.00  0.00    +0.000 C 
ATOM     11  C   UNK A   1      -1.656   2.611   3.192  0.00  0.00    +0.000 C 
ATOM     12  C   UNK A   1      -2.308   1.440   2.520  0.00  0.00    +0.000 A 
ATOM     13  C   UNK A   1      -3.129   0.495   3.101  0.00  0.00    +0.000 A 
ATOM     14  C   UNK A   1      -3.527  -0.597   2.328  0.00  0.00    +0.000 A 
ATOM     15  C   UNK A   1      -3.087  -0.743   1.002  0.00  0.00    +0.000 A 
ATOM     16  C   UNK A   1      -2.234   0.199   0.428  0.00  0.00    +0.000 A 
ATOM     17  C   UNK A   1      -1.863   1.289   1.197  0.00  0.00    +0.000 A 
ATOM     18  C   UNK A   1      -0.886   2.363   0.848  0.00  0.00    +0.000 C 
ENDBRANCH   5  10
BRANCH   1  19
ATOM     19  CB  LEU A   2       4.007  -0.645   2.705  0.00  0.00    +0.000 C 
BRANCH  19  21
ATOM     20  CD1 LEU A   2       6.419  -1.287   2.296  0.00  0.00    +0.000 C 
ATOM     21  CG  LEU A   2       5.506  -0.146   2.570  0.00  0.00    +0.000 C 
ATOM     22  CD2 LEU A   2       5.959   0.995   1.693  0.00  0.00    +0.000 C 
ENDBRANCH  19  21
ENDBRANCH   1  19
BRANCH   8  23
ATOM     23  C   UNK A   0       3.695   1.322   0.384  0.00  0.00    +0.000 C 
BRANCH  23  24
ATOM     24  C   UNK A   0       4.545   2.873   0.571  0.00  0.00    +0.000 A 
ATOM     25  C   UNK A   0       4.364   3.731   1.743  0.00  0.00    +0.000 A 
ATOM     26  C   UNK A   0       5.081   4.926   1.967  0.00  0.00    +0.000 A 
ATOM     27  C   UNK A   0       6.181   5.225   1.174  0.00  0.00    +0.000 A 
ATOM     28  C   UNK A   0       6.494   4.334   0.139  0.00  0.00    +0.000 A 
ATOM     29  C   UNK A   0       5.664   3.230  -0.199  0.00  0.00    +0.000 A 
BRANCH  27  30
ATOM     30  C   UNK A   0       7.000   6.468   1.426  0.00  0.00    +0.000 C 
ATOM     31  F   UNK A   0       6.276   7.605   1.231  0.00  0.00    +0.000 F 
ATOM     32  F   UNK A   0       7.484   6.548   2.698  0.00  0.00    +0.000 F 
ATOM     33  F   UNK A   0       8.087   6.575   0.611  0.00  0.00    +0.000 F 
ENDBRANCH  27  30
ENDBRANCH  23  24
BRANCH  23  34
ATOM     34  C   UNK A   0       4.521  -0.275  -0.184  0.00  0.00    +0.000 C 
ATOM     35  O   UNK A   0       4.073  -1.404   0.065  0.00  0.00    +0.000 OA
ATOM     36  N   UNK A   0       5.777  -0.259  -0.884  0.00  0.00    +0.000 N 
ATOM     37  H   UNK A   0       5.940   0.624  -1.316  0.00  0.00    +0.000 HD
BRANCH  36  38
ATOM     38  C   UNK A   0       7.154  -0.920  -0.505  0.00  0.00    +0.000 C 
ATOM     39  C   UNK A   0       7.176  -2.465  -0.362  0.00  0.00    +0.000 C 
ATOM     40  C   UNK A   0       8.215  -0.515  -1.526  0.00  0.00    +0.000 C 
ENDBRANCH  36  38
ENDBRANCH  23  34
ENDBRANCH   8  23
TORSDOF 8
