REMARK  Name = CHEMBL4204008
REMARK  4 active torsions:
REMARK  status: ('A' for Active; 'I' for Inactive)
REMARK    1  A    between atoms: C_1  and  C_2
REMARK    2  A    between atoms: N_5  and  C_6
REMARK    3  A    between atoms: C_9  and  C_10
REMARK    4  A    between atoms: C_16  and  O_17
REMARK                            x       y       z     vdW  Elec       q    Type
REMARK                         _______ _______ _______ _____ _____    ______ ____
ROOT
ATOM      1  C   UNL     1       9.194  -4.260   0.237  0.00  0.00    +0.000 C 
ATOM      2  O   UNL     1       9.467  -4.992  -0.740  0.00  0.00    +0.000 OA
ATOM      3  N   UNL     1      10.122  -4.059   1.321  0.00  0.00    +0.000 N 
ATOM      4  C   UNL     1       9.810  -4.553   2.710  0.00  0.00    +0.000 C 
ATOM      5  C   UNL     1       9.858  -3.535   3.870  0.00  0.00    +0.000 C 
ATOM      6  C   UNL     1      10.955  -2.465   3.826  0.00  0.00    +0.000 C 
ATOM      7  C   UNL     1      11.404  -1.817   2.501  0.00  0.00    +0.000 C 
ATOM      8  C   UNL     1      12.205  -2.811   1.735  0.00  0.00    +0.000 A 
ATOM      9  C   UNL     1      13.579  -2.533   1.651  0.00  0.00    +0.000 A 
ATOM     10  C   UNL     1      14.412  -3.398   0.986  0.00  0.00    +0.000 A 
ATOM     11  C   UNL     1      13.851  -4.527   0.387  0.00  0.00    +0.000 A 
ATOM     12  C   UNL     1      12.447  -4.790   0.428  0.00  0.00    +0.000 A 
ATOM     13  C   UNL     1      11.587  -3.929   1.120  0.00  0.00    +0.000 A 
ENDROOT
BRANCH   1  17
ATOM     14  C   UNL     1       5.510  -1.726  -0.234  0.00  0.00    +0.000 A 
ATOM     15  C   UNL     1       5.790  -2.726  -1.152  0.00  0.00    +0.000 A 
ATOM     16  C   UNL     1       6.973  -3.538  -0.988  0.00  0.00    +0.000 A 
ATOM     17  C   UNL     1       7.855  -3.414   0.140  0.00  0.00    +0.000 A 
ATOM     18  C   UNL     1       7.445  -2.405   1.024  0.00  0.00    +0.000 A 
ATOM     19 CL   UNL     1       8.089  -1.810   2.453  0.00  0.00    +0.000 Cl
ATOM     20  C   UNL     1       6.335  -1.587   0.836  0.00  0.00    +0.000 A 
BRANCH  14  25
ATOM     21  C   UNL     1       0.987  -0.123  -0.033  0.00  0.00    +0.000 C 
ATOM     22  C   UNL     1       2.464  -0.085  -0.088  0.00  0.00    +0.000 A 
ATOM     23  C   UNL     1       3.289   1.056  -0.017  0.00  0.00    +0.000 A 
ATOM     24  C   UNL     1       4.562   0.554  -0.049  0.00  0.00    +0.000 A 
ATOM     25  N   UNL     1       4.449  -0.805  -0.283  0.00  0.00    +0.000 N 
ATOM     26  N   UNL     1       3.166  -1.214  -0.259  0.00  0.00    +0.000 NA
ENDBRANCH  14  25
ENDBRANCH   1  17
BRANCH   7  27
ATOM     27  O   UNL     1      10.473  -1.306   1.579  0.00  0.00    +0.000 OA
ATOM     28  H   UNL     1       9.951  -2.080   1.301  0.00  0.00    +0.000 HD
ENDBRANCH   7  27
TORSDOF 3
