REMARK  Name = CHEMBL270624
REMARK  11 active torsions:
REMARK  status: ('A' for Active; 'I' for Inactive)
REMARK    1  A    between atoms: CD1_1  and  CG_2
REMARK    2  A    between atoms: CG_2  and  CD2_3
REMARK    3  A    between atoms: CG_2  and  CB_4
REMARK    4  A    between atoms: CB_4  and  CA_5
REMARK    5  A    between atoms: C_9  and  C_10
REMARK    6  A    between atoms: N_21  and  C_22
REMARK    7  A    between atoms: C_22  and  C_23
REMARK    8  A    between atoms: C_22  and  C_29
REMARK    9  A    between atoms: N_25  and  C_26
REMARK   10  A    between atoms: C_26  and  C_27
REMARK   11  A    between atoms: C_26  and  C_28
REMARK                            x       y       z     vdW  Elec       q    Type
REMARK                         _______ _______ _______ _____ _____    ______ ____
ROOT
ATOM      1  CA  LEU A   2       4.603  -0.891   1.134  0.00  0.00    +0.000 C 
ATOM      2  C   LEU A   2       5.007  -2.036   0.220  0.00  0.00    +0.000 C 
ATOM      3  O   LEU A   2       4.355  -2.507  -0.717  0.00  0.00    +0.000 OA
ATOM      4  N   UNK A   1       6.259  -2.455   0.445  0.00  0.00    +0.000 N 
ATOM      5  C   UNK A   1       7.144  -1.811   1.394  0.00  0.00    +0.000 C 
ATOM      6  C   UNK A   1       6.391  -1.536   2.690  0.00  0.00    +0.000 C 
ATOM      7  O   UNK A   1       7.042  -1.541   3.730  0.00  0.00    +0.000 OA
ATOM      8  N   LEU A   2       5.035  -1.201   2.542  0.00  0.00    +0.000 N 
ATOM      9  H   UNK A   1       6.560  -3.162  -0.210  0.00  0.00    +0.000 HD
ENDROOT
BRANCH   5  10
ATOM     10  C   UNK A   1       8.371  -2.686   1.740  0.00  0.00    +0.000 C 
ATOM     11  C   UNK A   1       9.182  -2.936   0.462  0.00  0.00    +0.000 C 
ATOM     12  C   UNK A   1       8.527  -4.189  -0.041  0.00  0.00    +0.000 A 
ATOM     13  C   UNK A   1       8.395  -4.592  -1.357  0.00  0.00    +0.000 A 
ATOM     14  C   UNK A   1       7.578  -5.691  -1.631  0.00  0.00    +0.000 A 
ATOM     15  C   UNK A   1       6.897  -6.359  -0.599  0.00  0.00    +0.000 A 
ATOM     16  C   UNK A   1       7.004  -5.928   0.723  0.00  0.00    +0.000 A 
ATOM     17  C   UNK A   1       7.822  -4.842   0.987  0.00  0.00    +0.000 A 
ATOM     18  C   UNK A   1       7.956  -4.087   2.275  0.00  0.00    +0.000 C 
ENDBRANCH   5  10
BRANCH   1  19
ATOM     19  CB  LEU A   2       3.129  -0.709   0.936  0.00  0.00    +0.000 C 
BRANCH  19  21
ATOM     20  CD1 LEU A   2       1.041   0.041  -0.149  0.00  0.00    +0.000 C 
ATOM     21  CG  LEU A   2       2.572   0.102  -0.203  0.00  0.00    +0.000 C 
ATOM     22  CD2 LEU A   2       3.022   1.529   0.016  0.00  0.00    +0.000 C 
ENDBRANCH  19  21
ENDBRANCH   1  19
BRANCH   8  23
ATOM     23  C   UNK A   0       4.090  -1.093   3.728  0.00  0.00    +0.000 C 
BRANCH  23  24
ATOM     24  C   UNK A   0       4.832  -1.077   5.059  0.00  0.00    +0.000 A 
ATOM     25  C   UNK A   0       5.844  -0.276   5.576  0.00  0.00    +0.000 A 
ATOM     26  C   UNK A   0       6.352  -0.949   6.722  0.00  0.00    +0.000 A 
ATOM     27  C   UNK A   0       5.522  -2.023   6.926  0.00  0.00    +0.000 A 
ATOM     28 BR   UNK A   0       5.627  -3.234   8.338  0.00  0.00    +0.000 Br
ATOM     29  O   UNK A   0       4.609  -2.100   5.933  0.00  0.00    +0.000 OA
ENDBRANCH  23  24
BRANCH  23  30
ATOM     30  C   UNK A   0       2.934  -2.217   3.736  0.00  0.00    +0.000 C 
ATOM     31  O   UNK A   0       2.865  -3.152   4.532  0.00  0.00    +0.000 OA
ATOM     32  N   UNK A   0       1.942  -2.124   2.768  0.00  0.00    +0.000 N 
ATOM     33  H   UNK A   0       1.624  -1.211   2.501  0.00  0.00    +0.000 HD
BRANCH  32  34
ATOM     34  C   UNK A   0       0.901  -3.110   2.545  0.00  0.00    +0.000 C 
ATOM     35  C   UNK A   0      -0.095  -2.902   3.664  0.00  0.00    +0.000 C 
ATOM     36  C   UNK A   0       0.187  -2.883   1.207  0.00  0.00    +0.000 C 
ENDBRANCH  32  34
ENDBRANCH  23  30
ENDBRANCH   8  23
TORSDOF 7
