REMARK  Name = CHEMBL2424668
REMARK  8 active torsions:
REMARK  status: ('A' for Active; 'I' for Inactive)
REMARK    1  A    between atoms: C_3  and  C_4
REMARK    2  A    between atoms: C_4  and  C_5
REMARK    3  A    between atoms: C_8  and  O_9
REMARK    4  A    between atoms: O_9  and  C_10
REMARK    5  A    between atoms: C_17  and  O_18
REMARK    6  A    between atoms: O_18  and  C_19
REMARK    7  A    between atoms: C_19  and  C_20
REMARK    8  A    between atoms: C_25  and  N_26
REMARK                            x       y       z     vdW  Elec       q    Type
REMARK                         _______ _______ _______ _____ _____    ______ ____
ROOT
ATOM      1 CL   UNL     1       0.918  -0.015  -0.056  0.00  0.00    +0.000 Cl
ATOM      2  H   UNL     1       2.146  -0.015  -0.056  0.00  0.00    +0.000 HD
ENDROOT
TORSDOF 0
REMARK  Name = CHEMBL2424668
REMARK  8 active torsions:
REMARK  status: ('A' for Active; 'I' for Inactive)
REMARK    1  A    between atoms: C_3  and  C_4
REMARK    2  A    between atoms: C_4  and  C_5
REMARK    3  A    between atoms: C_8  and  O_9
REMARK    4  A    between atoms: O_9  and  C_10
REMARK    5  A    between atoms: C_17  and  O_18
REMARK    6  A    between atoms: O_18  and  C_19
REMARK    7  A    between atoms: C_19  and  C_20
REMARK    8  A    between atoms: C_25  and  N_26
REMARK                            x       y       z     vdW  Elec       q    Type
REMARK                         _______ _______ _______ _____ _____    ______ ____
ROOT
ATOM      1  O   UNL     1       0.976  -0.071  -0.066  0.00  0.00    +0.000 OA
ATOM      2  C   UNL     1       2.247  -0.071  -0.066  0.00  0.00    +0.000 C 
ATOM      3  N   UNL     1       2.982   0.341  -1.271  0.00  0.00    +0.000 N 
ATOM      4  C   UNL     1       4.120  -0.366  -1.871  0.00  0.00    +0.000 C 
ATOM      5  C   UNL     1       5.349   0.518  -1.880  0.00  0.00    +0.000 C 
ATOM      6  C   UNL     1       5.082   1.813  -2.643  0.00  0.00    +0.000 C 
ATOM      7  C   UNL     1       3.824   2.493  -2.105  0.00  0.00    +0.000 C 
ATOM      8  C   UNL     1       2.660   1.516  -2.078  0.00  0.00    +0.000 C 
ENDROOT
BRANCH   6   9
ATOM      9  N   UNL     1       4.898   1.508  -4.069  0.00  0.00    +0.000 N 
ATOM     10  C   UNL     1       5.972   0.848  -4.824  0.00  0.00    +0.000 C 
ATOM     11  O   UNL     1       7.061   0.541  -4.244  0.00  0.00    +0.000 OA
ATOM     12  C   UNL     1       5.781   0.532  -6.299  0.00  0.00    +0.000 C 
ATOM     13  C   UNL     1       7.031  -0.144  -6.838  0.00  0.00    +0.000 C 
ATOM     14  C   UNL     1       6.841  -0.460  -8.312  0.00  0.00    +0.000 A 
ATOM     15  C   UNL     1       6.484   0.543  -9.199  0.00  0.00    +0.000 A 
ATOM     16  C   UNL     1       6.139   0.072 -10.488  0.00  0.00    +0.000 A 
ATOM     17  C   UNL     1       6.451  -1.122 -10.958  0.00  0.00    +0.000 A 
ATOM     18  C   UNL     1       6.862  -2.048 -10.040  0.00  0.00    +0.000 A 
ATOM     19  C   UNL     1       7.095  -1.694  -8.733  0.00  0.00    +0.000 A 
ENDBRANCH   6   9
BRANCH   2  20
ATOM     20  C   UNL     1       3.007  -0.497   1.179  0.00  0.00    +0.000 C 
BRANCH  20  21
ATOM     21  C   UNL     1       2.019  -0.870   2.273  0.00  0.00    +0.000 A 
ATOM     22  C   UNL     1       1.321   0.123   2.940  0.00  0.00    +0.000 A 
ATOM     23  C   UNL     1       0.701  -0.315   4.134  0.00  0.00    +0.000 A 
ATOM     24  C   UNL     1       0.469  -1.580   4.437  0.00  0.00    +0.000 A 
ATOM     25  C   UNL     1       1.138  -2.515   3.697  0.00  0.00    +0.000 A 
ATOM     26  C   UNL     1       1.871  -2.150   2.593  0.00  0.00    +0.000 A 
BRANCH  24  27
ATOM     27  O   UNL     1      -0.425  -1.948   5.477  0.00  0.00    +0.000 OA
BRANCH  27  28
ATOM     28  C   UNL     1      -0.645  -3.319   5.771  0.00  0.00    +0.000 C 
ATOM     29  C   UNL     1       0.316  -4.420   6.215  0.00  0.00    +0.000 C 
ATOM     30  C   UNL     1       1.558  -4.433   5.350  0.00  0.00    +0.000 C 
ATOM     31  N   UNL     1       1.200  -4.624   3.939  0.00  0.00    +0.000 NA
ATOM     32  C   UNL     1       0.377  -3.502   3.491  0.00  0.00    +0.000 C 
ATOM     33  C   UNL     1      -0.925  -3.436   4.274  0.00  0.00    +0.000 C 
ATOM     34  H   UNL     1       0.676  -5.493   3.835  0.00  0.00    +0.000 HD
ENDBRANCH  27  28
ENDBRANCH  24  27
BRANCH  26  35
ATOM     35  O   UNL     1       2.475  -3.152   1.788  0.00  0.00    +0.000 OA
BRANCH  35  36
ATOM     36  C   UNL     1       3.234  -2.782   0.646  0.00  0.00    +0.000 C 
BRANCH  36  37
ATOM     37  C   UNL     1       3.767  -4.033  -0.035  0.00  0.00    +0.000 C 
ATOM     38  F   UNL     1       4.477  -3.687  -1.104  0.00  0.00    +0.000 F 
ENDBRANCH  36  37
ENDBRANCH  35  36
ENDBRANCH  26  35
ENDBRANCH  20  21
ENDBRANCH   2  20
TORSDOF 8
