REMARK  Name = CHEMBL4126100
REMARK  22 active torsions:
REMARK  status: ('A' for Active; 'I' for Inactive)
REMARK    1  A    between atoms: C_1  and  C_2
REMARK    2  A    between atoms: C_2  and  C_3
REMARK    3  A    between atoms: C_3  and  C_4
REMARK    4  A    between atoms: C_3  and  C_5
REMARK    5  A    between atoms: C_9  and  C_10
REMARK    6  A    between atoms: C_10  and  C_11
REMARK    7  A    between atoms: C_14  and  O_15
REMARK    8  A    between atoms: C_34  and  C_35
REMARK    9  A    between atoms: C_41  and  C_42
REMARK   10  A    between atoms: N_44  and  C_45
REMARK   11  A    between atoms: C_45  and  C_46
REMARK   12  A    between atoms: C_45  and  C_53
REMARK   13  A    between atoms: C_46  and  C_47
REMARK   14  A    between atoms: C_47  and  C_48
REMARK   15  A    between atoms: C_48  and  N_49
REMARK   16  A    between atoms: N_55  and  C_56
REMARK   17  A    between atoms: C_56  and  C_57
REMARK   18  A    between atoms: C_63  and  C_64
REMARK   19  A    between atoms: C_64  and  C_65
REMARK   20  A    between atoms: C_71  and  C_72
REMARK   21  A    between atoms: C_72  and  C_73
REMARK   22  A    between atoms: C_73  and  C_74
REMARK                            x       y       z     vdW  Elec       q    Type
REMARK                         _______ _______ _______ _____ _____    ______ ____
ROOT
ATOM      1  C   UNL     1       4.006  -0.610   2.053  0.00  0.00    +0.000 C 
ATOM      2  N   UNL     1       3.202  -0.936   4.094  0.00  0.00    +0.000 N 
ATOM      3  C   UNL     1       1.620  -1.225   4.982  0.00  0.00    +0.000 C 
ATOM      4  O   UNL     1       2.061  -1.934   5.961  0.00  0.00    +0.000 OA
ATOM      5  C   UNL     1       0.432  -0.690   3.434  0.00  0.00    +0.000 C 
ATOM      6  N   UNL     1       1.498   0.780   2.530  0.00  0.00    +0.000 N 
ATOM      7  C   UNL     1       3.436   0.846   2.640  0.00  0.00    +0.000 C 
ATOM      8  O   UNL     1       4.023   1.839   2.183  0.00  0.00    +0.000 OA
ATOM      9  C   UNL     1       4.605  -0.849   3.510  0.00  0.00    +0.000 C 
ATOM     10  C   UNL     1       3.632  -2.640   4.260  0.00  0.00    +0.000 C 
ATOM     11  S   UNL     1       4.318  -4.574   3.198  0.00  0.00    +0.000 S 
ATOM     12  C   UNL     1       3.335  -5.629   3.787  0.00  0.00    +0.000 C 
ATOM     13  C   UNL     1       3.488  -6.975   3.734  0.00  0.00    +0.000 A 
ATOM     14  C   UNL     1       4.790  -7.034   3.312  0.00  0.00    +0.000 A 
ATOM     15  C   UNL     1       5.154  -8.141   2.795  0.00  0.00    +0.000 A 
ATOM     16  C   UNL     1       4.334  -9.173   3.110  0.00  0.00    +0.000 A 
ATOM     17  C   UNL     1       3.092  -9.082   3.751  0.00  0.00    +0.000 A 
ATOM     18  C   UNL     1       2.494  -7.909   3.884  0.00  0.00    +0.000 A 
ATOM     19  C   UNL     1       1.019  -7.847   4.233  0.00  0.00    +0.000 C 
ATOM     20  S   UNL     1      -0.376  -7.439   2.711  0.00  0.00    +0.000 S 
ATOM     21  C   UNL     1      -2.348  -6.271   3.600  0.00  0.00    +0.000 C 
ATOM     22  C   UNL     1      -2.784  -4.804   3.016  0.00  0.00    +0.000 C 
ATOM     23  N   UNL     1      -1.888  -3.673   3.126  0.00  0.00    +0.000 N 
ATOM     24  C   UNL     1       0.046  -3.659   3.327  0.00  0.00    +0.000 C 
ATOM     25  O   UNL     1       0.685  -3.037   4.201  0.00  0.00    +0.000 OA
ATOM     26  C   UNL     1       1.023  -4.488   2.597  0.00  0.00    +0.000 C 
ATOM     27  N   UNL     1       1.767  -4.085   1.336  0.00  0.00    +0.000 N 
ATOM     28  C   UNL     1       2.676  -3.105   1.099  0.00  0.00    +0.000 C 
ATOM     29  O   UNL     1       2.858  -2.459   0.094  0.00  0.00    +0.000 OA
ATOM     30  C   UNL     1       3.162  -2.642   2.354  0.00  0.00    +0.000 C 
ATOM     31  N   UNL     1       5.141  -2.791   2.882  0.00  0.00    +0.000 N 
ATOM     32  C   UNL     1       5.829  -1.641   2.338  0.00  0.00    +0.000 C 
ATOM     33  O   UNL     1       6.968  -1.550   2.735  0.00  0.00    +0.000 OA
ATOM     34  H   UNL     1       2.672  -0.955   5.286  0.00  0.00    +0.000 HD
ATOM     35  H   UNL     1       1.212   1.100   3.375  0.00  0.00    +0.000 HD
ATOM     36  H   UNL     1      -2.505  -2.977   3.663  0.00  0.00    +0.000 HD
ATOM     37  H   UNL     1       1.453  -4.465   0.478  0.00  0.00    +0.000 HD
ATOM     38  H   UNL     1       5.235  -3.048   3.901  0.00  0.00    +0.000 HD
ENDROOT
BRANCH  22  39
ATOM     39  C   UNL     1      -4.032  -4.630   3.681  0.00  0.00    +0.000 C 
ATOM     40  O   UNL     1      -4.285  -3.614   4.306  0.00  0.00    +0.000 OA
ATOM     41  N   UNL     1      -4.732  -5.748   3.253  0.00  0.00    +0.000 N 
ATOM     42  C   UNL     1      -4.448  -7.208   3.377  0.00  0.00    +0.000 C 
ATOM     43  C   UNL     1      -4.982  -7.753   2.110  0.00  0.00    +0.000 C 
ATOM     44  C   UNL     1      -6.271  -6.966   2.035  0.00  0.00    +0.000 C 
ATOM     45  C   UNL     1      -5.984  -5.578   2.591  0.00  0.00    +0.000 C 
BRANCH  45  46
ATOM     46  C   UNL     1      -6.968  -5.283   3.692  0.00  0.00    +0.000 C 
ATOM     47  O   UNL     1      -6.574  -5.392   4.857  0.00  0.00    +0.000 OA
ATOM     48  N   UNL     1      -8.268  -4.973   3.335  0.00  0.00    +0.000 N 
ATOM     49  H   UNL     1      -8.598  -5.080   2.377  0.00  0.00    +0.000 HD
BRANCH  48  50
ATOM     50  C   UNL     1      -9.293  -4.553   4.324  0.00  0.00    +0.000 C 
BRANCH  50  51
ATOM     51  C   UNL     1     -10.702  -4.416   3.653  0.00  0.00    +0.000 C 
ATOM     52  O   UNL     1     -10.838  -4.636   2.450  0.00  0.00    +0.000 OA
ATOM     53  N   UNL     1     -11.770  -4.046   4.453  0.00  0.00    +0.000 N 
ATOM     54  H   UNL     1     -11.644  -3.874   5.433  0.00  0.00    +0.000 HD
BRANCH  53  55
ATOM     55  C   UNL     1     -13.126  -3.880   3.919  0.00  0.00    +0.000 C 
BRANCH  55  56
ATOM     56  C   UNL     1     -14.181  -3.460   4.965  0.00  0.00    +0.000 C 
ATOM     57  N   UNL     1     -13.760  -3.283   6.263  0.00  0.00    +0.000 N 
ATOM     58  O   UNL     1     -15.359  -3.286   4.661  0.00  0.00    +0.000 OA
ATOM     59  H   UNL     1     -12.824  -3.401   6.603  0.00  0.00    +0.000 HD
ATOM     60  H   UNL     1     -14.431  -3.007   6.972  0.00  0.00    +0.000 HD
ENDBRANCH  55  56
ENDBRANCH  53  55
ENDBRANCH  50  51
BRANCH  50  61
ATOM     61  C   UNL     1      -8.898  -3.211   4.951  0.00  0.00    +0.000 C 
BRANCH  61  62
ATOM     62  C   UNL     1      -7.544  -3.272   5.641  0.00  0.00    +0.000 C 
BRANCH  62  63
ATOM     63  C   UNL     1      -7.076  -1.993   6.244  0.00  0.00    +0.000 C 
BRANCH  63  64
ATOM     64  N   UNL     1      -5.757  -2.096   6.871  0.00  0.00    +0.000 N 
ATOM     65  C   UNL     1      -5.157  -1.028   7.468  0.00  0.00    +0.000 C 
ATOM     66  N   UNL     1      -5.699   0.142   7.546  0.00  0.00    +0.000 NA
ATOM     67  N   UNL     1      -3.931  -1.198   8.017  0.00  0.00    +0.000 N 
ATOM     68  H   UNL     1      -5.291  -2.998   6.785  0.00  0.00    +0.000 HD
ATOM     69  H   UNL     1      -6.619   0.171   7.099  0.00  0.00    +0.000 HD
ATOM     70  H   UNL     1      -3.407  -2.055   8.044  0.00  0.00    +0.000 HD
ATOM     71  H   UNL     1      -3.493  -0.409   8.492  0.00  0.00    +0.000 HD
ENDBRANCH  63  64
ENDBRANCH  62  63
ENDBRANCH  61  62
ENDBRANCH  50  61
ENDBRANCH  48  50
ENDBRANCH  45  46
ENDBRANCH  22  39
BRANCH   1  72
ATOM     72  C   UNL     1       5.264  -0.403   0.542  0.00  0.00    +0.000 C 
ATOM     73  C   UNL     1       4.731  -0.568  -1.047  0.00  0.00    +0.000 C 
BRANCH  72  75
ATOM     74  C   UNL     1       7.526  -1.865  -0.877  0.00  0.00    +0.000 C 
ATOM     75  C   UNL     1       6.714  -1.179   0.255  0.00  0.00    +0.000 C 
ENDBRANCH  72  75
ENDBRANCH   1  72
BRANCH  26  76
ATOM     76  C   UNL     1       1.383  -5.072   3.978  0.00  0.00    +0.000 C 
BRANCH  76  77
ATOM     77  C   UNL     1       1.315  -5.387   5.504  0.00  0.00    +0.000 C 
ATOM     78  N   UNL     1       0.125  -5.374   5.952  0.00  0.00    +0.000 N 
ATOM     79  O   UNL     1       2.108  -5.926   6.244  0.00  0.00    +0.000 OA
ATOM     80  H   UNL     1      -0.242  -5.786   5.149  0.00  0.00    +0.000 HD
ATOM     81  H   UNL     1      -0.520  -5.595   6.647  0.00  0.00    +0.000 HD
ENDBRANCH  76  77
ENDBRANCH  26  76
BRANCH   5  82
ATOM     82  C   UNL     1       0.300  -1.440   2.153  0.00  0.00    +0.000 C 
BRANCH  82  83
ATOM     83  C   UNL     1      -0.866  -2.160   2.503  0.00  0.00    +0.000 A 
ATOM     84  C   UNL     1      -1.156  -2.319   4.379  0.00  0.00    +0.000 A 
ATOM     85  C   UNL     1      -1.236  -3.980   4.951  0.00  0.00    +0.000 A 
ATOM     86  C   UNL     1      -0.838  -5.292   3.735  0.00  0.00    +0.000 A 
ATOM     87  C   UNL     1      -0.943  -5.121   1.864  0.00  0.00    +0.000 A 
ATOM     88  C   UNL     1      -0.834  -3.559   1.308  0.00  0.00    +0.000 A 
BRANCH  86  89
ATOM     89  O   UNL     1      -0.891  -6.821   4.715  0.00  0.00    +0.000 OA
ATOM     90  H   UNL     1      -1.686  -7.275   5.156  0.00  0.00    +0.000 HD
ENDBRANCH  86  89
ENDBRANCH  82  83
ENDBRANCH   5  82
BRANCH  30  91
ATOM     91  C   UNL     1       2.321  -0.793   2.748  0.00  0.00    +0.000 C 
BRANCH  91  92
ATOM     92  C   UNL     1       2.733   0.785   4.274  0.00  0.00    +0.000 C 
BRANCH  92  93
ATOM     93  C   UNL     1       1.798   2.245   4.257  0.00  0.00    +0.000 C 
ATOM     94  N   UNL     1       0.222   1.815   3.792  0.00  0.00    +0.000 N 
ATOM     95  O   UNL     1       2.242   3.370   4.297  0.00  0.00    +0.000 OA
ATOM     96  H   UNL     1      -0.034   1.055   2.969  0.00  0.00    +0.000 HD
ATOM     97  H   UNL     1      -0.434   2.472   3.399  0.00  0.00    +0.000 HD
ENDBRANCH  92  93
ENDBRANCH  91  92
ENDBRANCH  30  91
TORSDOF 20
