REMARK  Name = CHEMBL592731
REMARK  7 active torsions:
REMARK  status: ('A' for Active; 'I' for Inactive)
REMARK    1  A    between atoms: C_1  and  O_2
REMARK    2  A    between atoms: O_2  and  C_3
REMARK    3  A    between atoms: C_6  and  N_7
REMARK    4  A    between atoms: C_8  and  C_9
REMARK    5  A    between atoms: C_16  and  O_17
REMARK    6  A    between atoms: O_17  and  C_18
REMARK    7  A    between atoms: C_23  and  C_24
REMARK                            x       y       z     vdW  Elec       q    Type
REMARK                         _______ _______ _______ _____ _____    ______ ____
ROOT
ATOM      1  N   UNL     1       5.517  -3.265   3.380  0.00  0.00    +0.000 N 
ATOM      2  C   UNL     1       5.897  -3.145   4.719  0.00  0.00    +0.000 A 
ATOM      3  C   UNL     1       5.473  -2.152   5.742  0.00  0.00    +0.000 C 
ATOM      4  N   UNL     1       6.641  -4.187   5.048  0.00  0.00    +0.000 NA
ATOM      5  N   UNL     1       6.737  -5.024   3.980  0.00  0.00    +0.000 NA
ATOM      6  C   UNL     1       6.098  -4.479   2.956  0.00  0.00    +0.000 A 
ATOM      7  N   UNL     1       6.046  -4.954   1.703  0.00  0.00    +0.000 N 
ATOM      8  C   UNL     1       6.473  -4.220   0.549  0.00  0.00    +0.000 C 
ATOM      9  C   UNL     1       5.428  -4.726  -0.413  0.00  0.00    +0.000 C 
ATOM     10  C   UNL     1       5.425  -6.226  -0.261  0.00  0.00    +0.000 C 
ATOM     11  C   UNL     1       5.649  -6.319   1.299  0.00  0.00    +0.000 C 
ENDROOT
BRANCH   1  15
ATOM     12  C   UNL     1       3.067  -0.878   0.916  0.00  0.00    +0.000 A 
ATOM     13  C   UNL     1       2.710  -2.200   1.127  0.00  0.00    +0.000 A 
ATOM     14  C   UNL     1       3.509  -2.993   1.973  0.00  0.00    +0.000 A 
ATOM     15  C   UNL     1       4.628  -2.446   2.611  0.00  0.00    +0.000 A 
ATOM     16  C   UNL     1       4.920  -1.121   2.326  0.00  0.00    +0.000 A 
ATOM     17  N   UNL     1       4.171  -0.341   1.488  0.00  0.00    +0.000 NA
BRANCH  12  19
ATOM     18  C   UNL     1       1.009  -0.078   0.025  0.00  0.00    +0.000 C 
ATOM     19  O   UNL     1       2.435  -0.055   0.018  0.00  0.00    +0.000 OA
ENDBRANCH  12  19
ENDBRANCH   1  15
BRANCH  10  20
ATOM     20  O   UNL     1       6.520  -6.797  -1.048  0.00  0.00    +0.000 OA
BRANCH  20  21
ATOM     21  C   UNL     1       6.414  -6.815  -2.440  0.00  0.00    +0.000 A 
ATOM     22  C   UNL     1       6.303  -8.095  -3.027  0.00  0.00    +0.000 A 
ATOM     23  C   UNL     1       6.330  -8.266  -4.425  0.00  0.00    +0.000 A 
ATOM     24  C   UNL     1       6.455  -7.168  -5.264  0.00  0.00    +0.000 A 
ATOM     25  C   UNL     1       6.593  -5.909  -4.711  0.00  0.00    +0.000 A 
ATOM     26  C   UNL     1       6.636  -5.711  -3.317  0.00  0.00    +0.000 A 
ATOM     27  C   UNL     1       6.948  -4.271  -2.979  0.00  0.00    +0.000 C 
ENDBRANCH  20  21
ENDBRANCH  10  20
TORSDOF 4
