REMARK  Name = CHEMBL198630
REMARK  9 active torsions:
REMARK  status: ('A' for Active; 'I' for Inactive)
REMARK    1  A    between atoms: C_1  and  C_2
REMARK    2  A    between atoms: C_2  and  C_24
REMARK    3  A    between atoms: N_3  and  N_4
REMARK    4  A    between atoms: C_5  and  C_7
REMARK    5  A    between atoms: C_7  and  N_8
REMARK    6  A    between atoms: N_8  and  C_9
REMARK    7  A    between atoms: N_8  and  S_15
REMARK    8  A    between atoms: S_15  and  C_18
REMARK    9  A    between atoms: C_29  and  O_30
REMARK                            x       y       z     vdW  Elec       q    Type
REMARK                         _______ _______ _______ _____ _____    ______ ____
ROOT
ATOM      1  C   UNL     1       2.487  -0.863   4.889  0.00  0.00    +0.000 C 
ENDROOT
BRANCH   1   3
ATOM      2  N   UNL     1       2.385  -0.348   2.432  0.00  0.00    +0.000 N 
ATOM      3  C   UNL     1       3.154  -0.817   3.486  0.00  0.00    +0.000 C 
ATOM      4  O   UNL     1       4.307  -1.195   3.268  0.00  0.00    +0.000 OA
ATOM      5  H   UNL     1       1.380  -0.300   2.505  0.00  0.00    +0.000 HD
BRANCH   2   8
ATOM      6  C   UNL     1       0.852   0.010   0.032  0.00  0.00    +0.000 C 
ATOM      7  C   UNL     1       2.360   0.020   0.118  0.00  0.00    +0.000 C 
ATOM      8  N   UNL     1       3.024  -0.183   1.217  0.00  0.00    +0.000 NA
BRANCH   7   9
ATOM      9  C   UNL     1       3.129   0.267  -1.161  0.00  0.00    +0.000 A 
ATOM     10  C   UNL     1       4.276  -0.486  -1.467  0.00  0.00    +0.000 A 
ATOM     11  C   UNL     1       5.050  -0.178  -2.600  0.00  0.00    +0.000 A 
ATOM     12  C   UNL     1       4.656   0.843  -3.464  0.00  0.00    +0.000 A 
ATOM     13  C   UNL     1       3.510   1.583  -3.183  0.00  0.00    +0.000 A 
ATOM     14  C   UNL     1       2.760   1.300  -2.036  0.00  0.00    +0.000 A 
BRANCH  14  15
ATOM     15  O   UNL     1       1.674   2.083  -1.762  0.00  0.00    +0.000 OA
ATOM     16  H   UNL     1       1.511   2.693  -2.498  0.00  0.00    +0.000 HD
ENDBRANCH  14  15
ENDBRANCH   7   9
ENDBRANCH   2   8
ENDBRANCH   1   3
BRANCH   1  17
ATOM     17  N   UNL     1       3.408  -1.060   6.062  0.00  0.00    +0.000 N 
BRANCH  17  18
ATOM     18  C   UNL     1       4.820  -0.878   5.923  0.00  0.00    +0.000 A 
ATOM     19  C   UNL     1       5.687  -1.879   6.360  0.00  0.00    +0.000 A 
ATOM     20  C   UNL     1       7.062  -1.711   6.266  0.00  0.00    +0.000 A 
ATOM     21  C   UNL     1       7.570  -0.657   5.517  0.00  0.00    +0.000 A 
ATOM     22  C   UNL     1       6.707   0.295   4.981  0.00  0.00    +0.000 A 
ATOM     23  C   UNL     1       5.344   0.237   5.266  0.00  0.00    +0.000 A 
ENDBRANCH  17  18
BRANCH  17  24
ATOM     24  S   UNL     1       2.732  -1.289   7.606  0.00  0.00    +0.000 S 
ATOM     25  O   UNL     1       2.023  -0.068   7.964  0.00  0.00    +0.000 OA
ATOM     26  O   UNL     1       2.013  -2.544   7.579  0.00  0.00    +0.000 OA
BRANCH  24  27
ATOM     27  C   UNL     1       4.071  -1.467   8.797  0.00  0.00    +0.000 A 
ATOM     28  C   UNL     1       4.462  -2.741   9.243  0.00  0.00    +0.000 A 
ATOM     29  C   UNL     1       5.467  -2.863  10.209  0.00  0.00    +0.000 A 
ATOM     30  C   UNL     1       6.102  -1.724  10.706  0.00  0.00    +0.000 A 
ATOM     31  C   UNL     1       5.716  -0.459  10.259  0.00  0.00    +0.000 A 
ATOM     32  C   UNL     1       4.694  -0.325   9.314  0.00  0.00    +0.000 A 
ENDBRANCH  24  27
ENDBRANCH  17  24
ENDBRANCH   1  17
TORSDOF 8
