REMARK  Name = CHEMBL198329
REMARK  12 active torsions:
REMARK  status: ('A' for Active; 'I' for Inactive)
REMARK    1  A    between atoms: CD1_1  and  CG_2
REMARK    2  A    between atoms: CG_2  and  CD2_3
REMARK    3  A    between atoms: CG_2  and  CB_4
REMARK    4  A    between atoms: CB_4  and  CA_5
REMARK    5  A    between atoms: C_9  and  C_10
REMARK    6  A    between atoms: N_21  and  C_22
REMARK    7  A    between atoms: C_22  and  C_23
REMARK    8  A    between atoms: C_22  and  C_29
REMARK    9  A    between atoms: N_25  and  C_26
REMARK   10  A    between atoms: C_26  and  C_27
REMARK   11  A    between atoms: C_26  and  C_28
REMARK   12  A    between atoms: C_32  and  C_33
REMARK                            x       y       z     vdW  Elec       q    Type
REMARK                         _______ _______ _______ _____ _____    ______ ____
ROOT
ATOM      1  CA  LEU A   2       4.736   0.361  -1.644  0.00  0.00    +0.000 C 
ATOM      2  C   LEU A   2       5.276  -1.042  -1.268  0.00  0.00    +0.000 C 
ATOM      3  O   LEU A   2       4.847  -2.113  -1.606  0.00  0.00    +0.000 OA
ATOM      4  N   UNK A   1       6.342  -0.943  -0.440  0.00  0.00    +0.000 N 
ATOM      5  C   UNK A   1       7.182   0.210  -0.575  0.00  0.00    +0.000 C 
ATOM      6  C   UNK A   1       6.388   1.487  -0.270  0.00  0.00    +0.000 C 
ATOM      7  O   UNK A   1       6.994   2.424   0.231  0.00  0.00    +0.000 OA
ATOM      8  N   LEU A   2       5.048   1.478  -0.673  0.00  0.00    +0.000 N 
ATOM      9  H   UNK A   1       6.657  -1.840  -0.099  0.00  0.00    +0.000 HD
ENDROOT
BRANCH   5  10
ATOM     10  C   UNK A   1       8.365   0.182   0.395  0.00  0.00    +0.000 C 
ATOM     11  C   UNK A   1       9.225  -1.066   0.169  0.00  0.00    +0.000 C 
ATOM     12  C   UNK A   1       8.582  -2.031   1.120  0.00  0.00    +0.000 A 
ATOM     13  C   UNK A   1       8.584  -3.410   1.045  0.00  0.00    +0.000 A 
ATOM     14  C   UNK A   1       7.797  -4.119   1.955  0.00  0.00    +0.000 A 
ATOM     15  C   UNK A   1       7.013  -3.449   2.908  0.00  0.00    +0.000 A 
ATOM     16  C   UNK A   1       6.999  -2.055   2.966  0.00  0.00    +0.000 A 
ATOM     17  C   UNK A   1       7.796  -1.362   2.072  0.00  0.00    +0.000 A 
ATOM     18  C   UNK A   1       7.864   0.119   1.865  0.00  0.00    +0.000 C 
ENDBRANCH   5  10
BRANCH   1  19
ATOM     19  CB  LEU A   2       3.301   0.080  -1.721  0.00  0.00    +0.000 C 
BRANCH  19  21
ATOM     20  CD1 LEU A   2       1.450  -0.664  -0.749  0.00  0.00    +0.000 C 
ATOM     21  CG  LEU A   2       2.845  -0.431  -0.368  0.00  0.00    +0.000 C 
ATOM     22  CD2 LEU A   2       3.187  -1.648   0.503  0.00  0.00    +0.000 C 
ENDBRANCH  19  21
ENDBRANCH   1  19
BRANCH   8  23
ATOM     23  C   UNK A   0       4.045   2.635  -0.298  0.00  0.00    +0.000 C 
BRANCH  23  24
ATOM     24  C   UNK A   0       4.761   3.898   0.244  0.00  0.00    +0.000 A 
ATOM     25  C   UNK A   0       4.489   4.425   1.519  0.00  0.00    +0.000 A 
ATOM     26  C   UNK A   0       5.099   5.566   1.990  0.00  0.00    +0.000 A 
ATOM     27  C   UNK A   0       6.163   6.105   1.286  0.00  0.00    +0.000 A 
ATOM     28  C   UNK A   0       6.513   5.572   0.041  0.00  0.00    +0.000 A 
ATOM     29  C   UNK A   0       5.767   4.530  -0.510  0.00  0.00    +0.000 A 
BRANCH  27  30
ATOM     30  C   UNK A   0       6.928   7.213   1.931  0.00  0.00    +0.000 C 
ATOM     31  F   UNK A   0       6.153   8.315   2.120  0.00  0.00    +0.000 F 
ATOM     32  F   UNK A   0       7.397   6.868   3.162  0.00  0.00    +0.000 F 
ATOM     33  F   UNK A   0       8.006   7.618   1.211  0.00  0.00    +0.000 F 
ENDBRANCH  27  30
ENDBRANCH  23  24
BRANCH  23  34
ATOM     34  C   UNK A   0       2.746   2.300   0.727  0.00  0.00    +0.000 C 
ATOM     35  O   UNK A   0       2.863   2.219   1.955  0.00  0.00    +0.000 OA
ATOM     36  N   UNK A   0       1.528   1.850   0.179  0.00  0.00    +0.000 N 
ATOM     37  H   UNK A   0       1.497   1.871  -0.830  0.00  0.00    +0.000 HD
BRANCH  36  38
ATOM     38  C   UNK A   0       0.474   1.032   1.053  0.00  0.00    +0.000 C 
ATOM     39  C   UNK A   0      -0.435   2.125   1.483  0.00  0.00    +0.000 C 
ATOM     40  C   UNK A   0      -0.664  -0.171   0.539  0.00  0.00    +0.000 C 
ENDBRANCH  36  38
ENDBRANCH  23  34
ENDBRANCH   8  23
TORSDOF 8
