REMARK  Name = CHEMBL2113195
REMARK  16 active torsions:
REMARK  status: ('A' for Active; 'I' for Inactive)
REMARK    1  A    between atoms: C_1  and  O_2
REMARK    2  A    between atoms: O_2  and  C_3
REMARK    3  A    between atoms: C_3  and  C_5
REMARK    4  A    between atoms: N_15  and  N_16
REMARK    5  A    between atoms: C_17  and  C_19
REMARK    6  A    between atoms: C_19  and  N_20
REMARK    7  A    between atoms: N_20  and  C_21
REMARK    8  A    between atoms: N_20  and  S_28
REMARK    9  A    between atoms: S_28  and  C_31
REMARK   10  A    between atoms: C_34  and  O_35
REMARK   11  A    between atoms: O_35  and  C_36
REMARK   12  A    between atoms: C_36  and  C_37
REMARK   13  A    between atoms: C_37  and  C_38
REMARK   14  A    between atoms: C_38  and  N_39
REMARK   15  A    between atoms: N_39  and  C_40
REMARK   16  A    between atoms: N_39  and  C_41
REMARK                            x       y       z     vdW  Elec       q    Type
REMARK                         _______ _______ _______ _____ _____    ______ ____
ROOT
ATOM      1  N   UNL     1      11.649  -1.465   5.840  0.00  0.00    +0.000 N 
ENDROOT
BRANCH   1   2
ATOM      2  C   UNL     1      12.626  -1.570   4.796  0.00  0.00    +0.000 A 
ATOM      3  C   UNL     1      12.666  -0.636   3.758  0.00  0.00    +0.000 A 
ATOM      4  C   UNL     1      13.448  -0.881   2.625  0.00  0.00    +0.000 A 
ATOM      5  C   UNL     1      14.320  -1.965   2.603  0.00  0.00    +0.000 A 
ATOM      6 CL   UNL     1      15.322  -2.239   1.236  0.00  0.00    +0.000 Cl
ATOM      7  C   UNL     1      14.359  -2.850   3.671  0.00  0.00    +0.000 A 
ATOM      8  C   UNL     1      13.449  -2.694   4.713  0.00  0.00    +0.000 A 
ENDBRANCH   1   2
BRANCH   1   9
ATOM      9  S   UNL     1      12.121  -1.544   7.478  0.00  0.00    +0.000 S 
ATOM     10  O   UNL     1      11.882  -0.234   8.055  0.00  0.00    +0.000 OA
ATOM     11  O   UNL     1      11.491  -2.709   8.069  0.00  0.00    +0.000 OA
BRANCH   9  12
ATOM     12  C   UNL     1      13.903  -1.819   7.556  0.00  0.00    +0.000 A 
ATOM     13  C   UNL     1      14.436  -3.115   7.661  0.00  0.00    +0.000 A 
ATOM     14  C   UNL     1      15.825  -3.301   7.750  0.00  0.00    +0.000 A 
ATOM     15  C   UNL     1      16.688  -2.202   7.739  0.00  0.00    +0.000 A 
ATOM     16  C   UNL     1      16.146  -0.916   7.686  0.00  0.00    +0.000 A 
ATOM     17  C   UNL     1      14.762  -0.721   7.593  0.00  0.00    +0.000 A 
BRANCH  15  18
ATOM     18  O   UNL     1      18.027  -2.492   7.775  0.00  0.00    +0.000 OA
BRANCH  18  19
ATOM     19  C   UNL     1      18.917  -1.372   7.699  0.00  0.00    +0.000 C 
BRANCH  19  20
ATOM     20  C   UNL     1      20.349  -1.882   7.665  0.00  0.00    +0.000 C 
BRANCH  20  21
ATOM     21  C   UNL     1      21.351  -0.724   7.597  0.00  0.00    +0.000 C 
BRANCH  21  22
ATOM     22  N   UNL     1      22.748  -1.191   7.566  0.00  0.00    +0.000 NA
ATOM     23  C   UNL     1      23.009  -2.020   6.386  0.00  0.00    +0.000 C 
ATOM     24  C   UNL     1      23.662  -0.044   7.561  0.00  0.00    +0.000 C 
ENDBRANCH  21  22
ENDBRANCH  20  21
ENDBRANCH  19  20
ENDBRANCH  18  19
ENDBRANCH  15  18
ENDBRANCH   9  12
ENDBRANCH   1   9
BRANCH   1  25
ATOM     25  C   UNL     1      10.171  -1.289   5.522  0.00  0.00    +0.000 C 
BRANCH  25  27
ATOM     26  N   UNL     1       8.500  -0.945   3.630  0.00  0.00    +0.000 N 
ATOM     27  C   UNL     1       9.747  -1.418   4.029  0.00  0.00    +0.000 C 
ATOM     28  O   UNL     1      10.472  -1.939   3.175  0.00  0.00    +0.000 OA
ATOM     29  H   UNL     1       7.706  -0.853   4.267  0.00  0.00    +0.000 HD
BRANCH  26  40
ATOM     30  C   UNL     1       4.533  -0.813  -0.808  0.00  0.00    +0.000 A 
ATOM     31  C   UNL     1       5.269  -0.914  -2.003  0.00  0.00    +0.000 A 
ATOM     32  C   UNL     1       6.683  -0.914  -1.993  0.00  0.00    +0.000 A 
ATOM     33  C   UNL     1       7.395  -0.861  -0.787  0.00  0.00    +0.000 A 
ATOM     34  C   UNL     1       6.655  -0.808   0.384  0.00  0.00    +0.000 A 
ATOM     35  C   UNL     1       5.253  -0.765   0.378  0.00  0.00    +0.000 A 
ATOM     36  N   UNL     1       4.762  -0.723   1.686  0.00  0.00    +0.000 N 
ATOM     37  C   UNL     1       5.780  -0.765   2.605  0.00  0.00    +0.000 C 
ATOM     38  O   UNL     1       5.734  -0.763   3.823  0.00  0.00    +0.000 OA
ATOM     39  C   UNL     1       7.065  -0.829   1.800  0.00  0.00    +0.000 C 
ATOM     40  N   UNL     1       8.272  -0.925   2.253  0.00  0.00    +0.000 NA
ATOM     41  H   UNL     1       3.783  -0.668   1.932  0.00  0.00    +0.000 HD
BRANCH  30  42
ATOM     42  C   UNL     1       3.051  -0.881  -0.864  0.00  0.00    +0.000 C 
ATOM     43  O   UNL     1       2.456  -1.641  -1.610  0.00  0.00    +0.000 OA
BRANCH  42  45
ATOM     44  C   UNL     1       1.041   0.035  -0.058  0.00  0.00    +0.000 C 
ATOM     45  O   UNL     1       2.480   0.017  -0.019  0.00  0.00    +0.000 OA
ENDBRANCH  42  45
ENDBRANCH  30  42
ENDBRANCH  26  40
ENDBRANCH  25  27
ENDBRANCH   1  25
TORSDOF 13
