REMARK  Name = CHEMBL2037511
REMARK  10 active torsions:
REMARK  status: ('A' for Active; 'I' for Inactive)
REMARK    1  A    between atoms: CD1_1  and  CG1_2
REMARK    2  A    between atoms: CG1_2  and  CB_3
REMARK    3  A    between atoms: CB_3  and  CG2_4
REMARK    4  A    between atoms: CB_3  and  CA_5
REMARK    5  A    between atoms: C_9  and  C_10
REMARK    6  A    between atoms: N_21  and  C_22
REMARK    7  A    between atoms: C_22  and  C_23
REMARK    8  A    between atoms: C_22  and  C_31
REMARK    9  A    between atoms: C_34  and  C_35
REMARK   10  A    between atoms: C_37  and  C_38
REMARK                            x       y       z     vdW  Elec       q    Type
REMARK                         _______ _______ _______ _____ _____    ______ ____
ROOT
ATOM      1  CA  ILE A   2       4.973  -0.631  -1.062  0.00  0.00    +0.000 C 
ATOM      2  C   ILE A   2       5.532  -0.336  -2.457  0.00  0.00    +0.000 C 
ATOM      3  O   ILE A   2       5.308   0.588  -3.262  0.00  0.00    +0.000 OA
ATOM      4  N   UNK A   1       6.549  -1.081  -2.809  0.00  0.00    +0.000 N 
ATOM      5  C   UNK A   1       7.395  -1.565  -1.770  0.00  0.00    +0.000 C 
ATOM      6  C   UNK A   1       6.552  -2.532  -0.941  0.00  0.00    +0.000 C 
ATOM      7  O   UNK A   1       7.133  -3.518  -0.501  0.00  0.00    +0.000 OA
ATOM      8  N   ILE A   2       5.197  -2.165  -0.754  0.00  0.00    +0.000 N 
ATOM      9  H   UNK A   1       6.906  -0.751  -3.697  0.00  0.00    +0.000 HD
ENDROOT
BRANCH   5  10
ATOM     10  C   UNK A   1       8.543  -2.346  -2.399  0.00  0.00    +0.000 C 
ATOM     11  C   UNK A   1       9.438  -1.444  -3.265  0.00  0.00    +0.000 C 
ATOM     12  C   UNK A   1       8.808  -1.586  -4.620  0.00  0.00    +0.000 A 
ATOM     13  C   UNK A   1       8.901  -0.715  -5.690  0.00  0.00    +0.000 A 
ATOM     14  C   UNK A   1       8.122  -0.970  -6.821  0.00  0.00    +0.000 A 
ATOM     15  C   UNK A   1       7.246  -2.067  -6.860  0.00  0.00    +0.000 A 
ATOM     16  C   UNK A   1       7.145  -2.935  -5.771  0.00  0.00    +0.000 A 
ATOM     17  C   UNK A   1       7.952  -2.698  -4.669  0.00  0.00    +0.000 A 
ATOM     18  C   UNK A   1       7.956  -3.429  -3.358  0.00  0.00    +0.000 C 
ENDBRANCH   5  10
BRANCH   1  19
ATOM     19  CB  ILE A   2       3.567  -0.078  -1.001  0.00  0.00    +0.000 C 
ATOM     20  CG2 ILE A   2       3.128   0.530   0.381  0.00  0.00    +0.000 C 
BRANCH  19  22
ATOM     21  CD1 ILE A   2       2.774   1.867  -2.923  0.00  0.00    +0.000 C 
ATOM     22  CG1 ILE A   2       2.982   0.425  -2.639  0.00  0.00    +0.000 C 
ENDBRANCH  19  22
ENDBRANCH   1  19
BRANCH   8  23
ATOM     23  C   UNK A   0       4.131  -3.242  -0.193  0.00  0.00    +0.000 C 
BRANCH  23  24
ATOM     24  C   UNK A   0       2.669  -3.616  -1.100  0.00  0.00    +0.000 C 
ATOM     25  O   UNK A   0       2.347  -4.565  -1.750  0.00  0.00    +0.000 OA
ATOM     26  N   UNK A   0       1.665  -2.714  -1.250  0.00  0.00    +0.000 N 
ATOM     27  C   UNK A   0       1.942  -1.711  -2.175  0.00  0.00    +0.000 C 
ATOM     28  C   UNK A   0       1.105  -0.557  -1.357  0.00  0.00    +0.000 C 
ATOM     29  O   UNK A   0      -0.269  -0.660  -1.586  0.00  0.00    +0.000 OA
ATOM     30  C   UNK A   0      -0.590  -1.875  -0.915  0.00  0.00    +0.000 C 
ATOM     31  C   UNK A   0       0.252  -3.022  -1.509  0.00  0.00    +0.000 C 
ENDBRANCH  23  24
BRANCH  23  32
ATOM     32  C   UNK A   0       4.834  -4.572   0.372  0.00  0.00    +0.000 A 
ATOM     33  C   UNK A   0       5.862  -4.521   1.358  0.00  0.00    +0.000 A 
ATOM     34  C   UNK A   0       6.657  -5.655   1.645  0.00  0.00    +0.000 A 
ATOM     35  C   UNK A   0       6.349  -6.851   1.035  0.00  0.00    +0.000 A 
ATOM     36  C   UNK A   0       7.037  -8.148   1.234  0.00  0.00    +0.000 C 
ATOM     37  N   UNK A   0       5.327  -6.960   0.204  0.00  0.00    +0.000 NA
ATOM     38  C   UNK A   0       4.614  -5.870  -0.113  0.00  0.00    +0.000 A 
ATOM     39  C   UNK A   0       3.551  -6.309  -1.014  0.00  0.00    +0.000 C 
ENDBRANCH  23  32
ENDBRANCH   8  23
TORSDOF 6
