REMARK  Name = CHEMBL31651
REMARK  7 active torsions:
REMARK  status: ('A' for Active; 'I' for Inactive)
REMARK    1  A    between atoms: C_2  and  C_3
REMARK    2  A    between atoms: C_3  and  N_4
REMARK    3  A    between atoms: C_6  and  C_7
REMARK    4  A    between atoms: N_15  and  C_16
REMARK    5  A    between atoms: C_16  and  C_17
REMARK    6  A    between atoms: C_21  and  C_22
REMARK    7  A    between atoms: C_27  and  N_28
REMARK                            x       y       z     vdW  Elec       q    Type
REMARK                         _______ _______ _______ _____ _____    ______ ____
ROOT
ATOM      1  C   UNL     1       5.279  -0.261  -2.746  0.00  0.00    +0.000 A 
ATOM      2  C   UNL     1       6.579   0.235  -2.824  0.00  0.00    +0.000 A 
ATOM      3  C   UNL     1       6.878   0.222  -4.208  0.00  0.00    +0.000 A 
ATOM      4  C   UNL     1       6.265   0.841  -5.337  0.00  0.00    +0.000 A 
ATOM      5  C   UNL     1       6.387   0.396  -6.666  0.00  0.00    +0.000 A 
ATOM      6  C   UNL     1       7.226  -0.690  -6.865  0.00  0.00    +0.000 A 
ATOM      7  C   UNL     1       7.518  -1.495  -5.725  0.00  0.00    +0.000 A 
ATOM      8  C   UNL     1       6.896  -1.145  -4.455  0.00  0.00    +0.000 A 
ATOM      9  O   UNL     1       5.381  -1.295  -3.859  0.00  0.00    +0.000 OA
ENDROOT
BRANCH   5  10
ATOM     10  C   UNL     1       5.515   0.959  -7.767  0.00  0.00    +0.000 C 
ATOM     11  O   UNL     1       5.666   0.510  -8.905  0.00  0.00    +0.000 OA
ATOM     12  N   UNL     1       4.495   1.910  -7.427  0.00  0.00    +0.000 N 
ATOM     13  C   UNL     1       3.066   1.570  -7.502  0.00  0.00    +0.000 C 
ATOM     14  C   UNL     1       2.185   2.793  -7.903  0.00  0.00    +0.000 C 
ATOM     15  C   UNL     1       2.208   4.184  -6.707  0.00  0.00    +0.000 C 
ATOM     16  C   UNL     1       3.938   4.355  -6.985  0.00  0.00    +0.000 C 
ATOM     17  C   UNL     1       4.758   3.095  -6.608  0.00  0.00    +0.000 C 
BRANCH  15  18
ATOM     18  N   UNL     1       0.854   4.783  -5.532  0.00  0.00    +0.000 N 
ATOM     19  C   UNL     1       0.033   4.084  -6.452  0.00  0.00    +0.000 C 
ATOM     20  O   UNL     1      -0.085   4.241  -7.696  0.00  0.00    +0.000 OA
ATOM     21  O   UNL     1      -0.437   2.959  -5.948  0.00  0.00    +0.000 OA
ATOM     22  C   UNL     1      -1.651   3.463  -5.563  0.00  0.00    +0.000 C 
ATOM     23  C   UNL     1      -1.205   3.585  -4.170  0.00  0.00    +0.000 A 
ATOM     24  C   UNL     1      -2.094   2.819  -3.249  0.00  0.00    +0.000 A 
ATOM     25  C   UNL     1      -2.656   3.207  -2.071  0.00  0.00    +0.000 A 
ATOM     26  C   UNL     1      -2.319   4.507  -1.851  0.00  0.00    +0.000 A 
ATOM     27 CL   UNL     1      -3.296   5.115  -0.475  0.00  0.00    +0.000 Cl
ATOM     28  C   UNL     1      -1.163   5.262  -2.793  0.00  0.00    +0.000 A 
ATOM     29  C   UNL     1      -0.278   4.615  -4.036  0.00  0.00    +0.000 A 
ENDBRANCH  15  18
ENDBRANCH   5  10
BRANCH   1  30
ATOM     30  C   UNL     1       4.444  -0.238  -1.392  0.00  0.00    +0.000 C 
BRANCH  30  33
ATOM     31  O   UNL     1       1.013  -0.003  -0.127  0.00  0.00    +0.000 OA
ATOM     32  C   UNL     1       2.248  -0.012  -0.059  0.00  0.00    +0.000 C 
ATOM     33  N   UNL     1       2.985  -0.129  -1.255  0.00  0.00    +0.000 N 
ATOM     34  H   UNL     1       2.396  -0.151  -2.079  0.00  0.00    +0.000 HD
BRANCH  32  35
ATOM     35  C   UNL     1       2.969   0.078   1.333  0.00  0.00    +0.000 C 
BRANCH  35  36
ATOM     36  N   UNL     1       2.053   0.164   2.506  0.00  0.00    +0.000 N 
ATOM     37  C   UNL     1       1.502  -0.994   3.050  0.00  0.00    +0.000 A 
ATOM     38  C   UNL     1       0.448  -0.954   3.890  0.00  0.00    +0.000 A 
ATOM     39  C   UNL     1      -0.009   0.333   4.383  0.00  0.00    +0.000 A 
ATOM     40  C   UNL     1       0.611   1.459   4.010  0.00  0.00    +0.000 A 
ATOM     41  C   UNL     1       1.623   1.429   2.915  0.00  0.00    +0.000 A 
ATOM     42  O   UNL     1       2.021   2.487   2.437  0.00  0.00    +0.000 OA
BRANCH  38  43
ATOM     43  C   UNL     1      -0.292  -2.175   4.358  0.00  0.00    +0.000 C 
ATOM     44  F   UNL     1      -0.279  -2.294   5.710  0.00  0.00    +0.000 F 
ATOM     45  F   UNL     1      -1.598  -2.143   3.983  0.00  0.00    +0.000 F 
ATOM     46  F   UNL     1       0.231  -3.323   3.856  0.00  0.00    +0.000 F 
ENDBRANCH  38  43
ENDBRANCH  35  36
ENDBRANCH  32  35
ENDBRANCH  30  33
ENDBRANCH   1  30
TORSDOF 7
