REMARK  Name = CHEMBL104237
REMARK  8 active torsions:
REMARK  status: ('A' for Active; 'I' for Inactive)
REMARK    1  A    between atoms: C_1  and  O_2
REMARK    2  A    between atoms: O_2  and  C_3
REMARK    3  A    between atoms: C_5  and  O_6
REMARK    4  A    between atoms: O_6  and  C_7
REMARK    5  A    between atoms: C_7  and  C_8
REMARK    6  A    between atoms: C_7  and  C_9
REMARK    7  A    between atoms: C_18  and  C_19
REMARK    8  A    between atoms: C_24  and  N_25
REMARK                            x       y       z     vdW  Elec       q    Type
REMARK                         _______ _______ _______ _____ _____    ______ ____
ROOT
ATOM      1  C   UNL     1       8.254   7.660  -3.877  0.00  0.00    +0.000 C 
ATOM      2  O   UNL     1       8.115   7.983  -5.058  0.00  0.00    +0.000 OA
ATOM      3  N   UNL     1       9.507   7.761  -3.282  0.00  0.00    +0.000 N 
ATOM      4  C   UNL     1       9.993   9.093  -2.952  0.00  0.00    +0.000 C 
ATOM      5  C   UNL     1      11.492   9.179  -3.182  0.00  0.00    +0.000 C 
ATOM      6  C   UNL     1      12.257   8.075  -2.418  0.00  0.00    +0.000 C 
ATOM      7  C   UNL     1      11.691   6.691  -2.805  0.00  0.00    +0.000 C 
ATOM      8  C   UNL     1      10.187   6.635  -2.653  0.00  0.00    +0.000 C 
ENDROOT
BRANCH   6   9
ATOM      9  N   UNL     1      12.385   8.398  -0.953  0.00  0.00    +0.000 N 
ATOM     10  C   UNL     1      11.309   8.641  -0.112  0.00  0.00    +0.000 C 
ATOM     11  O   UNL     1      10.318   7.954   0.038  0.00  0.00    +0.000 OA
ATOM     12  O   UNL     1      11.413   9.776   0.616  0.00  0.00    +0.000 OA
ATOM     13  C   UNL     1      12.384   9.579   1.614  0.00  0.00    +0.000 C 
ATOM     14  C   UNL     1      13.664   9.144   0.970  0.00  0.00    +0.000 A 
ATOM     15  C   UNL     1      14.852   9.297   1.679  0.00  0.00    +0.000 A 
ATOM     16  C   UNL     1      16.044   8.891   1.101  0.00  0.00    +0.000 A 
ATOM     17  C   UNL     1      16.045   8.313  -0.168  0.00  0.00    +0.000 A 
ATOM     18  C   UNL     1      14.855   8.148  -0.879  0.00  0.00    +0.000 A 
ATOM     19  C   UNL     1      13.653   8.575  -0.324  0.00  0.00    +0.000 A 
ENDBRANCH   6   9
BRANCH   1  26
ATOM     20  C   UNL     1       7.026   6.995  -1.712  0.00  0.00    +0.000 A 
ATOM     21  C   UNL     1       5.836   6.692  -1.055  0.00  0.00    +0.000 A 
ATOM     22  C   UNL     1       4.634   6.543  -1.718  0.00  0.00    +0.000 A 
ATOM     23  C   UNL     1       4.631   6.802  -3.088  0.00  0.00    +0.000 A 
ATOM     24  F   UNL     1       3.483   6.735  -3.778  0.00  0.00    +0.000 F 
ATOM     25  C   UNL     1       5.809   7.158  -3.767  0.00  0.00    +0.000 A 
ATOM     26  C   UNL     1       7.044   7.243  -3.086  0.00  0.00    +0.000 A 
BRANCH  20  28
ATOM     27  C   UNL     1       8.372   6.000  -0.069  0.00  0.00    +0.000 C 
ATOM     28  O   UNL     1       8.103   7.148  -0.897  0.00  0.00    +0.000 OA
ENDBRANCH  20  28
BRANCH  22  29
ATOM     29  O   UNL     1       3.463   6.199  -1.095  0.00  0.00    +0.000 OA
BRANCH  29  30
ATOM     30  C   UNL     1       3.478   5.952   0.328  0.00  0.00    +0.000 C 
ATOM     31  C   UNL     1       2.780   4.620   0.587  0.00  0.00    +0.000 C 
BRANCH  30  32
ATOM     32  C   UNL     1       2.894   7.135   1.082  0.00  0.00    +0.000 A 
ATOM     33  C   UNL     1       3.341   8.434   0.807  0.00  0.00    +0.000 A 
ATOM     34  C   UNL     1       2.849   9.492   1.553  0.00  0.00    +0.000 A 
ATOM     35  N   UNL     1       1.963   9.353   2.559  0.00  0.00    +0.000 NA
ATOM     36  C   UNL     1       1.542   8.100   2.817  0.00  0.00    +0.000 A 
ATOM     37  C   UNL     1       1.967   6.981   2.119  0.00  0.00    +0.000 A 
ENDBRANCH  30  32
ENDBRANCH  29  30
ENDBRANCH  22  29
ENDBRANCH   1  26
TORSDOF 6
