REMARK  Name = CHEMBL1790575
REMARK  21 active torsions:
REMARK  status: ('A' for Active; 'I' for Inactive)
REMARK    1  A    between atoms: C_1  and  C_2
REMARK    2  A    between atoms: C_2  and  C_3
REMARK    3  A    between atoms: C_3  and  C_4
REMARK    4  A    between atoms: C_3  and  C_5
REMARK    5  A    between atoms: C_9  and  C_10
REMARK    6  A    between atoms: C_10  and  C_11
REMARK    7  A    between atoms: C_20  and  C_21
REMARK    8  A    between atoms: C_21  and  C_22
REMARK    9  A    between atoms: C_25  and  O_26
REMARK   10  A    between atoms: C_37  and  C_38
REMARK   11  A    between atoms: C_44  and  C_45
REMARK   12  A    between atoms: N_47  and  C_48
REMARK   13  A    between atoms: C_48  and  C_49
REMARK   14  A    between atoms: C_48  and  C_56
REMARK   15  A    between atoms: C_49  and  C_50
REMARK   16  A    between atoms: C_50  and  C_51
REMARK   17  A    between atoms: C_51  and  N_52
REMARK   18  A    between atoms: N_58  and  C_59
REMARK   19  A    between atoms: C_59  and  C_60
REMARK   20  A    between atoms: C_66  and  C_67
REMARK   21  A    between atoms: C_67  and  C_68
REMARK                            x       y       z     vdW  Elec       q    Type
REMARK                         _______ _______ _______ _____ _____    ______ ____
ROOT
ATOM      1  C   UNL     1       5.594  -1.283   0.543  0.00  0.00    +0.000 C 
ATOM      2  N   UNL     1       6.312  -0.892   2.264  0.00  0.00    +0.000 N 
ATOM      3  C   UNL     1       5.909  -0.286   3.782  0.00  0.00    +0.000 C 
ATOM      4  O   UNL     1       6.280  -0.615   4.926  0.00  0.00    +0.000 OA
ATOM      5  C   UNL     1       4.948   0.857   3.832  0.00  0.00    +0.000 C 
ATOM      6  N   UNL     1       3.450   0.974   3.705  0.00  0.00    +0.000 N 
ATOM      7  C   UNL     1       2.543   0.549   4.667  0.00  0.00    +0.000 C 
ATOM      8  O   UNL     1       1.370   0.689   4.291  0.00  0.00    +0.000 OA
ATOM      9  C   UNL     1       3.149  -0.343   6.065  0.00  0.00    +0.000 C 
ATOM     10  N   UNL     1       2.568   0.334   7.127  0.00  0.00    +0.000 N 
ATOM     11  C   UNL     1       1.269   0.196   7.464  0.00  0.00    +0.000 C 
ATOM     12  O   UNL     1       0.879   0.845   8.433  0.00  0.00    +0.000 OA
ATOM     13  C   UNL     1       0.289  -0.694   6.695  0.00  0.00    +0.000 C 
ATOM     14  C   UNL     1       0.671  -1.573   5.554  0.00  0.00    +0.000 C 
ATOM     15  S   UNL     1      -0.726  -2.136   4.725  0.00  0.00    +0.000 S 
ATOM     16  S   UNL     1       0.416  -2.294   2.663  0.00  0.00    +0.000 S 
ATOM     17  C   UNL     1      -0.119  -4.305   1.366  0.00  0.00    +0.000 C 
ATOM     18  C   UNL     1       0.658  -5.471   0.488  0.00  0.00    +0.000 C 
ATOM     19  N   UNL     1       1.238  -4.653  -0.529  0.00  0.00    +0.000 N 
ATOM     20  C   UNL     1       1.559  -3.465  -0.021  0.00  0.00    +0.000 C 
ATOM     21  O   UNL     1       1.384  -2.443  -0.656  0.00  0.00    +0.000 OA
ATOM     22  C   UNL     1       2.161  -3.784   1.323  0.00  0.00    +0.000 C 
ATOM     23  N   UNL     1       3.944  -3.943   0.780  0.00  0.00    +0.000 N 
ATOM     24  C   UNL     1       5.330  -2.948   0.386  0.00  0.00    +0.000 C 
ATOM     25  O   UNL     1       6.525  -3.362   0.530  0.00  0.00    +0.000 OA
ATOM     26  H   UNL     1       6.955  -1.667   2.507  0.00  0.00    +0.000 HD
ATOM     27  H   UNL     1       2.874   0.877   2.842  0.00  0.00    +0.000 HD
ATOM     28  H   UNL     1       3.208   0.865   7.698  0.00  0.00    +0.000 HD
ATOM     29  H   UNL     1       0.810  -4.366  -1.386  0.00  0.00    +0.000 HD
ATOM     30  H   UNL     1       4.199  -4.874   1.123  0.00  0.00    +0.000 HD
ENDROOT
BRANCH  18  31
ATOM     31  C   UNL     1       1.733  -6.603   1.247  0.00  0.00    +0.000 C 
ATOM     32  O   UNL     1       2.896  -6.564   0.807  0.00  0.00    +0.000 OA
ATOM     33  N   UNL     1       1.492  -7.161   2.569  0.00  0.00    +0.000 N 
ATOM     34  C   UNL     1       0.275  -7.542   3.230  0.00  0.00    +0.000 C 
ATOM     35  C   UNL     1       0.296  -7.107   4.708  0.00  0.00    +0.000 C 
ATOM     36  C   UNL     1       1.716  -7.276   5.092  0.00  0.00    +0.000 C 
ATOM     37  C   UNL     1       2.454  -7.198   3.669  0.00  0.00    +0.000 C 
BRANCH  37  38
ATOM     38  C   UNL     1       3.045  -5.986   4.063  0.00  0.00    +0.000 C 
ATOM     39  O   UNL     1       3.641  -6.189   5.148  0.00  0.00    +0.000 OA
ATOM     40  N   UNL     1       3.133  -4.978   3.055  0.00  0.00    +0.000 N 
ATOM     41  H   UNL     1       3.058  -5.301   2.114  0.00  0.00    +0.000 HD
BRANCH  40  42
ATOM     42  C   UNL     1       3.596  -3.364   3.192  0.00  0.00    +0.000 C 
BRANCH  42  43
ATOM     43  C   UNL     1       3.200  -1.852   1.790  0.00  0.00    +0.000 C 
ATOM     44  O   UNL     1       3.249  -2.041   0.546  0.00  0.00    +0.000 OA
ATOM     45  N   UNL     1       3.054  -0.447   1.848  0.00  0.00    +0.000 N 
ATOM     46  H   UNL     1       3.931  -0.194   2.239  0.00  0.00    +0.000 HD
BRANCH  45  47
ATOM     47  C   UNL     1       2.930   0.411   0.540  0.00  0.00    +0.000 C 
BRANCH  47  48
ATOM     48  C   UNL     1       3.716   1.792  -0.010  0.00  0.00    +0.000 C 
ATOM     49  N   UNL     1       4.363   2.317   1.009  0.00  0.00    +0.000 N 
ATOM     50  O   UNL     1       3.883   2.316  -1.097  0.00  0.00    +0.000 OA
ATOM     51  H   UNL     1       4.065   1.749   1.771  0.00  0.00    +0.000 HD
ATOM     52  H   UNL     1       5.252   2.829   0.990  0.00  0.00    +0.000 HD
ENDBRANCH  47  48
ENDBRANCH  45  47
ENDBRANCH  42  43
BRANCH  42  53
ATOM     53  C   UNL     1       5.542  -3.157   4.242  0.00  0.00    +0.000 C 
BRANCH  53  54
ATOM     54  C   UNL     1       6.017  -3.728   5.511  0.00  0.00    +0.000 C 
BRANCH  54  55
ATOM     55  C   UNL     1       7.409  -3.850   5.262  0.00  0.00    +0.000 C 
BRANCH  55  56
ATOM     56  N   UNL     1       7.456  -4.563   6.459  0.00  0.00    +0.000 NA
ATOM     57  C   UNL     1       8.625  -4.706   6.840  0.00  0.00    +0.000 C 
ATOM     58  N   UNL     1       9.656  -4.254   6.149  0.00  0.00    +0.000 N 
ATOM     59  N   UNL     1       8.680  -5.327   7.990  0.00  0.00    +0.000 N 
ATOM     60  H   UNL     1       9.492  -3.805   5.249  0.00  0.00    +0.000 HD
ATOM     61  H   UNL     1      10.586  -4.363   6.448  0.00  0.00    +0.000 HD
ATOM     62  H   UNL     1       7.779  -5.600   8.385  0.00  0.00    +0.000 HD
ATOM     63  H   UNL     1       9.537  -5.503   8.444  0.00  0.00    +0.000 HD
ENDBRANCH  55  56
ENDBRANCH  54  55
ENDBRANCH  53  54
ENDBRANCH  42  53
ENDBRANCH  40  42
ENDBRANCH  37  38
ENDBRANCH  18  31
BRANCH   1  64
ATOM     64  C   UNL     1       5.104  -0.484  -0.819  0.00  0.00    +0.000 C 
ATOM     65  C   UNL     1       3.591  -0.763  -1.826  0.00  0.00    +0.000 C 
BRANCH  64  67
ATOM     66  C   UNL     1       6.010   0.015  -2.842  0.00  0.00    +0.000 C 
ATOM     67  C   UNL     1       6.281  -0.749  -1.602  0.00  0.00    +0.000 C 
ENDBRANCH  64  67
ENDBRANCH   1  64
BRANCH   9  68
ATOM     68  C   UNL     1       3.171  -1.895   6.453  0.00  0.00    +0.000 C 
BRANCH  68  69
ATOM     69  C   UNL     1       3.673  -2.561   5.270  0.00  0.00    +0.000 A 
ATOM     70  C   UNL     1       4.153  -1.782   4.078  0.00  0.00    +0.000 A 
ATOM     71  C   UNL     1       5.063  -2.562   2.631  0.00  0.00    +0.000 A 
ATOM     72  C   UNL     1       5.451  -4.295   2.558  0.00  0.00    +0.000 A 
ATOM     73  C   UNL     1       5.011  -4.991   3.849  0.00  0.00    +0.000 A 
ATOM     74  C   UNL     1       3.950  -4.090   5.146  0.00  0.00    +0.000 A 
BRANCH  72  75
ATOM     75  O   UNL     1       5.829  -5.172   1.590  0.00  0.00    +0.000 OA
ATOM     76  H   UNL     1       5.805  -4.764   0.698  0.00  0.00    +0.000 HD
ENDBRANCH  72  75
ENDBRANCH  68  69
ENDBRANCH   9  68
BRANCH   5  77
ATOM     77  C   UNL     1       5.705   1.394   2.701  0.00  0.00    +0.000 C 
BRANCH  77  78
ATOM     78  C   UNL     1       7.160   1.473   2.494  0.00  0.00    +0.000 A 
ATOM     79  C   UNL     1       8.094   0.447   2.213  0.00  0.00    +0.000 A 
ATOM     80  C   UNL     1       9.250   0.425   2.859  0.00  0.00    +0.000 A 
ATOM     81  C   UNL     1       9.738   1.683   2.894  0.00  0.00    +0.000 A 
ATOM     82  C   UNL     1       8.924   2.823   2.689  0.00  0.00    +0.000 A 
ATOM     83  C   UNL     1       7.589   2.730   2.506  0.00  0.00    +0.000 A 
ENDBRANCH  77  78
ENDBRANCH   5  77
BRANCH  22  84
ATOM     84  C   UNL     1       1.100  -4.366   2.909  0.00  0.00    +0.000 C 
BRANCH  84  85
ATOM     85  C   UNL     1      -0.790  -4.042   3.135  0.00  0.00    +0.000 C 
ATOM     86  N   UNL     1      -1.360  -2.951   1.881  0.00  0.00    +0.000 N 
ATOM     87  O   UNL     1      -1.448  -4.859   3.878  0.00  0.00    +0.000 OA
ATOM     88  H   UNL     1      -0.401  -2.380   1.450  0.00  0.00    +0.000 HD
ATOM     89  H   UNL     1      -1.908  -2.116   2.017  0.00  0.00    +0.000 HD
ENDBRANCH  84  85
ENDBRANCH  22  84
TORSDOF 19
