REMARK  Name = CHEMBL474609
REMARK  9 active torsions:
REMARK  status: ('A' for Active; 'I' for Inactive)
REMARK    1  A    between atoms: C_1  and  O_2
REMARK    2  A    between atoms: O_2  and  C_3
REMARK    3  A    between atoms: C_6  and  C_7
REMARK    4  A    between atoms: C_9  and  C_10
REMARK    5  A    between atoms: C_13  and  C_14
REMARK    6  A    between atoms: N_16  and  C_17
REMARK    7  A    between atoms: N_16  and  C_21
REMARK    8  A    between atoms: C_17  and  C_18
REMARK    9  A    between atoms: C_21  and  C_22
REMARK                            x       y       z     vdW  Elec       q    Type
REMARK                         _______ _______ _______ _____ _____    ______ ____
ROOT
ATOM      1  C   UNL     1       4.929   0.505   1.242  0.00  0.00    +0.000 A 
ATOM      2  C   UNL     1       3.947   1.374   1.604  0.00  0.00    +0.000 A 
ATOM      3  C   UNL     1       4.151   2.727   1.441  0.00  0.00    +0.000 A 
ATOM      4  C   UNL     1       5.394   3.309   1.595  0.00  0.00    +0.000 A 
ATOM      5  C   UNL     1       6.435   2.448   1.228  0.00  0.00    +0.000 A 
ATOM      6  C   UNL     1       6.189   1.061   0.981  0.00  0.00    +0.000 A 
ENDROOT
BRANCH   1  13
ATOM      7  C   UNL     1       3.249  -1.166   0.391  0.00  0.00    +0.000 A 
ATOM      8  C   UNL     1       2.842  -2.483   0.251  0.00  0.00    +0.000 A 
ATOM      9  C   UNL     1       3.613  -3.498   0.821  0.00  0.00    +0.000 A 
ATOM     10  C   UNL     1       4.756  -3.207   1.581  0.00  0.00    +0.000 A 
ATOM     11  C   UNL     1       5.585  -4.278   2.214  0.00  0.00    +0.000 C 
ATOM     12  C   UNL     1       5.162  -1.886   1.731  0.00  0.00    +0.000 A 
ATOM     13  C   UNL     1       4.471  -0.869   1.079  0.00  0.00    +0.000 A 
BRANCH   7  15
ATOM     14  C   UNL     1       1.133  -0.114  -0.081  0.00  0.00    +0.000 C 
ATOM     15  O   UNL     1       2.558  -0.129  -0.205  0.00  0.00    +0.000 OA
ENDBRANCH   7  15
ENDBRANCH   1  13
BRANCH   4  16
ATOM     16  C   UNL     1       5.614   4.761   2.069  0.00  0.00    +0.000 C 
ATOM     17  O   UNL     1       6.697   5.289   1.715  0.00  0.00    +0.000 OA
ATOM     18  N   UNL     1       4.726   5.514   2.897  0.00  0.00    +0.000 N 
BRANCH  18  19
ATOM     19  C   UNL     1       3.547   5.042   3.596  0.00  0.00    +0.000 C 
BRANCH  19  20
ATOM     20  C   UNL     1       3.104   3.678   3.561  0.00  0.00    +0.000 C 
ATOM     21  C   UNL     1       3.931   2.698   4.354  0.00  0.00    +0.000 C 
ATOM     22  C   UNL     1       2.458   2.777   4.550  0.00  0.00    +0.000 C 
ENDBRANCH  19  20
ENDBRANCH  18  19
BRANCH  18  23
ATOM     23  C   UNL     1       4.909   7.016   3.048  0.00  0.00    +0.000 C 
BRANCH  23  24
ATOM     24  C   UNL     1       3.708   7.828   3.729  0.00  0.00    +0.000 C 
ATOM     25  C   UNL     1       2.316   7.442   3.236  0.00  0.00    +0.000 C 
ATOM     26  C   UNL     1       1.445   8.624   3.357  0.00  0.00    +0.000 C 
ATOM     27  C   UNL     1       2.442   9.711   3.096  0.00  0.00    +0.000 C 
ATOM     28  O   UNL     1       3.754   9.251   3.502  0.00  0.00    +0.000 OA
ENDBRANCH  23  24
ENDBRANCH  18  23
ENDBRANCH   4  16
TORSDOF 7
