REMARK  Name = CHEMBL322162
REMARK  8 active torsions:
REMARK  status: ('A' for Active; 'I' for Inactive)
REMARK    1  A    between atoms: C_1  and  O_2
REMARK    2  A    between atoms: O_2  and  C_3
REMARK    3  A    between atoms: C_5  and  O_6
REMARK    4  A    between atoms: O_6  and  C_7
REMARK    5  A    between atoms: C_7  and  C_8
REMARK    6  A    between atoms: C_7  and  C_14
REMARK    7  A    between atoms: C_22  and  C_23
REMARK    8  A    between atoms: C_28  and  N_29
REMARK                            x       y       z     vdW  Elec       q    Type
REMARK                         _______ _______ _______ _____ _____    ______ ____
ROOT
ATOM      1  C   UNL     1       3.017  -0.767  -0.913  0.00  0.00    +0.000 A 
ATOM      2  C   UNL     1       4.092  -1.611  -0.569  0.00  0.00    +0.000 A 
ATOM      3  C   UNL     1       4.784  -2.333  -1.533  0.00  0.00    +0.000 A 
ATOM      4  C   UNL     1       4.321  -2.286  -2.842  0.00  0.00    +0.000 A 
ATOM      5  C   UNL     1       3.315  -1.375  -3.211  0.00  0.00    +0.000 A 
ATOM      6  C   UNL     1       2.626  -0.580  -2.257  0.00  0.00    +0.000 A 
ENDROOT
BRANCH   6   7
ATOM      7  C   UNL     1       1.462   0.260  -2.798  0.00  0.00    +0.000 C 
ATOM      8  O   UNL     1       1.133   0.070  -3.975  0.00  0.00    +0.000 OA
ATOM      9  N   UNL     1       0.673   1.113  -1.973  0.00  0.00    +0.000 N 
ATOM     10  C   UNL     1      -0.752   0.718  -1.735  0.00  0.00    +0.000 C 
ATOM     11  C   UNL     1      -1.662   1.898  -1.559  0.00  0.00    +0.000 C 
ATOM     12  C   UNL     1      -1.267   2.675  -0.031  0.00  0.00    +0.000 C 
ATOM     13  C   UNL     1       0.286   3.189  -0.682  0.00  0.00    +0.000 C 
ATOM     14  C   UNL     1       1.250   2.067  -1.003  0.00  0.00    +0.000 C 
BRANCH  12  15
ATOM     15  N   UNL     1      -2.168   1.951   1.422  0.00  0.00    +0.000 N 
ATOM     16  C   UNL     1      -3.265   2.688   0.880  0.00  0.00    +0.000 C 
ATOM     17  O   UNL     1      -3.759   2.607  -0.297  0.00  0.00    +0.000 OA
ATOM     18  O   UNL     1      -3.678   3.728   1.570  0.00  0.00    +0.000 OA
ATOM     19  C   UNL     1      -4.682   3.068   2.239  0.00  0.00    +0.000 C 
ATOM     20  C   UNL     1      -3.808   2.880   3.391  0.00  0.00    +0.000 A 
ATOM     21  C   UNL     1      -4.018   3.655   4.580  0.00  0.00    +0.000 A 
ATOM     22  C   UNL     1      -3.714   3.228   5.850  0.00  0.00    +0.000 A 
ATOM     23  C   UNL     1      -3.504   1.882   5.868  0.00  0.00    +0.000 A 
ATOM     24  C   UNL     1      -3.048   1.225   4.518  0.00  0.00    +0.000 A 
ATOM     25  C   UNL     1      -2.740   2.020   3.187  0.00  0.00    +0.000 A 
ENDBRANCH  12  15
ENDBRANCH   6   7
BRANCH   1  27
ATOM     26  C   UNL     1       1.149  -0.473   0.421  0.00  0.00    +0.000 C 
ATOM     27  O   UNL     1       2.514  -0.171   0.218  0.00  0.00    +0.000 OA
ENDBRANCH   1  27
BRANCH   3  28
ATOM     28  O   UNL     1       5.990  -2.872  -1.147  0.00  0.00    +0.000 OA
BRANCH  28  29
ATOM     29  C   UNL     1       6.929  -3.292  -2.185  0.00  0.00    +0.000 C 
BRANCH  29  30
ATOM     30  C   UNL     1       7.310  -2.220  -3.217  0.00  0.00    +0.000 A 
ATOM     31  C   UNL     1       8.080  -2.525  -4.348  0.00  0.00    +0.000 A 
ATOM     32  C   UNL     1       8.410  -1.508  -5.249  0.00  0.00    +0.000 A 
ATOM     33  C   UNL     1       7.851  -0.235  -5.119  0.00  0.00    +0.000 A 
ATOM     34  C   UNL     1       7.078   0.072  -4.015  0.00  0.00    +0.000 A 
ATOM     35  C   UNL     1       6.894  -0.889  -3.041  0.00  0.00    +0.000 A 
ENDBRANCH  29  30
BRANCH  29  36
ATOM     36  C   UNL     1       8.178  -3.796  -1.475  0.00  0.00    +0.000 A 
ATOM     37  C   UNL     1       8.408  -5.170  -1.324  0.00  0.00    +0.000 A 
ATOM     38  C   UNL     1       9.473  -5.616  -0.541  0.00  0.00    +0.000 A 
ATOM     39  C   UNL     1      10.388  -4.705  -0.015  0.00  0.00    +0.000 A 
ATOM     40  C   UNL     1      10.208  -3.340  -0.215  0.00  0.00    +0.000 A 
ATOM     41  C   UNL     1       9.104  -2.888  -0.930  0.00  0.00    +0.000 A 
ENDBRANCH  29  36
ENDBRANCH  28  29
ENDBRANCH   3  28
TORSDOF 7
