REMARK  Name = CHEMBL2113215
REMARK  9 active torsions:
REMARK  status: ('A' for Active; 'I' for Inactive)
REMARK    1  A    between atoms: C_1  and  O_2
REMARK    2  A    between atoms: O_2  and  C_3
REMARK    3  A    between atoms: C_6  and  S_7
REMARK    4  A    between atoms: S_7  and  N_10
REMARK    5  A    between atoms: N_10  and  C_11
REMARK    6  A    between atoms: N_10  and  C_26
REMARK    7  A    between atoms: C_11  and  C_12
REMARK    8  A    between atoms: N_14  and  N_15
REMARK    9  A    between atoms: C_29  and  C_30
REMARK                            x       y       z     vdW  Elec       q    Type
REMARK                         _______ _______ _______ _____ _____    ______ ____
ROOT
ATOM      1  N   UNL     1       4.817  -5.911  -1.987  0.00  0.00    +0.000 N 
ENDROOT
BRANCH   1   2
ATOM      2  C   UNL     1       5.368  -7.304  -2.171  0.00  0.00    +0.000 A 
ATOM      3  C   UNL     1       5.407  -7.828  -3.477  0.00  0.00    +0.000 A 
ATOM      4  C   UNL     1       5.725  -9.173  -3.751  0.00  0.00    +0.000 A 
ATOM      5  C   UNL     1       6.118 -10.033  -2.729  0.00  0.00    +0.000 A 
ATOM      6  C   UNL     1       6.643 -11.406  -3.048  0.00  0.00    +0.000 C 
ATOM      7  C   UNL     1       6.076  -9.549  -1.416  0.00  0.00    +0.000 A 
ATOM      8  C   UNL     1       5.687  -8.208  -1.139  0.00  0.00    +0.000 A 
ENDBRANCH   1   2
BRANCH   1   9
ATOM      9  S   UNL     1       5.587  -4.903  -0.767  0.00  0.00    +0.000 S 
ATOM     10  O   UNL     1       6.954  -4.714  -1.227  0.00  0.00    +0.000 OA
ATOM     11  O   UNL     1       5.376  -5.544   0.520  0.00  0.00    +0.000 OA
BRANCH   9  15
ATOM     12  C   UNL     1       3.282  -0.977   0.163  0.00  0.00    +0.000 A 
ATOM     13  C   UNL     1       4.439  -1.271   0.893  0.00  0.00    +0.000 A 
ATOM     14  C   UNL     1       5.227  -2.419   0.569  0.00  0.00    +0.000 A 
ATOM     15  C   UNL     1       4.933  -3.191  -0.575  0.00  0.00    +0.000 A 
ATOM     16  C   UNL     1       3.988  -2.664  -1.428  0.00  0.00    +0.000 A 
ATOM     17  C   UNL     1       3.038  -1.745  -0.956  0.00  0.00    +0.000 A 
BRANCH  12  19
ATOM     18  C   UNL     1       1.138   0.080   0.133  0.00  0.00    +0.000 C 
ATOM     19  O   UNL     1       2.536   0.137   0.453  0.00  0.00    +0.000 OA
ENDBRANCH  12  19
ENDBRANCH   9  15
ENDBRANCH   1   9
BRANCH   1  20
ATOM     20  C   UNL     1       3.437  -5.707  -2.617  0.00  0.00    +0.000 C 
BRANCH  20  21
ATOM     21  C   UNL     1       2.332  -4.806  -1.998  0.00  0.00    +0.000 C 
ATOM     22  O   UNL     1       2.317  -4.696  -0.771  0.00  0.00    +0.000 OA
ATOM     23  N   UNL     1       1.411  -4.148  -2.896  0.00  0.00    +0.000 N 
ATOM     24  H   UNL     1       1.499  -4.359  -3.890  0.00  0.00    +0.000 HD
BRANCH  23  25
ATOM     25  N   UNL     1      -0.038  -3.750  -2.602  0.00  0.00    +0.000 NA
ATOM     26  C   UNL     1      -0.652  -3.208  -3.657  0.00  0.00    +0.000 C 
ATOM     27  C   UNL     1       0.142  -2.281  -4.537  0.00  0.00    +0.000 C 
ATOM     28  O   UNL     1       0.921  -2.815  -5.262  0.00  0.00    +0.000 OA
ATOM     29  N   UNL     1      -0.705  -1.180  -4.774  0.00  0.00    +0.000 N 
ATOM     30  C   UNL     1      -1.936  -1.783  -5.058  0.00  0.00    +0.000 A 
ATOM     31  C   UNL     1      -2.643  -1.230  -6.147  0.00  0.00    +0.000 A 
ATOM     32  C   UNL     1      -3.598  -1.961  -6.806  0.00  0.00    +0.000 A 
ATOM     33  C   UNL     1      -3.739  -3.275  -6.367  0.00  0.00    +0.000 A 
ATOM     34  C   UNL     1      -2.990  -3.826  -5.204  0.00  0.00    +0.000 A 
ATOM     35  C   UNL     1      -2.074  -3.041  -4.443  0.00  0.00    +0.000 A 
ATOM     36  H   UNL     1      -0.922  -0.592  -3.972  0.00  0.00    +0.000 HD
ENDBRANCH  23  25
ENDBRANCH  20  21
ENDBRANCH   1  20
TORSDOF 7
