REMARK  Name = CHEMBL563771
REMARK  8 active torsions:
REMARK  status: ('A' for Active; 'I' for Inactive)
REMARK    1  A    between atoms: C_1  and  O_2
REMARK    2  A    between atoms: O_2  and  C_3
REMARK    3  A    between atoms: C_6  and  N_7
REMARK    4  A    between atoms: C_8  and  C_9
REMARK    5  A    between atoms: C_12  and  C_13
REMARK    6  A    between atoms: C_16  and  O_17
REMARK    7  A    between atoms: O_17  and  C_18
REMARK    8  A    between atoms: C_24  and  C_25
REMARK                            x       y       z     vdW  Elec       q    Type
REMARK                         _______ _______ _______ _____ _____    ______ ____
ROOT
ATOM      1  C   UNL     1       5.913  -1.587  -5.126  0.00  0.00    +0.000 A 
ATOM      2  C   UNL     1       6.376  -0.583  -4.279  0.00  0.00    +0.000 A 
ATOM      3  N   UNL     1       6.442   0.719  -4.640  0.00  0.00    +0.000 NA
ATOM      4  C   UNL     1       6.113   0.995  -5.920  0.00  0.00    +0.000 A 
ATOM      5  C   UNL     1       5.657  -0.003  -6.777  0.00  0.00    +0.000 A 
ATOM      6  N   UNL     1       5.528  -1.306  -6.396  0.00  0.00    +0.000 NA
ENDROOT
BRANCH   1  12
ATOM      7  N   UNL     1       5.145  -3.415  -3.531  0.00  0.00    +0.000 N 
ATOM      8  C   UNL     1       5.460  -4.770  -3.437  0.00  0.00    +0.000 A 
ATOM      9  C   UNL     1       4.945  -5.795  -2.490  0.00  0.00    +0.000 C 
ATOM     10  N   UNL     1       6.242  -5.096  -4.450  0.00  0.00    +0.000 NA
ATOM     11  N   UNL     1       6.442  -3.995  -5.225  0.00  0.00    +0.000 NA
ATOM     12  C   UNL     1       5.800  -2.972  -4.683  0.00  0.00    +0.000 A 
BRANCH   7  16
ATOM     13  C   UNL     1       3.143  -0.820  -0.934  0.00  0.00    +0.000 A 
ATOM     14  C   UNL     1       2.823  -0.774  -2.281  0.00  0.00    +0.000 A 
ATOM     15  C   UNL     1       3.455  -1.670  -3.151  0.00  0.00    +0.000 A 
ATOM     16  C   UNL     1       4.390  -2.585  -2.653  0.00  0.00    +0.000 A 
ATOM     17  C   UNL     1       4.690  -2.518  -1.301  0.00  0.00    +0.000 A 
ATOM     18  N   UNL     1       4.087  -1.653  -0.440  0.00  0.00    +0.000 NA
BRANCH  13  20
ATOM     19  C   UNL     1       1.163   0.022  -0.010  0.00  0.00    +0.000 C 
ATOM     20  O   UNL     1       2.590   0.044  -0.022  0.00  0.00    +0.000 OA
ENDBRANCH  13  20
ENDBRANCH   7  16
ENDBRANCH   1  12
BRANCH   4  21
ATOM     21  O   UNL     1       6.273   2.276  -6.431  0.00  0.00    +0.000 OA
BRANCH  21  22
ATOM     22  C   UNL     1       6.689   3.263  -5.557  0.00  0.00    +0.000 A 
ATOM     23  C   UNL     1       5.760   4.277  -5.275  0.00  0.00    +0.000 A 
ATOM     24  C   UNL     1       6.106   5.333  -4.428  0.00  0.00    +0.000 A 
ATOM     25  C   UNL     1       7.388   5.391  -3.902  0.00  0.00    +0.000 A 
ATOM     26  F   UNL     1       7.727   6.406  -3.095  0.00  0.00    +0.000 F 
ATOM     27  C   UNL     1       8.330   4.414  -4.203  0.00  0.00    +0.000 A 
ATOM     28  C   UNL     1       7.997   3.332  -5.037  0.00  0.00    +0.000 A 
ATOM     29  C   UNL     1       9.049   2.298  -5.320  0.00  0.00    +0.000 C 
ENDBRANCH  21  22
ENDBRANCH   4  21
TORSDOF 5
