REMARK  Name = CHEMBL193773
REMARK  14 active torsions:
REMARK  status: ('A' for Active; 'I' for Inactive)
REMARK    1  A    between atoms: C_1  and  C_2
REMARK    2  A    between atoms: N_4  and  C_5
REMARK    3  A    between atoms: C_9  and  C_10
REMARK    4  A    between atoms: C_10  and  C_11
REMARK    5  A    between atoms: C_10  and  N_18
REMARK    6  A    between atoms: N_13  and  C_14
REMARK    7  A    between atoms: C_14  and  C_15
REMARK    8  A    between atoms: C_14  and  C_16
REMARK    9  A    between atoms: C_14  and  C_17
REMARK   10  A    between atoms: C_21  and  C_22
REMARK   11  A    between atoms: CA_34  and  CB_35
REMARK   12  A    between atoms: CB_35  and  CG_36
REMARK   13  A    between atoms: CG_36  and  CD1_37
REMARK   14  A    between atoms: CG_36  and  CD2_38
REMARK                            x       y       z     vdW  Elec       q    Type
REMARK                         _______ _______ _______ _____ _____    ______ ____
ROOT
ATOM      1  N   LEU A   1       6.572  -2.873  -0.717  0.00  0.00    +0.000 N 
ATOM      2  C   UNK A   2       5.612  -3.088  -1.708  0.00  0.00    +0.000 C 
ATOM      3  O   UNK A   2       5.605  -2.395  -2.730  0.00  0.00    +0.000 OA
ATOM      4  C   UNK A   2       4.548  -4.214  -1.431  0.00  0.00    +0.000 C 
ATOM      5  N   UNK A   2       5.301  -5.337  -0.968  0.00  0.00    +0.000 N 
ATOM      6  C   LEU A   1       5.921  -5.170   0.231  0.00  0.00    +0.000 C 
ATOM      7  O   LEU A   1       6.020  -6.156   0.973  0.00  0.00    +0.000 OA
ATOM      8  CA  LEU A   1       6.451  -3.735   0.536  0.00  0.00    +0.000 C 
ATOM      9  H   UNK A   2       5.012  -6.289  -1.151  0.00  0.00    +0.000 HD
ENDROOT
BRANCH   4  10
ATOM     10  C   UNK A   2       3.789  -4.507  -2.713  0.00  0.00    +0.000 C 
ATOM     11  C   UNK A   2       2.942  -3.267  -2.995  0.00  0.00    +0.000 C 
ATOM     12  C   UNK A   2       2.110  -3.743  -4.109  0.00  0.00    +0.000 A 
ATOM     13  C   UNK A   2       1.487  -2.877  -4.988  0.00  0.00    +0.000 A 
ATOM     14  C   UNK A   2       0.758  -3.424  -6.013  0.00  0.00    +0.000 A 
ATOM     15  C   UNK A   2       0.813  -4.810  -6.208  0.00  0.00    +0.000 A 
ATOM     16  C   UNK A   2       1.471  -5.681  -5.289  0.00  0.00    +0.000 A 
ATOM     17  C   UNK A   2       2.067  -5.138  -4.159  0.00  0.00    +0.000 A 
ATOM     18  C   UNK A   2       2.755  -5.656  -2.886  0.00  0.00    +0.000 C 
ENDBRANCH   4  10
BRANCH   1  19
ATOM     19  C   UNK A   0       7.538  -1.659  -0.957  0.00  0.00    +0.000 C 
BRANCH  19  24
ATOM     20  C   UNK A   0       9.656  -0.415   2.024  0.00  0.00    +0.000 A 
ATOM     21  C   UNK A   0      10.588  -1.418   2.164  0.00  0.00    +0.000 A 
ATOM     22  C   UNK A   0      10.776  -2.271   1.096  0.00  0.00    +0.000 A 
ATOM     23  C   UNK A   0       9.918  -2.236  -0.024  0.00  0.00    +0.000 A 
ATOM     24  C   UNK A   0       8.768  -1.418  -0.026  0.00  0.00    +0.000 A 
ATOM     25  C   UNK A   0       8.749  -0.430   0.963  0.00  0.00    +0.000 A 
BRANCH  20  29
ATOM     26  C   UNK A   0       8.955   2.650   4.017  0.00  0.00    +0.000 C 
ATOM     27  C   UNK A   0       8.615   1.396   3.284  0.00  0.00    +0.000 C 
ATOM     28  O   UNK A   0       7.437   1.062   3.112  0.00  0.00    +0.000 OA
ATOM     29  N   UNK A   0       9.714   0.673   2.894  0.00  0.00    +0.000 N 
ATOM     30  H   UNK A   0      10.639   0.936   3.211  0.00  0.00    +0.000 HD
ENDBRANCH  20  29
ENDBRANCH  19  24
BRANCH  19  31
ATOM     31  C   UNK A   0       6.601  -0.418  -0.937  0.00  0.00    +0.000 C 
ATOM     32  O   UNK A   0       6.087  -0.043   0.119  0.00  0.00    +0.000 OA
ATOM     33  N   UNK A   0       6.238   0.146  -2.152  0.00  0.00    +0.000 N 
ATOM     34  H   UNK A   0       6.489  -0.368  -2.992  0.00  0.00    +0.000 HD
BRANCH  33  35
ATOM     35  C   UNK A   0       5.031   0.986  -2.204  0.00  0.00    +0.000 C 
ATOM     36  C   UNK A   0       3.828   0.283  -1.532  0.00  0.00    +0.000 C 
ATOM     37  C   UNK A   0       5.316   2.328  -1.515  0.00  0.00    +0.000 C 
ATOM     38  C   UNK A   0       4.635   1.257  -3.666  0.00  0.00    +0.000 C 
ENDBRANCH  33  35
ENDBRANCH  19  31
ENDBRANCH   1  19
BRANCH   8  39
ATOM     39  CB  LEU A   1       7.824  -3.926   1.157  0.00  0.00    +0.000 C 
BRANCH  39  40
ATOM     40  CG  LEU A   1       8.599  -5.252   1.173  0.00  0.00    +0.000 C 
ATOM     41  CD1 LEU A   1       8.761  -5.826  -0.261  0.00  0.00    +0.000 C 
ATOM     42  CD2 LEU A   1      10.029  -5.136   1.698  0.00  0.00    +0.000 C 
ENDBRANCH  39  40
ENDBRANCH   8  39
TORSDOF 8
