REMARK  Name = CHEMBL2112248
REMARK  8 active torsions:
REMARK  status: ('A' for Active; 'I' for Inactive)
REMARK    1  A    between atoms: C_1  and  C_2
REMARK    2  A    between atoms: C_2  and  C_3
REMARK    3  A    between atoms: C_3  and  C_4
REMARK    4  A    between atoms: C_3  and  C_5
REMARK    5  A    between atoms: C_9  and  C_10
REMARK    6  A    between atoms: C_10  and  C_11
REMARK    7  A    between atoms: C_30  and  C_31
REMARK    8  A    between atoms: C_31  and  C_32
REMARK                            x       y       z     vdW  Elec       q    Type
REMARK                         _______ _______ _______ _____ _____    ______ ____
ROOT
ATOM      1  C   UNL     1       4.476   0.140   1.867  0.00  0.00    +0.000 C 
ATOM      2  N   UNL     1       5.216   0.169   0.588  0.00  0.00    +0.000 N 
ATOM      3  C   UNL     1       5.433   1.213  -0.302  0.00  0.00    +0.000 C 
ATOM      4  O   UNL     1       4.958   2.340  -0.198  0.00  0.00    +0.000 OA
ATOM      5  C   UNL     1       6.559   0.923  -1.345  0.00  0.00    +0.000 C 
ATOM      6  N   UNL     1       7.150   2.274  -1.910  0.00  0.00    +0.000 N 
ATOM      7  C   UNL     1       8.549   2.577  -1.933  0.00  0.00    +0.000 C 
ATOM      8  O   UNL     1       9.158   1.903  -2.804  0.00  0.00    +0.000 OA
ATOM      9  C   UNL     1       9.364   3.043  -0.137  0.00  0.00    +0.000 C 
ATOM     10  C   UNL     1       9.547   1.383   0.699  0.00  0.00    +0.000 C 
ATOM     11  C   UNL     1       8.562   1.763  -0.109  0.00  0.00    +0.000 C 
ATOM     12  C   UNL     1      10.426   2.217  -0.778  0.00  0.00    +0.000 C 
ATOM     13  N   UNL     1      10.719   3.228   0.088  0.00  0.00    +0.000 N 
ATOM     14  C   UNL     1      11.504   2.957   1.294  0.00  0.00    +0.000 C 
ATOM     15  O   UNL     1      12.057   3.930   1.836  0.00  0.00    +0.000 OA
ATOM     16  C   UNL     1      11.664   1.501   2.167  0.00  0.00    +0.000 C 
ATOM     17  N   UNL     1      11.858   1.715   3.725  0.00  0.00    +0.000 N 
ATOM     18  C   UNL     1      11.336   0.896   4.763  0.00  0.00    +0.000 C 
ATOM     19  O   UNL     1      12.028  -0.159   4.919  0.00  0.00    +0.000 OA
ATOM     20  C   UNL     1       9.576   0.963   5.436  0.00  0.00    +0.000 C 
ATOM     21  C   UNL     1       8.475   1.733   4.685  0.00  0.00    +0.000 C 
ATOM     22  C   UNL     1       9.359   2.803   4.272  0.00  0.00    +0.000 C 
ATOM     23  C   UNL     1       9.142   1.789   3.173  0.00  0.00    +0.000 C 
ATOM     24  C   UNL     1       9.423  -0.041   3.604  0.00  0.00    +0.000 C 
ATOM     25  N   UNL     1       8.960  -0.248   4.969  0.00  0.00    +0.000 N 
ATOM     26  C   UNL     1       7.574  -0.495   5.120  0.00  0.00    +0.000 C 
ATOM     27  O   UNL     1       6.923   0.040   6.052  0.00  0.00    +0.000 OA
ATOM     28  C   UNL     1       6.917  -1.230   3.729  0.00  0.00    +0.000 C 
ATOM     29  C   UNL     1       6.922  -2.809   3.503  0.00  0.00    +0.000 C 
ATOM     30  C   UNL     1       7.986  -3.205   4.457  0.00  0.00    +0.000 C 
ATOM     31  C   UNL     1       6.712  -3.060   5.351  0.00  0.00    +0.000 C 
ATOM     32  N   UNL     1       5.596  -2.227   5.277  0.00  0.00    +0.000 NA
ATOM     33  N   UNL     1       5.580  -1.060   4.084  0.00  0.00    +0.000 N 
ATOM     34  C   UNL     1       4.919  -1.186   2.771  0.00  0.00    +0.000 C 
ATOM     35  O   UNL     1       4.891  -2.269   2.166  0.00  0.00    +0.000 OA
ATOM     36  H   UNL     1       5.388  -0.759   0.242  0.00  0.00    +0.000 HD
ATOM     37  H   UNL     1       6.647   3.065  -1.537  0.00  0.00    +0.000 HD
ATOM     38  H   UNL     1      11.847   2.700   3.950  0.00  0.00    +0.000 HD
ENDROOT
BRANCH   1  39
ATOM     39  C   UNL     1       2.910   0.118   1.670  0.00  0.00    +0.000 C 
ATOM     40  C   UNL     1       2.253   0.685   0.379  0.00  0.00    +0.000 C 
BRANCH  39  42
ATOM     41  C   UNL     1       0.873  -1.418   2.413  0.00  0.00    +0.000 C 
ATOM     42  C   UNL     1       2.349  -1.187   2.313  0.00  0.00    +0.000 C 
ENDBRANCH  39  42
ENDBRANCH   1  39
BRANCH   5  43
ATOM     43  C   UNL     1       6.563  -0.221  -2.321  0.00  0.00    +0.000 C 
BRANCH  43  44
ATOM     44  C   UNL     1       6.126  -1.566  -1.760  0.00  0.00    +0.000 A 
ATOM     45  C   UNL     1       6.929  -2.635  -1.416  0.00  0.00    +0.000 A 
ATOM     46  N   UNL     1       6.162  -3.586  -0.781  0.00  0.00    +0.000 N 
ATOM     47  C   UNL     1       4.850  -3.195  -0.725  0.00  0.00    +0.000 A 
ATOM     48  C   UNL     1       3.729  -3.777  -0.093  0.00  0.00    +0.000 A 
ATOM     49  C   UNL     1       2.507  -3.127  -0.185  0.00  0.00    +0.000 A 
ATOM     50  C   UNL     1       2.429  -1.940  -0.877  0.00  0.00    +0.000 A 
ATOM     51  C   UNL     1       3.572  -1.348  -1.465  0.00  0.00    +0.000 A 
ATOM     52  C   UNL     1       4.801  -1.992  -1.417  0.00  0.00    +0.000 A 
ATOM     53  H   UNL     1       6.479  -4.477  -0.433  0.00  0.00    +0.000 HD
ENDBRANCH  43  44
ENDBRANCH   5  43
BRANCH  16  54
ATOM     54  C   UNL     1      12.234   0.196   1.597  0.00  0.00    +0.000 C 
BRANCH  54  55
ATOM     55  C   UNL     1      11.903  -0.261   0.191  0.00  0.00    +0.000 A 
ATOM     56  C   UNL     1      11.037  -1.238  -0.286  0.00  0.00    +0.000 A 
ATOM     57  N   UNL     1      10.906  -0.997  -1.637  0.00  0.00    +0.000 N 
ATOM     58  C   UNL     1      11.743   0.030  -1.939  0.00  0.00    +0.000 A 
ATOM     59  N   UNL     1      12.509   0.318  -0.899  0.00  0.00    +0.000 NA
ATOM     60  H   UNL     1      10.304  -1.455  -2.310  0.00  0.00    +0.000 HD
ENDBRANCH  54  55
ENDBRANCH  16  54
TORSDOF 6
