REMARK  Name = CHEMBL210029
REMARK  12 active torsions:
REMARK  status: ('A' for Active; 'I' for Inactive)
REMARK    1  A    between atoms: CD1_1  and  CG_2
REMARK    2  A    between atoms: CG_2  and  CD2_3
REMARK    3  A    between atoms: CG_2  and  CB_4
REMARK    4  A    between atoms: CB_4  and  CA_5
REMARK    5  A    between atoms: C_9  and  C_10
REMARK    6  A    between atoms: N_21  and  C_22
REMARK    7  A    between atoms: C_22  and  C_23
REMARK    8  A    between atoms: C_22  and  C_30
REMARK    9  A    between atoms: N_25  and  C_26
REMARK   10  A    between atoms: N_25  and  C_27
REMARK   11  A    between atoms: C_27  and  C_28
REMARK   12  A    between atoms: C_28  and  O_29
REMARK                            x       y       z     vdW  Elec       q    Type
REMARK                         _______ _______ _______ _____ _____    ______ ____
ROOT
ATOM      1  CA  LEU A   2       5.000  -0.996  -1.165  0.00  0.00    +0.000 C 
ATOM      2  C   LEU A   2       5.519  -1.632   0.116  0.00  0.00    +0.000 C 
ATOM      3  O   LEU A   2       5.064  -2.560   0.722  0.00  0.00    +0.000 OA
ATOM      4  N   UNK A   1       6.599  -0.949   0.527  0.00  0.00    +0.000 N 
ATOM      5  C   UNK A   1       7.401  -0.326  -0.492  0.00  0.00    +0.000 C 
ATOM      6  C   UNK A   1       6.624   0.721  -1.351  0.00  0.00    +0.000 C 
ATOM      7  O   UNK A   1       7.238   1.655  -1.822  0.00  0.00    +0.000 OA
ATOM      8  N   LEU A   2       5.270   0.425  -1.531  0.00  0.00    +0.000 N 
ATOM      9  H   UNK A   1       6.915  -1.254   1.437  0.00  0.00    +0.000 HD
ENDROOT
BRANCH   5  10
ATOM     10  C   UNK A   1       8.536   0.450   0.141  0.00  0.00    +0.000 C 
ATOM     11  C   UNK A   1       9.428  -0.453   0.993  0.00  0.00    +0.000 C 
ATOM     12  C   UNK A   1       8.780  -0.322   2.338  0.00  0.00    +0.000 A 
ATOM     13  C   UNK A   1       8.859  -1.209   3.393  0.00  0.00    +0.000 A 
ATOM     14  C   UNK A   1       8.062  -0.970   4.513  0.00  0.00    +0.000 A 
ATOM     15  C   UNK A   1       7.181   0.123   4.554  0.00  0.00    +0.000 A 
ATOM     16  C   UNK A   1       7.088   1.004   3.477  0.00  0.00    +0.000 A 
ATOM     17  C   UNK A   1       7.913   0.783   2.387  0.00  0.00    +0.000 A 
ATOM     18  C   UNK A   1       7.927   1.525   1.086  0.00  0.00    +0.000 C 
ENDBRANCH   5  10
BRANCH   1  19
ATOM     19  CB  LEU A   2       3.604  -1.105  -0.812  0.00  0.00    +0.000 C 
BRANCH  19  21
ATOM     20  CD1 LEU A   2       1.688  -0.772   0.584  0.00  0.00    +0.000 C 
ATOM     21  CG  LEU A   2       3.090  -0.348   0.414  0.00  0.00    +0.000 C 
ATOM     22  CD2 LEU A   2       3.454  -0.582   1.849  0.00  0.00    +0.000 C 
ENDBRANCH  19  21
ENDBRANCH   1  19
BRANCH   8  23
ATOM     23  C   UNK A   0       4.183   1.350  -2.327  0.00  0.00    +0.000 C 
BRANCH  23  24
ATOM     24  C   UNK A   0       4.854   2.706  -2.773  0.00  0.00    +0.000 A 
ATOM     25  C   UNK A   0       5.902   2.653  -3.729  0.00  0.00    +0.000 A 
ATOM     26  C   UNK A   0       6.677   3.786  -4.036  0.00  0.00    +0.000 A 
ATOM     27  C   UNK A   0       6.348   5.016  -3.490  0.00  0.00    +0.000 A 
ATOM     28  F   UNK A   0       7.048   6.111  -3.808  0.00  0.00    +0.000 F 
ATOM     29  C   UNK A   0       5.304   5.124  -2.606  0.00  0.00    +0.000 A 
ATOM     30  C   UNK A   0       4.604   3.986  -2.231  0.00  0.00    +0.000 A 
ATOM     31  F   UNK A   0       3.699   4.257  -1.295  0.00  0.00    +0.000 F 
ENDBRANCH  23  24
BRANCH  23  32
ATOM     32  C   UNK A   0       2.638   1.626  -1.639  0.00  0.00    +0.000 C 
ATOM     33  O   UNK A   0       2.540   2.566  -0.834  0.00  0.00    +0.000 OA
ATOM     34  N   UNK A   0       1.442   0.761  -1.665  0.00  0.00    +0.000 N 
ATOM     35  C   UNK A   0       1.357  -0.742  -2.327  0.00  0.00    +0.000 C 
BRANCH  34  36
ATOM     36  C   UNK A   0       0.362   1.264  -0.417  0.00  0.00    +0.000 C 
BRANCH  36  37
ATOM     37  C   UNK A   0      -0.713   0.220   0.411  0.00  0.00    +0.000 C 
BRANCH  37  38
ATOM     38  O   UNK A   0      -1.390   0.816   1.522  0.00  0.00    +0.000 OA
ATOM     39  H   UNK A   0      -0.813   0.686   2.310  0.00  0.00    +0.000 HD
ENDBRANCH  37  38
ENDBRANCH  36  37
ENDBRANCH  34  36
ENDBRANCH  23  32
ENDBRANCH   8  23
TORSDOF 9
