REMARK  Name = CHEMBL4210854
REMARK  2 active torsions:
REMARK  status: ('A' for Active; 'I' for Inactive)
REMARK    1  A    between atoms: C_2  and  C_3
REMARK    2  A    between atoms: C_6  and  C_7
REMARK                            x       y       z     vdW  Elec       q    Type
REMARK                         _______ _______ _______ _____ _____    ______ ____
ROOT
ATOM      1  O   UNL     1       2.970  -0.199   1.032  0.00  0.00    +0.000 OA
ATOM      2  C   UNL     1       4.116   0.218   0.583  0.00  0.00    +0.000 C 
ATOM      3  N   UNL     1       6.054   0.043   0.990  0.00  0.00    +0.000 N 
ATOM      4  C   UNL     1       5.113  -0.856   1.003  0.00  0.00    +0.000 C 
ATOM      5  C   UNL     1       4.706  -1.357   2.413  0.00  0.00    +0.000 C 
ATOM      6  C   UNL     1       6.041  -1.465   2.801  0.00  0.00    +0.000 C 
ATOM      7  C   UNL     1       6.731  -1.944   3.913  0.00  0.00    +0.000 C 
ATOM      8  C   UNL     1       7.982  -1.549   3.211  0.00  0.00    +0.000 A 
ATOM      9  C   UNL     1       9.073  -2.183   4.419  0.00  0.00    +0.000 A 
ATOM     10  C   UNL     1      10.400  -1.978   4.570  0.00  0.00    +0.000 A 
ATOM     11  C   UNL     1      10.636  -1.308   3.394  0.00  0.00    +0.000 A 
ATOM     12  C   UNL     1       9.442  -0.673   2.177  0.00  0.00    +0.000 A 
ATOM     13  C   UNL     1       7.759  -0.612   1.841  0.00  0.00    +0.000 A 
ENDROOT
BRANCH   2  14
ATOM     14  C   UNL     1       3.606   0.633  -0.991  0.00  0.00    +0.000 A 
ATOM     15  C   UNL     1       4.244  -0.153  -1.905  0.00  0.00    +0.000 A 
ATOM     16  C   UNL     1       4.880   0.518  -2.917  0.00  0.00    +0.000 A 
ATOM     17  C   UNL     1       4.393   1.721  -3.419  0.00  0.00    +0.000 A 
ATOM     18  C   UNL     1       3.314   2.301  -2.756  0.00  0.00    +0.000 A 
ATOM     19  C   UNL     1       2.836   1.709  -1.557  0.00  0.00    +0.000 A 
BRANCH  17  20
ATOM     20  C   UNL     1       5.009   2.296  -4.611  0.00  0.00    +0.000 A 
ATOM     21  C   UNL     1       5.062   1.599  -5.827  0.00  0.00    +0.000 A 
ATOM     22  C   UNL     1       5.791   2.110  -6.902  0.00  0.00    +0.000 A 
ATOM     23  C   UNL     1       6.316   3.395  -6.840  0.00  0.00    +0.000 A 
ATOM     24  C   UNL     1       6.256   4.099  -5.647  0.00  0.00    +0.000 A 
ATOM     25  C   UNL     1       5.615   3.548  -4.541  0.00  0.00    +0.000 A 
ENDBRANCH  17  20
ENDBRANCH   2  14
TORSDOF 2
