REMARK  Name = CHEMBL2037487
REMARK  10 active torsions:
REMARK  status: ('A' for Active; 'I' for Inactive)
REMARK    1  A    between atoms: C_1  and  O_2
REMARK    2  A    between atoms: O_2  and  C_3
REMARK    3  A    between atoms: C_6  and  C_7
REMARK    4  A    between atoms: C_7  and  C_8
REMARK    5  A    between atoms: C_7  and  N_16
REMARK    6  A    between atoms: C_19  and  C_20
REMARK    7  A    between atoms: CA_32  and  CB_33
REMARK    8  A    between atoms: CB_33  and  CG_34
REMARK    9  A    between atoms: CG_34  and  CD1_35
REMARK   10  A    between atoms: CG_34  and  CD2_36
REMARK                            x       y       z     vdW  Elec       q    Type
REMARK                         _______ _______ _______ _____ _____    ______ ____
ROOT
ATOM      1  N   LEU A   1       4.755   4.020   4.546  0.00  0.00    +0.000 N 
ATOM      2  C   UNK A   2       4.667   2.895   5.367  0.00  0.00    +0.000 C 
ATOM      3  O   UNK A   2       5.146   1.809   5.020  0.00  0.00    +0.000 OA
ATOM      4  C   UNK A   2       3.956   3.109   6.746  0.00  0.00    +0.000 C 
ATOM      5  N   UNK A   2       4.486   4.331   7.332  0.00  0.00    +0.000 N 
ATOM      6  C   LEU A   1       4.502   5.456   6.584  0.00  0.00    +0.000 C 
ATOM      7  O   LEU A   1       4.739   6.555   7.120  0.00  0.00    +0.000 OA
ATOM      8  CA  LEU A   1       4.080   5.234   5.123  0.00  0.00    +0.000 C 
ATOM      9  H   UNK A   2       4.637   4.456   8.327  0.00  0.00    +0.000 HD
ENDROOT
BRANCH   4  10
ATOM     10  C   UNK A   2       4.214   1.953   7.683  0.00  0.00    +0.000 C 
ATOM     11  C   UNK A   2       3.639   0.629   7.142  0.00  0.00    +0.000 C 
ATOM     12  C   UNK A   2       4.627  -0.341   7.693  0.00  0.00    +0.000 A 
ATOM     13  C   UNK A   2       4.499  -1.713   7.739  0.00  0.00    +0.000 A 
ATOM     14  C   UNK A   2       5.536  -2.447   8.309  0.00  0.00    +0.000 A 
ATOM     15  C   UNK A   2       6.693  -1.808   8.786  0.00  0.00    +0.000 A 
ATOM     16  C   UNK A   2       6.835  -0.426   8.690  0.00  0.00    +0.000 A 
ATOM     17  C   UNK A   2       5.788   0.294   8.151  0.00  0.00    +0.000 A 
ATOM     18  C   UNK A   2       5.732   1.760   7.921  0.00  0.00    +0.000 C 
ENDBRANCH   4  10
BRANCH   1  19
ATOM     19  C   UNK A   0       5.465   3.807   3.176  0.00  0.00    +0.000 C 
BRANCH  19  20
ATOM     20  C   UNK A   0       4.524   2.763   2.199  0.00  0.00    +0.000 C 
ATOM     21  O   UNK A   0       3.988   1.768   2.715  0.00  0.00    +0.000 OA
ATOM     22  N   UNK A   0       4.157   3.009   0.862  0.00  0.00    +0.000 N 
ATOM     23  C   UNK A   0       4.943   3.577  -0.269  0.00  0.00    +0.000 C 
ATOM     24  C   UNK A   0       4.136   4.761  -0.958  0.00  0.00    +0.000 C 
ATOM     25  O   UNK A   0       2.829   4.332  -1.343  0.00  0.00    +0.000 OA
ATOM     26  C   UNK A   0       2.115   3.958  -0.139  0.00  0.00    +0.000 C 
ATOM     27  C   UNK A   0       2.776   2.695   0.442  0.00  0.00    +0.000 C 
ENDBRANCH  19  20
BRANCH  19  31
ATOM     28  C   UNK A   0       6.371   7.439   0.911  0.00  0.00    +0.000 A 
ATOM     29  C   UNK A   0       7.032   7.271   2.129  0.00  0.00    +0.000 A 
ATOM     30  C   UNK A   0       7.002   6.003   2.823  0.00  0.00    +0.000 A 
ATOM     31  C   UNK A   0       6.052   5.044   2.472  0.00  0.00    +0.000 A 
ATOM     32  C   UNK A   0       5.340   5.497   1.421  0.00  0.00    +0.000 A 
ATOM     33  N   UNK A   0       5.591   6.468   0.515  0.00  0.00    +0.000 NA
BRANCH  28  35
ATOM     34  C   UNK A   0       6.819   9.665   0.495  0.00  0.00    +0.000 C 
ATOM     35  O   UNK A   0       5.882   8.626   0.427  0.00  0.00    +0.000 OA
ENDBRANCH  28  35
ENDBRANCH  19  31
ENDBRANCH   1  19
BRANCH   8  36
ATOM     36  CB  LEU A   1       4.382   6.525   4.444  0.00  0.00    +0.000 C 
BRANCH  36  37
ATOM     37  CG  LEU A   1       3.404   6.762   3.314  0.00  0.00    +0.000 C 
ATOM     38  CD1 LEU A   1       2.017   7.067   3.748  0.00  0.00    +0.000 C 
ATOM     39  CD2 LEU A   1       3.847   7.936   2.498  0.00  0.00    +0.000 C 
ENDBRANCH  36  37
ENDBRANCH   8  36
TORSDOF 7
