REMARK  Name = CHEMBL551395
REMARK  9 active torsions:
REMARK  status: ('A' for Active; 'I' for Inactive)
REMARK    1  A    between atoms: C_1  and  C_2
REMARK    2  A    between atoms: C_2  and  C_3
REMARK    3  A    between atoms: C_8  and  O_9
REMARK    4  A    between atoms: O_9  and  C_10
REMARK    5  A    between atoms: C_13  and  C_14
REMARK    6  A    between atoms: C_17  and  C_18
REMARK    7  A    between atoms: N_19  and  C_20
REMARK    8  A    between atoms: C_23  and  O_24
REMARK    9  A    between atoms: O_24  and  C_25
REMARK                            x       y       z     vdW  Elec       q    Type
REMARK                         _______ _______ _______ _____ _____    ______ ____
ROOT
ATOM      1  C   UNL     1       3.308   2.471   0.876  0.00  0.00    +0.000 A 
ATOM      2  C   UNL     1       2.032   2.625   0.363  0.00  0.00    +0.000 A 
ATOM      3  N   UNL     1       1.783   3.079  -0.898  0.00  0.00    +0.000 NA
ATOM      4  C   UNL     1       2.850   3.537  -1.603  0.00  0.00    +0.000 A 
ATOM      5  C   UNL     1       4.113   3.526  -1.023  0.00  0.00    +0.000 A 
ATOM      6  N   UNL     1       4.375   2.986   0.214  0.00  0.00    +0.000 NA
ENDROOT
BRANCH   4   7
ATOM      7  C   UNL     1       2.544   4.188  -2.885  0.00  0.00    +0.000 A 
ATOM      8  N   UNL     1       3.261   4.179  -4.001  0.00  0.00    +0.000 NA
ATOM      9  N   UNL     1       2.624   4.964  -4.946  0.00  0.00    +0.000 NA
ATOM     10  C   UNL     1       1.525   5.452  -4.402  0.00  0.00    +0.000 A 
ATOM     11  C   UNL     1       0.639   6.526  -4.939  0.00  0.00    +0.000 C 
ATOM     12  N   UNL     1       1.404   4.936  -3.128  0.00  0.00    +0.000 N 
BRANCH  12  13
ATOM     13  C   UNL     1       0.407   5.300  -2.213  0.00  0.00    +0.000 A 
ATOM     14  C   UNL     1       0.756   5.844  -0.986  0.00  0.00    +0.000 A 
ATOM     15  C   UNL     1      -0.262   6.205  -0.119  0.00  0.00    +0.000 A 
ATOM     16  C   UNL     1      -1.583   6.025  -0.518  0.00  0.00    +0.000 A 
ATOM     17  N   UNL     1      -1.925   5.500  -1.715  0.00  0.00    +0.000 NA
ATOM     18  C   UNL     1      -0.925   5.135  -2.541  0.00  0.00    +0.000 A 
BRANCH  16  19
ATOM     19  O   UNL     1      -2.669   6.362   0.237  0.00  0.00    +0.000 OA
ATOM     20  C   UNL     1      -2.389   6.933   1.505  0.00  0.00    +0.000 C 
ENDBRANCH  16  19
ENDBRANCH  12  13
ENDBRANCH   4   7
BRANCH   1  21
ATOM     21  O   UNL     1       3.525   1.820   2.077  0.00  0.00    +0.000 OA
BRANCH  21  27
ATOM     22  C   UNL     1       3.072  -0.525   1.215  0.00  0.00    +0.000 A 
ATOM     23  C   UNL     1       3.048  -1.899   1.557  0.00  0.00    +0.000 A 
ATOM     24  C   UNL     1       3.238  -2.335   2.858  0.00  0.00    +0.000 A 
ATOM     25  C   UNL     1       3.518  -1.401   3.842  0.00  0.00    +0.000 A 
ATOM     26  C   UNL     1       3.608  -0.036   3.513  0.00  0.00    +0.000 A 
ATOM     27  C   UNL     1       3.388   0.437   2.197  0.00  0.00    +0.000 A 
BRANCH  22  29
ATOM     28  C   UNL     1       1.034  -0.213  -0.134  0.00  0.00    +0.000 C 
ATOM     29  C   UNL     1       2.564  -0.258  -0.176  0.00  0.00    +0.000 C 
ENDBRANCH  22  29
ENDBRANCH  21  27
ENDBRANCH   1  21
TORSDOF 6
