REMARK  Name = CHEMBL457998
REMARK  9 active torsions:
REMARK  status: ('A' for Active; 'I' for Inactive)
REMARK    1  A    between atoms: C_1  and  O_2
REMARK    2  A    between atoms: O_2  and  C_3
REMARK    3  A    between atoms: C_6  and  N_7
REMARK    4  A    between atoms: N_7  and  C_8
REMARK    5  A    between atoms: N_7  and  S_22
REMARK    6  A    between atoms: C_8  and  C_9
REMARK    7  A    between atoms: C_12  and  C_13
REMARK    8  A    between atoms: C_18  and  C_19
REMARK    9  A    between atoms: S_22  and  C_25
REMARK                            x       y       z     vdW  Elec       q    Type
REMARK                         _______ _______ _______ _____ _____    ______ ____
ROOT
ATOM      1  N   UNL     1       4.767   2.279  -4.499  0.00  0.00    +0.000 N 
ENDROOT
BRANCH   1   5
ATOM      2  C   UNL     1       2.831   0.771  -0.998  0.00  0.00    +0.000 A 
ATOM      3  C   UNL     1       2.479   2.029  -1.452  0.00  0.00    +0.000 A 
ATOM      4  C   UNL     1       3.099   2.557  -2.603  0.00  0.00    +0.000 A 
ATOM      5  C   UNL     1       4.028   1.811  -3.317  0.00  0.00    +0.000 A 
ATOM      6  C   UNL     1       4.150   0.526  -2.813  0.00  0.00    +0.000 A 
ATOM      7  N   UNL     1       3.684   0.014  -1.657  0.00  0.00    +0.000 NA
BRANCH   2   9
ATOM      8  C   UNL     1       0.899   0.057  -0.012  0.00  0.00    +0.000 C 
ATOM      9  O   UNL     1       2.309   0.166   0.100  0.00  0.00    +0.000 OA
ENDBRANCH   2   9
ENDBRANCH   1   5
BRANCH   1  10
ATOM     10  S   UNL     1       4.307   3.790  -5.184  0.00  0.00    +0.000 S 
ATOM     11  O   UNL     1       2.925   3.661  -5.627  0.00  0.00    +0.000 OA
ATOM     12  O   UNL     1       4.653   4.798  -4.205  0.00  0.00    +0.000 OA
BRANCH  10  13
ATOM     13  C   UNL     1       5.242   4.222  -6.653  0.00  0.00    +0.000 A 
ATOM     14  C   UNL     1       5.883   3.294  -7.466  0.00  0.00    +0.000 A 
ATOM     15  C   UNL     1       6.788   3.686  -8.447  0.00  0.00    +0.000 A 
ATOM     16  C   UNL     1       6.888   5.025  -8.782  0.00  0.00    +0.000 A 
ATOM     17  C   UNL     1       6.146   5.970  -8.076  0.00  0.00    +0.000 A 
ATOM     18  C   UNL     1       5.353   5.579  -6.988  0.00  0.00    +0.000 A 
ENDBRANCH  10  13
ENDBRANCH   1  10
BRANCH   1  19
ATOM     19  C   UNL     1       5.935   1.545  -5.082  0.00  0.00    +0.000 C 
BRANCH  19  20
ATOM     20  C   UNL     1       6.458   0.246  -4.502  0.00  0.00    +0.000 A 
ATOM     21  C   UNL     1       7.037   0.238  -3.239  0.00  0.00    +0.000 A 
ATOM     22  C   UNL     1       7.037  -0.967  -2.535  0.00  0.00    +0.000 A 
ATOM     23  C   UNL     1       6.517  -2.137  -3.112  0.00  0.00    +0.000 A 
ATOM     24  C   UNL     1       6.046  -2.044  -4.420  0.00  0.00    +0.000 A 
ATOM     25  N   UNL     1       6.022  -0.891  -5.128  0.00  0.00    +0.000 NA
BRANCH  23  26
ATOM     26  C   UNL     1       6.502  -3.407  -2.385  0.00  0.00    +0.000 A 
ATOM     27  C   UNL     1       7.321  -4.435  -2.880  0.00  0.00    +0.000 A 
ATOM     28  C   UNL     1       7.447  -5.644  -2.206  0.00  0.00    +0.000 A 
ATOM     29  C   UNL     1       6.746  -5.851  -1.025  0.00  0.00    +0.000 A 
ATOM     30  C   UNL     1       5.898  -4.861  -0.532  0.00  0.00    +0.000 A 
ATOM     31  C   UNL     1       5.758  -3.637  -1.204  0.00  0.00    +0.000 A 
ATOM     32  C   UNL     1       4.791  -2.627  -0.650  0.00  0.00    +0.000 C 
ENDBRANCH  23  26
ENDBRANCH  19  20
ENDBRANCH   1  19
TORSDOF 7
