REMARK  Name = CHEMBL25353
REMARK  7 active torsions:
REMARK  status: ('A' for Active; 'I' for Inactive)
REMARK    1  A    between atoms: C_2  and  C_3
REMARK    2  A    between atoms: C_3  and  C_4
REMARK    3  A    between atoms: C_7  and  N_8
REMARK    4  A    between atoms: C_15  and  O_16
REMARK    5  A    between atoms: O_16  and  C_17
REMARK    6  A    between atoms: C_17  and  C_18
REMARK    7  A    between atoms: C_25  and  N_26
REMARK                            x       y       z     vdW  Elec       q    Type
REMARK                         _______ _______ _______ _____ _____    ______ ____
ROOT
ATOM      1  O   UNL     1       0.940   0.536  -0.106  0.00  0.00    +0.000 OA
ATOM      2  C   UNL     1       2.149   0.335  -0.107  0.00  0.00    +0.000 C 
ATOM      3  N   UNL     1       3.080   1.305  -0.553  0.00  0.00    +0.000 N 
ATOM      4  C   UNL     1       4.047   1.005  -1.609  0.00  0.00    +0.000 C 
ATOM      5  C   UNL     1       5.352   1.719  -1.345  0.00  0.00    +0.000 C 
ATOM      6  C   UNL     1       5.133   3.401  -1.699  0.00  0.00    +0.000 C 
ATOM      7  C   UNL     1       4.056   3.557  -0.365  0.00  0.00    +0.000 C 
ATOM      8  C   UNL     1       2.762   2.732  -0.461  0.00  0.00    +0.000 C 
ENDROOT
BRANCH   6   9
ATOM      9  N   UNL     1       5.400   3.765  -3.471  0.00  0.00    +0.000 N 
ATOM     10  C   UNL     1       6.790   3.550  -3.156  0.00  0.00    +0.000 C 
ATOM     11  O   UNL     1       7.350   2.536  -2.629  0.00  0.00    +0.000 OA
ATOM     12  O   UNL     1       7.549   4.619  -3.164  0.00  0.00    +0.000 OA
ATOM     13  C   UNL     1       7.930   4.504  -4.474  0.00  0.00    +0.000 C 
ATOM     14  C   UNL     1       6.942   5.511  -4.875  0.00  0.00    +0.000 A 
ATOM     15  C   UNL     1       7.555   6.668  -5.515  0.00  0.00    +0.000 A 
ATOM     16  C   UNL     1       7.001   7.357  -6.548  0.00  0.00    +0.000 A 
ATOM     17  C   UNL     1       5.996   6.608  -7.105  0.00  0.00    +0.000 A 
ATOM     18  C   UNL     1       5.316   5.414  -6.268  0.00  0.00    +0.000 A 
ATOM     19  C   UNL     1       5.622   5.033  -4.788  0.00  0.00    +0.000 A 
ENDBRANCH   6   9
BRANCH   2  20
ATOM     20  C   UNL     1       2.802  -0.940   0.427  0.00  0.00    +0.000 C 
BRANCH  20  21
ATOM     21  C   UNL     1       1.991  -2.193   0.730  0.00  0.00    +0.000 A 
ATOM     22  C   UNL     1       0.797  -2.001   1.440  0.00  0.00    +0.000 A 
ATOM     23  C   UNL     1       0.035  -3.065   1.923  0.00  0.00    +0.000 A 
ATOM     24  C   UNL     1       0.380  -4.391   1.679  0.00  0.00    +0.000 A 
ATOM     25  C   UNL     1       1.590  -4.610   1.002  0.00  0.00    +0.000 A 
ATOM     26  C   UNL     1       2.401  -3.536   0.515  0.00  0.00    +0.000 A 
BRANCH  24  27
ATOM     27  N   UNL     1      -0.519  -5.377   2.020  0.00  0.00    +0.000 N 
ATOM     28  C   UNL     1      -0.258  -6.546   2.860  0.00  0.00    +0.000 C 
ATOM     29  C   UNL     1      -0.615  -7.830   2.090  0.00  0.00    +0.000 C 
ATOM     30  O   UNL     1      -1.962  -7.793   1.576  0.00  0.00    +0.000 OA
ATOM     31  C   UNL     1      -2.121  -6.665   0.695  0.00  0.00    +0.000 C 
ATOM     32  C   UNL     1      -1.871  -5.343   1.439  0.00  0.00    +0.000 C 
ENDBRANCH  24  27
BRANCH  26  33
ATOM     33  O   UNL     1       3.532  -3.990  -0.148  0.00  0.00    +0.000 OA
BRANCH  33  34
ATOM     34  C   UNL     1       4.379  -3.021  -0.761  0.00  0.00    +0.000 C 
BRANCH  34  35
ATOM     35  C   UNL     1       5.579  -3.522  -1.517  0.00  0.00    +0.000 C 
ATOM     36  F   UNL     1       6.398  -4.249  -0.737  0.00  0.00    +0.000 F 
ATOM     37  F   UNL     1       5.221  -4.244  -2.595  0.00  0.00    +0.000 F 
ATOM     38  F   UNL     1       6.287  -2.449  -1.966  0.00  0.00    +0.000 F 
ENDBRANCH  34  35
ENDBRANCH  33  34
ENDBRANCH  26  33
ENDBRANCH  20  21
ENDBRANCH   2  20
TORSDOF 7
