REMARK  Name = CHEMBL281988
REMARK  6 active torsions:
REMARK  status: ('A' for Active; 'I' for Inactive)
REMARK    1  A    between atoms: C_2  and  C_3
REMARK    2  A    between atoms: C_8  and  C_9
REMARK    3  A    between atoms: C_9  and  N_10
REMARK    4  A    between atoms: C_14  and  N_15
REMARK    5  A    between atoms: C_17  and  C_18
REMARK    6  A    between atoms: C_33  and  N_34
REMARK                            x       y       z     vdW  Elec       q    Type
REMARK                         _______ _______ _______ _____ _____    ______ ____
ROOT
ATOM      1  C   UNL     1       3.013   0.339   1.068  0.00  0.00    +0.000 A 
ATOM      2  C   UNL     1       2.583  -0.116   2.337  0.00  0.00    +0.000 A 
ATOM      3  C   UNL     1       3.204   0.311   3.535  0.00  0.00    +0.000 A 
ATOM      4  C   UNL     1       4.245   1.226   3.384  0.00  0.00    +0.000 A 
ATOM      5  O   UNL     1       4.995   1.762   4.378  0.00  0.00    +0.000 OA
ATOM      6  C   UNL     1       5.933   2.590   3.810  0.00  0.00    +0.000 A 
ATOM      7  C   UNL     1       5.741   2.618   2.451  0.00  0.00    +0.000 A 
ATOM      8  C   UNL     1       4.674   1.730   2.167  0.00  0.00    +0.000 A 
ATOM      9  C   UNL     1       4.034   1.300   0.996  0.00  0.00    +0.000 A 
ENDROOT
BRANCH   1  11
ATOM     10  O   UNL     1       1.087   0.070  -0.225  0.00  0.00    +0.000 OA
ATOM     11  C   UNL     1       2.314  -0.024  -0.227  0.00  0.00    +0.000 C 
ATOM     12  N   UNL     1       3.113  -0.267  -1.401  0.00  0.00    +0.000 N 
ATOM     13  C   UNL     1       4.132  -1.322  -1.425  0.00  0.00    +0.000 C 
ATOM     14  C   UNL     1       5.345  -0.946  -2.320  0.00  0.00    +0.000 C 
ATOM     15  C   UNL     1       4.968  -0.825  -4.111  0.00  0.00    +0.000 C 
ATOM     16  C   UNL     1       3.812   0.475  -3.738  0.00  0.00    +0.000 C 
ATOM     17  C   UNL     1       2.638   0.057  -2.766  0.00  0.00    +0.000 C 
BRANCH  15  18
ATOM     18  N   UNL     1       5.428  -1.987  -5.529  0.00  0.00    +0.000 N 
ATOM     19  C   UNL     1       6.429  -2.355  -4.603  0.00  0.00    +0.000 C 
ATOM     20  O   UNL     1       7.300  -1.635  -4.026  0.00  0.00    +0.000 OA
ATOM     21  O   UNL     1       6.225  -3.553  -4.103  0.00  0.00    +0.000 OA
ATOM     22  C   UNL     1       7.126  -4.202  -4.905  0.00  0.00    +0.000 C 
ATOM     23  C   UNL     1       6.091  -4.709  -5.805  0.00  0.00    +0.000 A 
ATOM     24  C   UNL     1       6.340  -6.225  -6.000  0.00  0.00    +0.000 A 
ATOM     25  C   UNL     1       6.340  -6.959  -7.147  0.00  0.00    +0.000 A 
ATOM     26  C   UNL     1       6.056  -6.086  -8.161  0.00  0.00    +0.000 A 
ATOM     27  C   UNL     1       5.635  -4.460  -7.886  0.00  0.00    +0.000 A 
ATOM     28  C   UNL     1       5.502  -3.625  -6.483  0.00  0.00    +0.000 A 
ENDBRANCH  15  18
ENDBRANCH   1  11
BRANCH   6  29
ATOM     29  C   UNL     1       6.961   3.268   4.667  0.00  0.00    +0.000 C 
BRANCH  29  30
ATOM     30  N   UNL     1       6.895   2.985   6.103  0.00  0.00    +0.000 NA
ATOM     31  C   UNL     1       5.628   3.452   6.680  0.00  0.00    +0.000 C 
ATOM     32  C   UNL     1       5.577   3.184   8.176  0.00  0.00    +0.000 C 
ATOM     33  C   UNL     1       5.781   1.703   8.474  0.00  0.00    +0.000 C 
ATOM     34  C   UNL     1       7.050   1.162   7.794  0.00  0.00    +0.000 C 
ATOM     35  C   UNL     1       7.106   1.552   6.325  0.00  0.00    +0.000 C 
BRANCH  34  36
ATOM     36  N   UNL     1       7.150  -0.301   7.923  0.00  0.00    +0.000 N 
ATOM     37  C   UNL     1       6.120  -1.113   7.457  0.00  0.00    +0.000 A 
ATOM     38  C   UNL     1       6.042  -2.408   7.795  0.00  0.00    +0.000 A 
ATOM     39  C   UNL     1       7.165  -3.008   8.485  0.00  0.00    +0.000 A 
ATOM     40  C   UNL     1       8.260  -2.291   8.766  0.00  0.00    +0.000 A 
ATOM     41  C   UNL     1       8.251  -0.817   8.595  0.00  0.00    +0.000 A 
ATOM     42  O   UNL     1       9.174  -0.155   9.060  0.00  0.00    +0.000 OA
BRANCH  38  43
ATOM     43  C   UNL     1       4.848  -3.261   7.493  0.00  0.00    +0.000 C 
ATOM     44  F   UNL     1       5.170  -4.336   6.733  0.00  0.00    +0.000 F 
ATOM     45  F   UNL     1       4.285  -3.736   8.633  0.00  0.00    +0.000 F 
ATOM     46  F   UNL     1       3.874  -2.584   6.830  0.00  0.00    +0.000 F 
ENDBRANCH  38  43
ENDBRANCH  34  36
ENDBRANCH  29  30
ENDBRANCH   6  29
TORSDOF 6
