REMARK  Name = CHEMBL2037512
REMARK  11 active torsions:
REMARK  status: ('A' for Active; 'I' for Inactive)
REMARK    1  A    between atoms: C_1  and  C_2
REMARK    2  A    between atoms: C_2  and  C_3
REMARK    3  A    between atoms: C_3  and  C_4
REMARK    4  A    between atoms: C_3  and  C_6
REMARK    5  A    between atoms: C_4  and  C_5
REMARK    6  A    between atoms: C_10  and  C_11
REMARK    7  A    between atoms: N_22  and  C_23
REMARK    8  A    between atoms: C_23  and  C_24
REMARK    9  A    between atoms: C_23  and  C_28
REMARK   10  A    between atoms: N_26  and  C_27
REMARK   11  A    between atoms: C_31  and  C_32
REMARK                            x       y       z     vdW  Elec       q    Type
REMARK                         _______ _______ _______ _____ _____    ______ ____
ROOT
ATOM      1  C   UNK A   2       4.509  -0.547  -1.479  0.00  0.00    +0.000 C 
ATOM      2  C   UNK A   2       4.992  -1.845  -0.802  0.00  0.00    +0.000 C 
ATOM      3  O   UNK A   2       4.363  -2.901  -0.720  0.00  0.00    +0.000 OA
ATOM      4  N   UNK A   1       6.255  -1.797  -0.338  0.00  0.00    +0.000 N 
ATOM      5  C   UNK A   1       7.129  -0.666  -0.536  0.00  0.00    +0.000 C 
ATOM      6  C   UNK A   1       6.360   0.628  -0.253  0.00  0.00    +0.000 C 
ATOM      7  O   UNK A   1       7.026   1.565   0.174  0.00  0.00    +0.000 OA
ATOM      8  N   UNK A   2       4.975   0.651  -0.561  0.00  0.00    +0.000 N 
ATOM      9  H   UNK A   1       6.577  -2.664   0.076  0.00  0.00    +0.000 HD
ENDROOT
BRANCH   5  10
ATOM     10  C   UNK A   1       8.342  -0.678   0.443  0.00  0.00    +0.000 C 
ATOM     11  C   UNK A   1       9.223  -1.917   0.236  0.00  0.00    +0.000 C 
ATOM     12  C   UNK A   1       8.588  -2.881   1.190  0.00  0.00    +0.000 A 
ATOM     13  C   UNK A   1       8.600  -4.261   1.123  0.00  0.00    +0.000 A 
ATOM     14  C   UNK A   1       7.818  -4.970   2.037  0.00  0.00    +0.000 A 
ATOM     15  C   UNK A   1       7.035  -4.299   2.991  0.00  0.00    +0.000 A 
ATOM     16  C   UNK A   1       7.018  -2.905   3.046  0.00  0.00    +0.000 A 
ATOM     17  C   UNK A   1       7.805  -2.211   2.144  0.00  0.00    +0.000 A 
ATOM     18  C   UNK A   1       7.865  -0.730   1.926  0.00  0.00    +0.000 C 
ENDBRANCH   5  10
BRANCH   1  19
ATOM     19  C   UNK A   2       2.994  -0.794  -1.879  0.00  0.00    +0.000 C 
BRANCH  19  21
ATOM     20  C   UNK A   2       0.630  -0.581  -0.678  0.00  0.00    +0.000 C 
ATOM     21  C   UNK A   2       2.190  -0.638  -0.637  0.00  0.00    +0.000 C 
ENDBRANCH  19  21
BRANCH  19  22
ATOM     22  C   UNK A   2       2.558   0.212  -2.961  0.00  0.00    +0.000 C 
ATOM     23  C   UNK A   2       1.066   0.353  -3.207  0.00  0.00    +0.000 C 
ENDBRANCH  19  22
ENDBRANCH   1  19
BRANCH   8  24
ATOM     24  C   UNK A   0       4.072   1.841   0.017  0.00  0.00    +0.000 C 
BRANCH  24  25
ATOM     25  C   UNK A   0       4.883   3.048   0.558  0.00  0.00    +0.000 A 
ATOM     26  C   UNK A   0       5.886   3.769  -0.111  0.00  0.00    +0.000 A 
ATOM     27  C   UNK A   0       6.710   4.634   0.637  0.00  0.00    +0.000 A 
ATOM     28  C   UNK A   0       6.413   4.865   1.974  0.00  0.00    +0.000 A 
ATOM     29  C   UNK A   0       7.125   5.750   2.910  0.00  0.00    +0.000 C 
ATOM     30  N   UNK A   0       5.395   4.300   2.588  0.00  0.00    +0.000 NA
ATOM     31  C   UNK A   0       4.713   3.411   1.888  0.00  0.00    +0.000 A 
ENDBRANCH  24  25
BRANCH  24  32
ATOM     32  C   UNK A   0       2.894   1.488   1.315  0.00  0.00    +0.000 C 
ATOM     33  O   UNK A   0       3.132   1.371   2.477  0.00  0.00    +0.000 OA
ATOM     34  N   UNK A   0       1.565   1.203   1.054  0.00  0.00    +0.000 N 
ATOM     35  C   UNK A   0       0.988   0.035   1.900  0.00  0.00    +0.000 C 
ATOM     36  H   UNK A   0       1.305   1.388   0.088  0.00  0.00    +0.000 HD
ENDBRANCH  24  32
ENDBRANCH   8  24
TORSDOF 7
