REMARK  Name = CHEMBL283894
REMARK  9 active torsions:
REMARK  status: ('A' for Active; 'I' for Inactive)
REMARK    1  A    between atoms: C_1  and  C_2
REMARK    2  A    between atoms: C_2  and  O_3
REMARK    3  A    between atoms: O_3  and  C_4
REMARK    4  A    between atoms: N_7  and  C_8
REMARK    5  A    between atoms: C_8  and  C_9
REMARK    6  A    between atoms: N_11  and  C_12
REMARK    7  A    between atoms: C_12  and  C_13
REMARK    8  A    between atoms: C_17  and  C_18
REMARK    9  A    between atoms: C_23  and  N_24
REMARK                            x       y       z     vdW  Elec       q    Type
REMARK                         _______ _______ _______ _____ _____    ______ ____
ROOT
ATOM      1  C   UNL     1      13.058   2.993   0.097  0.00  0.00    +0.000 A 
ATOM      2  C   UNL     1      13.682   3.340  -1.099  0.00  0.00    +0.000 A 
ATOM      3  C   UNL     1      15.056   3.265  -0.785  0.00  0.00    +0.000 A 
ATOM      4  C   UNL     1      15.880   2.200  -0.327  0.00  0.00    +0.000 A 
ATOM      5  C   UNL     1      17.092   2.385   0.358  0.00  0.00    +0.000 A 
ATOM      6  C   UNL     1      17.512   3.689   0.537  0.00  0.00    +0.000 A 
ATOM      7  C   UNL     1      16.525   4.703   0.412  0.00  0.00    +0.000 A 
ATOM      8  C   UNL     1      15.161   4.293   0.144  0.00  0.00    +0.000 A 
ATOM      9  O   UNL     1      13.999   3.646   1.061  0.00  0.00    +0.000 OA
ENDROOT
BRANCH   5  10
ATOM     10  C   UNL     1      17.808   1.258   1.029  0.00  0.00    +0.000 C 
ATOM     11  O   UNL     1      18.888   1.477   1.576  0.00  0.00    +0.000 OA
ATOM     12  N   UNL     1      17.095   0.059   1.222  0.00  0.00    +0.000 N 
ATOM     13  C   UNL     1      16.442  -0.088   2.515  0.00  0.00    +0.000 C 
ATOM     14  C   UNL     1      16.377  -1.538   2.932  0.00  0.00    +0.000 C 
ATOM     15  C   UNL     1      15.217  -2.361   1.908  0.00  0.00    +0.000 C 
ATOM     16  C   UNL     1      16.298  -2.186   0.546  0.00  0.00    +0.000 C 
ATOM     17  C   UNL     1      16.500  -0.739   0.139  0.00  0.00    +0.000 C 
BRANCH  15  18
ATOM     18  N   UNL     1      13.416  -2.145   2.346  0.00  0.00    +0.000 N 
ATOM     19  C   UNL     1      13.830  -3.073   3.394  0.00  0.00    +0.000 C 
ATOM     20  O   UNL     1      14.798  -3.014   4.191  0.00  0.00    +0.000 OA
ATOM     21  O   UNL     1      13.185  -4.223   3.428  0.00  0.00    +0.000 OA
ATOM     22  C   UNL     1      12.322  -3.890   4.449  0.00  0.00    +0.000 C 
ATOM     23  C   UNL     1      11.281  -3.627   3.476  0.00  0.00    +0.000 A 
ATOM     24  C   UNL     1      10.095  -4.535   3.612  0.00  0.00    +0.000 A 
ATOM     25  C   UNL     1       8.880  -4.390   3.002  0.00  0.00    +0.000 A 
ATOM     26  C   UNL     1       8.793  -3.120   2.507  0.00  0.00    +0.000 A 
ATOM     27  C   UNL     1      10.132  -2.175   2.388  0.00  0.00    +0.000 A 
ATOM     28  C   UNL     1      11.618  -2.591   2.570  0.00  0.00    +0.000 A 
ENDBRANCH  15  18
ENDBRANCH   5  10
BRANCH   1  29
ATOM     29  C   UNL     1      11.532   2.707   0.196  0.00  0.00    +0.000 C 
BRANCH  29  32
ATOM     30  C   UNL     1       9.467   1.637   0.908  0.00  0.00    +0.000 C 
ATOM     31  O   UNL     1       9.050   2.226  -0.084  0.00  0.00    +0.000 OA
ATOM     32  N   UNL     1      10.849   1.795   1.147  0.00  0.00    +0.000 N 
ATOM     33  H   UNL     1      11.349   1.274   1.850  0.00  0.00    +0.000 HD
BRANCH  30  34
ATOM     34  C   UNL     1       8.526   0.752   1.837  0.00  0.00    +0.000 C 
BRANCH  34  38
ATOM     35  C   UNL     1       4.354   0.510   1.390  0.00  0.00    +0.000 A 
ATOM     36  C   UNL     1       4.925   0.037   2.645  0.00  0.00    +0.000 A 
ATOM     37  C   UNL     1       6.260  -0.121   2.596  0.00  0.00    +0.000 A 
ATOM     38  N   UNL     1       7.028   0.543   1.620  0.00  0.00    +0.000 N 
ATOM     39  C   UNL     1       6.345   1.192   0.567  0.00  0.00    +0.000 A 
ATOM     40  O   UNL     1       6.844   1.942  -0.247  0.00  0.00    +0.000 OA
ATOM     41  N   UNL     1       5.010   0.984   0.409  0.00  0.00    +0.000 NA
BRANCH  35  42
ATOM     42  O   UNL     1       3.020   0.284   1.299  0.00  0.00    +0.000 OA
BRANCH  42  44
ATOM     43  C   UNL     1       1.034  -0.041  -0.062  0.00  0.00    +0.000 C 
ATOM     44  C   UNL     1       2.551  -0.040  -0.034  0.00  0.00    +0.000 C 
ENDBRANCH  42  44
ENDBRANCH  35  42
ENDBRANCH  34  38
ENDBRANCH  30  34
ENDBRANCH  29  32
ENDBRANCH   1  29
TORSDOF 8
