REMARK  Name = CHEMBL2113181
REMARK  13 active torsions:
REMARK  status: ('A' for Active; 'I' for Inactive)
REMARK    1  A    between atoms: C_2  and  C_3
REMARK    2  A    between atoms: C_3  and  C_4
REMARK    3  A    between atoms: C_4  and  C_5
REMARK    4  A    between atoms: C_8  and  S_9
REMARK    5  A    between atoms: S_9  and  N_12
REMARK    6  A    between atoms: N_12  and  C_13
REMARK    7  A    between atoms: N_12  and  C_28
REMARK    8  A    between atoms: C_13  and  C_14
REMARK    9  A    between atoms: N_16  and  N_17
REMARK   10  A    between atoms: N_37  and  C_38
REMARK   11  A    between atoms: C_38  and  C_39
REMARK   12  A    between atoms: C_39  and  C_40
REMARK   13  A    between atoms: C_40  and  O_41
REMARK                            x       y       z     vdW  Elec       q    Type
REMARK                         _______ _______ _______ _____ _____    ______ ____
ROOT
ATOM      1  N   UNL     1       3.986   7.989  -3.756  0.00  0.00    +0.000 N 
ENDROOT
BRANCH   1   2
ATOM      2  C   UNL     1       4.407   9.167  -4.599  0.00  0.00    +0.000 A 
ATOM      3  C   UNL     1       4.450  10.455  -4.027  0.00  0.00    +0.000 A 
ATOM      4  C   UNL     1       4.732  11.611  -4.792  0.00  0.00    +0.000 A 
ATOM      5  C   UNL     1       5.045  11.496  -6.141  0.00  0.00    +0.000 A 
ATOM      6 CL   UNL     1       5.547  12.879  -7.038  0.00  0.00    +0.000 Cl
ATOM      7  C   UNL     1       4.980  10.248  -6.748  0.00  0.00    +0.000 A 
ATOM      8  C   UNL     1       4.636   9.104  -5.988  0.00  0.00    +0.000 A 
ENDBRANCH   1   2
BRANCH   1   9
ATOM      9  S   UNL     1       4.874   6.489  -4.057  0.00  0.00    +0.000 S 
ATOM     10  O   UNL     1       6.241   6.759  -3.644  0.00  0.00    +0.000 OA
ATOM     11  O   UNL     1       4.636   6.106  -5.439  0.00  0.00    +0.000 OA
BRANCH   9  15
ATOM     12  C   UNL     1       2.941   2.778  -2.200  0.00  0.00    +0.000 A 
ATOM     13  C   UNL     1       4.085   2.600  -2.991  0.00  0.00    +0.000 A 
ATOM     14  C   UNL     1       4.775   3.737  -3.481  0.00  0.00    +0.000 A 
ATOM     15  C   UNL     1       4.387   5.032  -3.075  0.00  0.00    +0.000 A 
ATOM     16  C   UNL     1       3.455   5.119  -2.066  0.00  0.00    +0.000 A 
ATOM     17  C   UNL     1       2.580   4.064  -1.860  0.00  0.00    +0.000 A 
BRANCH  12  18
ATOM     18  C   UNL     1       2.149   1.733  -1.464  0.00  0.00    +0.000 C 
BRANCH  18  19
ATOM     19  C   UNL     1       3.095   0.865  -0.673  0.00  0.00    +0.000 C 
BRANCH  19  21
ATOM     20  O   UNL     1       1.102  -0.192   0.194  0.00  0.00    +0.000 OA
ATOM     21  C   UNL     1       2.330  -0.156   0.119  0.00  0.00    +0.000 C 
ATOM     22  N   UNL     1       3.084  -1.073   0.787  0.00  0.00    +0.000 N 
ATOM     23  H   UNL     1       2.542  -1.773   1.279  0.00  0.00    +0.000 HD
BRANCH  22  24
ATOM     24  C   UNL     1       4.530  -1.108   0.803  0.00  0.00    +0.000 C 
BRANCH  24  25
ATOM     25  C   UNL     1       5.050  -2.272   1.616  0.00  0.00    +0.000 C 
BRANCH  25  26
ATOM     26  C   UNL     1       6.569  -2.276   1.621  0.00  0.00    +0.000 C 
BRANCH  26  27
ATOM     27  O   UNL     1       7.042  -3.382   2.373  0.00  0.00    +0.000 OA
ATOM     28  H   UNL     1       6.718  -3.282   3.285  0.00  0.00    +0.000 HD
ENDBRANCH  26  27
ENDBRANCH  25  26
ENDBRANCH  24  25
ENDBRANCH  22  24
ENDBRANCH  19  21
ENDBRANCH  18  19
ENDBRANCH  12  18
ENDBRANCH   9  15
ENDBRANCH   1   9
BRANCH   1  29
ATOM     29  C   UNL     1       2.598   8.127  -3.115  0.00  0.00    +0.000 C 
BRANCH  29  30
ATOM     30  C   UNL     1       1.591   6.947  -2.970  0.00  0.00    +0.000 C 
ATOM     31  O   UNL     1       1.636   6.072  -3.838  0.00  0.00    +0.000 OA
ATOM     32  N   UNL     1       0.691   6.944  -1.838  0.00  0.00    +0.000 N 
ATOM     33  H   UNL     1       0.733   7.740  -1.200  0.00  0.00    +0.000 HD
BRANCH  32  34
ATOM     34  N   UNL     1      -0.723   6.344  -1.770  0.00  0.00    +0.000 NA
ATOM     35  C   UNL     1      -1.293   6.467  -0.568  0.00  0.00    +0.000 C 
ATOM     36  C   UNL     1      -0.434   6.388   0.657  0.00  0.00    +0.000 C 
ATOM     37  O   UNL     1       0.253   7.357   0.819  0.00  0.00    +0.000 OA
ATOM     38  N   UNL     1      -1.183   5.665   1.604  0.00  0.00    +0.000 N 
ATOM     39  C   UNL     1      -2.451   6.255   1.506  0.00  0.00    +0.000 A 
ATOM     40  C   UNL     1      -3.150   6.462   2.710  0.00  0.00    +0.000 A 
ATOM     41  C   UNL     1      -4.196   7.351   2.747  0.00  0.00    +0.000 A 
ATOM     42  C   UNL     1      -4.454   8.041   1.559  0.00  0.00    +0.000 A 
ATOM     43  C   UNL     1      -3.719   7.781   0.297  0.00  0.00    +0.000 A 
ATOM     44  C   UNL     1      -2.687   6.805   0.224  0.00  0.00    +0.000 A 
ATOM     45  H   UNL     1      -1.355   4.686   1.375  0.00  0.00    +0.000 HD
ENDBRANCH  32  34
ENDBRANCH  29  30
ENDBRANCH   1  29
TORSDOF 13
