REMARK  Name = CHEMBL372516
REMARK  14 active torsions:
REMARK  status: ('A' for Active; 'I' for Inactive)
REMARK    1  A    between atoms: CD1_1  and  CG_2
REMARK    2  A    between atoms: CG_2  and  CD2_3
REMARK    3  A    between atoms: CG_2  and  CB_4
REMARK    4  A    between atoms: CB_4  and  CA_5
REMARK    5  A    between atoms: C_9  and  C_10
REMARK    6  A    between atoms: N_21  and  C_22
REMARK    7  A    between atoms: C_22  and  C_23
REMARK    8  A    between atoms: C_22  and  C_30
REMARK    9  A    between atoms: N_25  and  C_26
REMARK   10  A    between atoms: C_26  and  C_27
REMARK   11  A    between atoms: C_26  and  C_28
REMARK   12  A    between atoms: C_26  and  C_29
REMARK   13  A    between atoms: C_33  and  O_34
REMARK   14  A    between atoms: O_34  and  C_35
REMARK                            x       y       z     vdW  Elec       q    Type
REMARK                         _______ _______ _______ _____ _____    ______ ____
ROOT
ATOM      1  CA  LEU A   2       2.654  -3.330   1.113  0.00  0.00    +0.000 C 
ATOM      2  C   LEU A   2       1.318  -2.867   0.485  0.00  0.00    +0.000 C 
ATOM      3  O   LEU A   2       1.022  -2.625  -0.648  0.00  0.00    +0.000 OA
ATOM      4  N   UNK A   1       0.374  -2.751   1.436  0.00  0.00    +0.000 N 
ATOM      5  C   UNK A   1       0.629  -3.131   2.795  0.00  0.00    +0.000 C 
ATOM      6  C   UNK A   1       1.956  -2.495   3.311  0.00  0.00    +0.000 C 
ATOM      7  O   UNK A   1       2.053  -2.095   4.453  0.00  0.00    +0.000 OA
ATOM      8  N   LEU A   2       2.989  -2.510   2.344  0.00  0.00    +0.000 N 
ATOM      9  H   UNK A   1      -0.499  -2.484   1.008  0.00  0.00    +0.000 HD
ENDROOT
BRANCH   5  10
ATOM     10  C   UNK A   1      -0.506  -2.619   3.666  0.00  0.00    +0.000 C 
ATOM     11  C   UNK A   1      -1.844  -3.200   3.177  0.00  0.00    +0.000 C 
ATOM     12  C   UNK A   1      -2.289  -2.153   2.190  0.00  0.00    +0.000 A 
ATOM     13  C   UNK A   1      -3.111  -2.332   1.091  0.00  0.00    +0.000 A 
ATOM     14  C   UNK A   1      -3.244  -1.276   0.185  0.00  0.00    +0.000 A 
ATOM     15  C   UNK A   1      -2.533  -0.078   0.364  0.00  0.00    +0.000 A 
ATOM     16  C   UNK A   1      -1.674   0.085   1.452  0.00  0.00    +0.000 A 
ATOM     17  C   UNK A   1      -1.577  -0.951   2.370  0.00  0.00    +0.000 A 
ATOM     18  C   UNK A   1      -0.616  -1.072   3.518  0.00  0.00    +0.000 C 
ENDBRANCH   5  10
BRANCH   1  19
ATOM     19  CB  LEU A   2       3.542  -2.992   0.012  0.00  0.00    +0.000 C 
BRANCH  19  21
ATOM     20  CD1 LEU A   2       6.183  -4.221  -1.628  0.00  0.00    +0.000 C 
ATOM     21  CG  LEU A   2       4.982  -4.003  -0.156  0.00  0.00    +0.000 C 
ATOM     22  CD2 LEU A   2       5.583  -4.136   1.350  0.00  0.00    +0.000 C 
ENDBRANCH  19  21
ENDBRANCH   1  19
BRANCH   8  23
ATOM     23  C   UNK A   0       4.215  -1.496   2.445  0.00  0.00    +0.000 C 
BRANCH  23  24
ATOM     24  C   UNK A   0       4.990  -1.697   3.771  0.00  0.00    +0.000 A 
ATOM     25  C   UNK A   0       4.688  -2.703   4.695  0.00  0.00    +0.000 A 
ATOM     26  C   UNK A   0       5.250  -2.705   5.966  0.00  0.00    +0.000 A 
ATOM     27  C   UNK A   0       6.312  -1.858   6.254  0.00  0.00    +0.000 A 
ATOM     28  C   UNK A   0       6.699  -0.914   5.315  0.00  0.00    +0.000 A 
ATOM     29  C   UNK A   0       6.007  -0.802   4.122  0.00  0.00    +0.000 A 
BRANCH  27  30
ATOM     30  O   UNK A   0       6.909  -2.061   7.461  0.00  0.00    +0.000 OA
BRANCH  30  31
ATOM     31  C   UNK A   0       8.089  -1.312   7.688  0.00  0.00    +0.000 C 
ATOM     32  F   UNK A   0       9.017  -1.542   6.731  0.00  0.00    +0.000 F 
ATOM     33  F   UNK A   0       7.815   0.009   7.743  0.00  0.00    +0.000 F 
ATOM     34  F   UNK A   0       8.614  -1.683   8.874  0.00  0.00    +0.000 F 
ENDBRANCH  30  31
ENDBRANCH  27  30
ENDBRANCH  23  24
BRANCH  23  35
ATOM     35  C   UNK A   0       5.407  -1.118   1.244  0.00  0.00    +0.000 C 
ATOM     36  O   UNK A   0       6.506  -0.647   1.511  0.00  0.00    +0.000 OA
ATOM     37  N   UNK A   0       5.154  -1.257  -0.096  0.00  0.00    +0.000 N 
ATOM     38  H   UNK A   0       4.291  -1.269  -0.565  0.00  0.00    +0.000 HD
BRANCH  37  39
ATOM     39  C   UNK A   0       5.962  -1.796  -1.149  0.00  0.00    +0.000 C 
ATOM     40  C   UNK A   0       6.307  -0.535  -1.859  0.00  0.00    +0.000 C 
ATOM     41  C   UNK A   0       7.376  -2.581  -0.282  0.00  0.00    +0.000 C 
ATOM     42  C   UNK A   0       4.694  -2.501  -2.377  0.00  0.00    +0.000 C 
ENDBRANCH  37  39
ENDBRANCH  23  35
ENDBRANCH   8  23
TORSDOF 9
