REMARK  Name = CHEMBL420762
REMARK  7 active torsions:
REMARK  status: ('A' for Active; 'I' for Inactive)
REMARK    1  A    between atoms: C_1  and  C_2
REMARK    2  A    between atoms: C_7  and  C_8
REMARK    3  A    between atoms: N_10  and  C_11
REMARK    4  A    between atoms: C_14  and  C_15
REMARK    5  A    between atoms: C_21  and  N_22
REMARK    6  A    between atoms: N_22  and  C_23
REMARK    7  A    between atoms: N_22  and  C_24
REMARK                            x       y       z     vdW  Elec       q    Type
REMARK                         _______ _______ _______ _____ _____    ______ ____
ROOT
ATOM      1  C   UNL     1       3.223   3.884  -0.006  0.00  0.00    +0.000 A 
ATOM      2  C   UNL     1       2.915   4.969   0.798  0.00  0.00    +0.000 A 
ATOM      3  C   UNL     1       3.616   6.477   0.803  0.00  0.00    +0.000 A 
ATOM      4  C   UNL     1       4.680   7.195   0.026  0.00  0.00    +0.000 A 
ATOM      5  C   UNL     1       5.017   5.700  -0.759  0.00  0.00    +0.000 A 
ATOM      6  C   UNL     1       4.345   4.150  -0.764  0.00  0.00    +0.000 A 
ENDROOT
BRANCH   4   7
ATOM      7  C   UNL     1       5.328   9.120  -0.219  0.00  0.00    +0.000 C 
ATOM      8  O   UNL     1       6.326   8.476  -0.801  0.00  0.00    +0.000 OA
ATOM      9  N   UNL     1       5.803  11.060  -0.005  0.00  0.00    +0.000 N 
ATOM     10  C   UNL     1       6.041  10.212   0.989  0.00  0.00    +0.000 C 
ATOM     11  C   UNL     1       4.986  10.503   1.951  0.00  0.00    +0.000 C 
ATOM     12  C   UNL     1       5.362  11.853   2.170  0.00  0.00    +0.000 C 
ATOM     13  C   UNL     1       4.866  12.918   2.960  0.00  0.00    +0.000 C 
ATOM     14  C   UNL     1       5.578  13.844   2.044  0.00  0.00    +0.000 A 
ATOM     15  C   UNL     1       5.404  15.342   3.012  0.00  0.00    +0.000 A 
ATOM     16  C   UNL     1       5.728  16.626   2.712  0.00  0.00    +0.000 A 
ATOM     17  C   UNL     1       6.321  16.372   1.484  0.00  0.00    +0.000 A 
ATOM     18  C   UNL     1       6.493  14.780   0.549  0.00  0.00    +0.000 A 
ATOM     19  C   UNL     1       6.096  13.033   0.582  0.00  0.00    +0.000 A 
BRANCH  13  20
ATOM     20  N   UNL     1       3.442  13.019   2.772  0.00  0.00    +0.000 NA
ATOM     21  C   UNL     1       2.891  11.752   3.165  0.00  0.00    +0.000 C 
ATOM     22  C   UNL     1       2.896  13.983   3.687  0.00  0.00    +0.000 C 
ENDBRANCH  13  20
ENDBRANCH   4   7
BRANCH   1  25
ATOM     23  C   UNL     1       1.064   2.582   0.021  0.00  0.00    +0.000 C 
ATOM     24  O   UNL     1       0.356   3.588   0.002  0.00  0.00    +0.000 OA
ATOM     25  N   UNL     1       2.474   2.671   0.000  0.00  0.00    +0.000 N 
ATOM     26  H   UNL     1       3.056   1.866  -0.083  0.00  0.00    +0.000 HD
BRANCH  23  33
ATOM     27  C   UNL     1       2.488  -0.104  -0.011  0.00  0.00    +0.000 C 
ATOM     28  C   UNL     1       1.006  -0.005   0.007  0.00  0.00    +0.000 A 
ATOM     29  C   UNL     1       0.272  -1.202   0.007  0.00  0.00    +0.000 A 
ATOM     30  C   UNL     1      -1.116  -1.193   0.001  0.00  0.00    +0.000 A 
ATOM     31  C   UNL     1      -1.792   0.017  -0.010  0.00  0.00    +0.000 A 
ATOM     32  C   UNL     1      -1.069   1.219   0.003  0.00  0.00    +0.000 A 
ATOM     33  C   UNL     1       0.348   1.234   0.011  0.00  0.00    +0.000 A 
ENDBRANCH  23  33
ENDBRANCH   1  25
TORSDOF 4
