REMARK  Name = CHEMBL427190
REMARK  11 active torsions:
REMARK  status: ('A' for Active; 'I' for Inactive)
REMARK    1  A    between atoms: C_1  and  C_2
REMARK    2  A    between atoms: C_2  and  O_3
REMARK    3  A    between atoms: O_3  and  C_4
REMARK    4  A    between atoms: C_7  and  S_8
REMARK    5  A    between atoms: S_8  and  N_11
REMARK    6  A    between atoms: N_11  and  C_12
REMARK    7  A    between atoms: N_11  and  C_29
REMARK    8  A    between atoms: C_12  and  C_13
REMARK    9  A    between atoms: C_24  and  C_25
REMARK   10  A    between atoms: C_25  and  C_26
REMARK   11  A    between atoms: C_32  and  C_33
REMARK                            x       y       z     vdW  Elec       q    Type
REMARK                         _______ _______ _______ _____ _____    ______ ____
ROOT
ATOM      1  N   UNL     1       9.611  -2.014   0.713  0.00  0.00    +0.000 N 
ENDROOT
BRANCH   1   2
ATOM      2  C   UNL     1      11.112  -2.047   0.809  0.00  0.00    +0.000 A 
ATOM      3  C   UNL     1      11.725  -2.243   2.070  0.00  0.00    +0.000 A 
ATOM      4  C   UNL     1      13.114  -2.109   2.271  0.00  0.00    +0.000 A 
ATOM      5  C   UNL     1      13.956  -1.858   1.191  0.00  0.00    +0.000 A 
ATOM      6  C   UNL     1      15.449  -1.933   1.345  0.00  0.00    +0.000 C 
ATOM      7  C   UNL     1      13.371  -1.608  -0.055  0.00  0.00    +0.000 A 
ATOM      8  C   UNL     1      11.968  -1.675  -0.235  0.00  0.00    +0.000 A 
ENDBRANCH   1   2
BRANCH   1   9
ATOM      9  S   UNL     1       8.823  -2.663  -0.705  0.00  0.00    +0.000 S 
ATOM     10  O   UNL     1       9.113  -4.070  -0.682  0.00  0.00    +0.000 OA
ATOM     11  O   UNL     1       9.290  -1.857  -1.841  0.00  0.00    +0.000 OA
BRANCH   9  15
ATOM     12  C   UNL     1       4.185  -1.698  -1.209  0.00  0.00    +0.000 A 
ATOM     13  C   UNL     1       4.862  -2.367  -2.201  0.00  0.00    +0.000 A 
ATOM     14  C   UNL     1       6.263  -2.765  -2.029  0.00  0.00    +0.000 A 
ATOM     15  C   UNL     1       6.974  -2.581  -0.823  0.00  0.00    +0.000 A 
ATOM     16  C   UNL     1       6.143  -2.319   0.222  0.00  0.00    +0.000 A 
ATOM     17  C   UNL     1       4.838  -1.807  -0.032  0.00  0.00    +0.000 A 
BRANCH  12  18
ATOM     18  O   UNL     1       2.882  -1.252  -1.187  0.00  0.00    +0.000 OA
BRANCH  18  20
ATOM     19  C   UNL     1       1.030  -0.019  -0.134  0.00  0.00    +0.000 C 
ATOM     20  C   UNL     1       2.538  -0.097  -0.333  0.00  0.00    +0.000 C 
ENDBRANCH  18  20
ENDBRANCH  12  18
ENDBRANCH   9  15
ENDBRANCH   1   9
BRANCH   1  21
ATOM     21  C   UNL     1       9.007  -1.097   1.714  0.00  0.00    +0.000 C 
BRANCH  21  22
ATOM     22  C   UNL     1       7.671  -0.397   1.447  0.00  0.00    +0.000 C 
ATOM     23  O   UNL     1       7.527   0.051   0.300  0.00  0.00    +0.000 OA
ATOM     24  N   UNL     1       6.621  -0.237   2.395  0.00  0.00    +0.000 N 
ATOM     25  C   UNL     1       5.343   0.140   1.909  0.00  0.00    +0.000 C 
ATOM     26  C   UNL     1       4.338   0.638   2.897  0.00  0.00    +0.000 A 
ATOM     27  C   UNL     1       4.161   1.989   2.971  0.00  0.00    +0.000 A 
ATOM     28  C   UNL     1       3.646   2.484   4.148  0.00  0.00    +0.000 A 
ATOM     29  C   UNL     1       3.040   1.635   5.092  0.00  0.00    +0.000 A 
ATOM     30  C   UNL     1       3.117   0.245   4.970  0.00  0.00    +0.000 A 
ATOM     31  C   UNL     1       3.940  -0.227   3.955  0.00  0.00    +0.000 A 
ATOM     32  C   UNL     1       4.957  -1.408   4.098  0.00  0.00    +0.000 C 
ATOM     33  C   UNL     1       6.490  -0.547   3.850  0.00  0.00    +0.000 C 
BRANCH  33  34
ATOM     34  C   UNL     1       7.927  -0.363   4.342  0.00  0.00    +0.000 C 
BRANCH  34  35
ATOM     35  C   UNL     1       8.516   0.594   5.321  0.00  0.00    +0.000 C 
ATOM     36  N   UNL     1       7.707   1.373   6.036  0.00  0.00    +0.000 N 
ATOM     37  O   UNL     1       9.770   0.730   5.384  0.00  0.00    +0.000 OA
ATOM     38  H   UNL     1       6.750   1.543   5.748  0.00  0.00    +0.000 HD
ATOM     39  H   UNL     1       8.145   2.045   6.654  0.00  0.00    +0.000 HD
ENDBRANCH  34  35
ENDBRANCH  33  34
ENDBRANCH  21  22
ENDBRANCH   1  21
TORSDOF 9
