REMARK  Name = CHEMBL286771
REMARK  6 active torsions:
REMARK  status: ('A' for Active; 'I' for Inactive)
REMARK    1  A    between atoms: C_2  and  C_3
REMARK    2  A    between atoms: C_8  and  C_9
REMARK    3  A    between atoms: C_13  and  C_14
REMARK    4  A    between atoms: C_14  and  N_15
REMARK    5  A    between atoms: C_17  and  C_18
REMARK    6  A    between atoms: C_33  and  N_34
REMARK                            x       y       z     vdW  Elec       q    Type
REMARK                         _______ _______ _______ _____ _____    ______ ____
ROOT
ATOM      1  C   UNL     1       3.091   1.150   0.199  0.00  0.00    +0.000 A 
ATOM      2  C   UNL     1       2.648   2.227   0.996  0.00  0.00    +0.000 A 
ATOM      3  C   UNL     1       3.294   3.487   0.986  0.00  0.00    +0.000 A 
ATOM      4  C   UNL     1       4.383   3.627   0.122  0.00  0.00    +0.000 A 
ATOM      5  O   UNL     1       5.188   4.733  -0.024  0.00  0.00    +0.000 OA
ATOM      6  C   UNL     1       6.108   4.428  -0.994  0.00  0.00    +0.000 A 
ATOM      7  C   UNL     1       5.899   3.146  -1.453  0.00  0.00    +0.000 A 
ATOM      8  C   UNL     1       4.806   2.611  -0.729  0.00  0.00    +0.000 A 
ATOM      9  C   UNL     1       4.142   1.363  -0.706  0.00  0.00    +0.000 A 
ENDROOT
BRANCH   1  11
ATOM     10  O   UNL     1       1.100  -0.069   0.121  0.00  0.00    +0.000 OA
ATOM     11  C   UNL     1       2.327  -0.150   0.171  0.00  0.00    +0.000 C 
ATOM     12  N   UNL     1       3.019  -1.377  -0.010  0.00  0.00    +0.000 N 
ATOM     13  C   UNL     1       3.861  -1.964   1.047  0.00  0.00    +0.000 C 
ATOM     14  C   UNL     1       4.892  -2.921   0.452  0.00  0.00    +0.000 C 
ATOM     15  C   UNL     1       4.079  -4.403  -0.172  0.00  0.00    +0.000 C 
ATOM     16  C   UNL     1       3.313  -3.421  -1.382  0.00  0.00    +0.000 C 
ATOM     17  C   UNL     1       2.332  -2.403  -0.804  0.00  0.00    +0.000 C 
BRANCH  15  18
ATOM     18  N   UNL     1       3.747  -5.734   1.095  0.00  0.00    +0.000 N 
ATOM     19  C   UNL     1       5.171  -5.865   1.045  0.00  0.00    +0.000 C 
ATOM     20  O   UNL     1       6.089  -5.002   1.093  0.00  0.00    +0.000 OA
ATOM     21  O   UNL     1       5.585  -7.037   0.639  0.00  0.00    +0.000 OA
ATOM     22  C   UNL     1       5.850  -7.529   1.890  0.00  0.00    +0.000 C 
ATOM     23  C   UNL     1       4.625  -8.303   1.903  0.00  0.00    +0.000 A 
ATOM     24  C   UNL     1       5.003  -9.739   2.314  0.00  0.00    +0.000 A 
ATOM     25  C   UNL     1       4.142 -10.735   2.622  0.00  0.00    +0.000 A 
ATOM     26  C   UNL     1       2.923 -10.143   2.836  0.00  0.00    +0.000 A 
ATOM     27  C   UNL     1       2.585  -8.540   2.469  0.00  0.00    +0.000 A 
ATOM     28  C   UNL     1       3.441  -7.503   1.650  0.00  0.00    +0.000 A 
ENDBRANCH  15  18
ENDBRANCH   1  11
BRANCH   6  29
ATOM     29  C   UNL     1       7.116   5.417  -1.336  0.00  0.00    +0.000 A 
ATOM     30  C   UNL     1       7.345   5.816  -2.644  0.00  0.00    +0.000 A 
ATOM     31  N   UNL     1       8.361   6.625  -3.044  0.00  0.00    +0.000 NA
ATOM     32  C   UNL     1       9.219   7.047  -2.088  0.00  0.00    +0.000 A 
ATOM     33  C   UNL     1       9.097   6.715  -0.746  0.00  0.00    +0.000 A 
ATOM     34  C   UNL     1       8.006   5.899  -0.388  0.00  0.00    +0.000 A 
BRANCH  33  35
ATOM     35  C   UNL     1      10.134   7.188   0.250  0.00  0.00    +0.000 C 
BRANCH  35  36
ATOM     36  N   UNL     1       9.891   6.689   1.604  0.00  0.00    +0.000 N 
ATOM     37  C   UNL     1       9.430   7.558   2.578  0.00  0.00    +0.000 A 
ATOM     38  C   UNL     1       9.014   7.114   3.776  0.00  0.00    +0.000 A 
ATOM     39  C   UNL     1       9.030   5.687   4.039  0.00  0.00    +0.000 A 
ATOM     40  C   UNL     1       9.479   4.822   3.122  0.00  0.00    +0.000 A 
ATOM     41  C   UNL     1       9.990   5.310   1.817  0.00  0.00    +0.000 A 
ATOM     42  O   UNL     1      10.367   4.492   0.983  0.00  0.00    +0.000 OA
BRANCH  38  43
ATOM     43  C   UNL     1       8.516   8.062   4.823  0.00  0.00    +0.000 C 
ATOM     44  F   UNL     1       9.477   8.956   5.169  0.00  0.00    +0.000 F 
ATOM     45  F   UNL     1       7.452   8.780   4.382  0.00  0.00    +0.000 F 
ATOM     46  F   UNL     1       8.127   7.439   5.964  0.00  0.00    +0.000 F 
ENDBRANCH  38  43
ENDBRANCH  35  36
ENDBRANCH  33  35
ENDBRANCH   6  29
TORSDOF 6
