REMARK  Name = CHEMBL1091817
REMARK  7 active torsions:
REMARK  status: ('A' for Active; 'I' for Inactive)
REMARK    1  A    between atoms: C_1  and  O_2
REMARK    2  A    between atoms: O_2  and  C_3
REMARK    3  A    between atoms: C_6  and  N_7
REMARK    4  A    between atoms: C_8  and  C_9
REMARK    5  A    between atoms: C_15  and  O_16
REMARK    6  A    between atoms: O_16  and  C_17
REMARK    7  A    between atoms: C_24  and  C_25
REMARK                            x       y       z     vdW  Elec       q    Type
REMARK                         _______ _______ _______ _____ _____    ______ ____
ROOT
ATOM      1  N   UNL     1       5.222  -4.410  -1.933  0.00  0.00    +0.000 N 
ATOM      2  C   UNL     1       5.535  -5.640  -1.348  0.00  0.00    +0.000 A 
ATOM      3  C   UNL     1       4.997  -6.230  -0.078  0.00  0.00    +0.000 C 
ATOM      4  N   UNL     1       6.292  -6.319  -2.189  0.00  0.00    +0.000 NA
ATOM      5  N   UNL     1       6.433  -5.589  -3.353  0.00  0.00    +0.000 NA
ATOM      6  C   UNL     1       5.790  -4.459  -3.222  0.00  0.00    +0.000 A 
ATOM      7  N   UNL     1       5.639  -3.399  -4.091  0.00  0.00    +0.000 N 
ATOM      8  C   UNL     1       5.782  -3.339  -5.515  0.00  0.00    +0.000 C 
ATOM      9  C   UNL     1       6.859  -2.230  -5.376  0.00  0.00    +0.000 C 
ATOM     10  C   UNL     1       6.338  -2.160  -3.918  0.00  0.00    +0.000 C 
ENDROOT
BRANCH   1  14
ATOM     11  C   UNL     1       3.125  -1.088  -0.533  0.00  0.00    +0.000 A 
ATOM     12  C   UNL     1       2.795  -1.601  -1.776  0.00  0.00    +0.000 A 
ATOM     13  C   UNL     1       3.464  -2.740  -2.223  0.00  0.00    +0.000 A 
ATOM     14  C   UNL     1       4.449  -3.336  -1.425  0.00  0.00    +0.000 A 
ATOM     15  C   UNL     1       4.747  -2.729  -0.217  0.00  0.00    +0.000 A 
ATOM     16  N   UNL     1       4.106  -1.617   0.237  0.00  0.00    +0.000 NA
BRANCH  11  18
ATOM     17  C   UNL     1       1.128   0.033  -0.033  0.00  0.00    +0.000 C 
ATOM     18  O   UNL     1       2.555   0.059  -0.043  0.00  0.00    +0.000 OA
ENDBRANCH  11  18
ENDBRANCH   1  14
BRANCH   9  19
ATOM     19  O   UNL     1       8.239  -2.622  -5.674  0.00  0.00    +0.000 OA
BRANCH  19  20
ATOM     20  C   UNL     1       9.211  -1.638  -5.772  0.00  0.00    +0.000 A 
ATOM     21  C   UNL     1       9.900  -1.493  -6.986  0.00  0.00    +0.000 A 
ATOM     22  C   UNL     1      10.978  -0.599  -7.074  0.00  0.00    +0.000 A 
ATOM     23  F   UNL     1      11.634  -0.457  -8.235  0.00  0.00    +0.000 F 
ATOM     24  C   UNL     1      11.395   0.146  -5.985  0.00  0.00    +0.000 A 
ATOM     25  C   UNL     1      10.720  -0.010  -4.790  0.00  0.00    +0.000 A 
ATOM     26  F   UNL     1      11.115   0.705  -3.728  0.00  0.00    +0.000 F 
ATOM     27  C   UNL     1       9.645  -0.897  -4.663  0.00  0.00    +0.000 A 
ATOM     28  C   UNL     1       9.006  -0.988  -3.327  0.00  0.00    +0.000 C 
ENDBRANCH  19  20
ENDBRANCH   9  19
TORSDOF 4
