REMARK  Name = CHEMBL482321
REMARK  8 active torsions:
REMARK  status: ('A' for Active; 'I' for Inactive)
REMARK    1  A    between atoms: C_1  and  O_2
REMARK    2  A    between atoms: O_2  and  C_3
REMARK    3  A    between atoms: C_8  and  C_9
REMARK    4  A    between atoms: C_12  and  C_13
REMARK    5  A    between atoms: N_15  and  C_16
REMARK    6  A    between atoms: N_15  and  C_23
REMARK    7  A    between atoms: C_16  and  C_17
REMARK    8  A    between atoms: C_23  and  C_24
REMARK                            x       y       z     vdW  Elec       q    Type
REMARK                         _______ _______ _______ _____ _____    ______ ____
ROOT
ATOM      1  C   UNL     1      -2.318  -4.080  -1.834  0.00  0.00    +0.000 C 
ATOM      2  O   UNL     1      -3.225  -4.758  -1.426  0.00  0.00    +0.000 OA
ATOM      3  N   UNL     1      -2.267  -3.571  -3.204  0.00  0.00    +0.000 N 
ENDROOT
BRANCH   1   7
ATOM      4  C   UNL     1       1.206  -2.840   0.489  0.00  0.00    +0.000 A 
ATOM      5  C   UNL     1       0.383  -3.784   1.062  0.00  0.00    +0.000 A 
ATOM      6  C   UNL     1      -0.787  -4.302   0.352  0.00  0.00    +0.000 A 
ATOM      7  C   UNL     1      -1.244  -3.723  -0.842  0.00  0.00    +0.000 A 
ATOM      8  C   UNL     1      -0.662  -2.559  -1.096  0.00  0.00    +0.000 A 
ATOM      9  C   UNL     1       0.600  -2.346  -0.611  0.00  0.00    +0.000 A 
BRANCH   4  15
ATOM     10  C   UNL     1       3.020  -0.985   0.882  0.00  0.00    +0.000 A 
ATOM     11  C   UNL     1       4.324  -0.670   1.339  0.00  0.00    +0.000 A 
ATOM     12  C   UNL     1       5.229  -1.663   1.699  0.00  0.00    +0.000 A 
ATOM     13  C   UNL     1       4.847  -2.989   1.582  0.00  0.00    +0.000 A 
ATOM     14  C   UNL     1       3.555  -3.315   1.141  0.00  0.00    +0.000 A 
ATOM     15  C   UNL     1       2.563  -2.341   0.873  0.00  0.00    +0.000 A 
BRANCH  10  17
ATOM     16  C   UNL     1       1.047   0.349   0.382  0.00  0.00    +0.000 C 
ATOM     17  O   UNL     1       2.440   0.139   0.336  0.00  0.00    +0.000 OA
ENDBRANCH  10  17
ENDBRANCH   4  15
ENDBRANCH   1   7
BRANCH   3  18
ATOM     18  C   UNL     1      -1.249  -2.733  -3.901  0.00  0.00    +0.000 C 
BRANCH  18  19
ATOM     19  C   UNL     1       0.232  -2.434  -3.728  0.00  0.00    +0.000 A 
ATOM     20  C   UNL     1       1.088  -3.496  -3.461  0.00  0.00    +0.000 A 
ATOM     21  C   UNL     1       2.286  -3.222  -2.800  0.00  0.00    +0.000 A 
ATOM     22  C   UNL     1       2.740  -1.891  -2.606  0.00  0.00    +0.000 A 
ATOM     23  C   UNL     1       1.919  -0.803  -2.985  0.00  0.00    +0.000 A 
ATOM     24  C   UNL     1       0.669  -1.074  -3.564  0.00  0.00    +0.000 A 
ENDBRANCH  18  19
ENDBRANCH   3  18
BRANCH   3  25
ATOM     25  C   UNL     1      -3.597  -3.681  -3.945  0.00  0.00    +0.000 C 
BRANCH  25  26
ATOM     26  C   UNL     1      -3.847  -3.071  -5.412  0.00  0.00    +0.000 C 
ATOM     27  C   UNL     1      -2.730  -2.342  -6.125  0.00  0.00    +0.000 C 
ATOM     28  C   UNL     1      -3.254  -1.175  -6.866  0.00  0.00    +0.000 C 
ATOM     29  C   UNL     1      -4.515  -0.899  -6.087  0.00  0.00    +0.000 C 
ATOM     30  O   UNL     1      -4.929  -2.106  -5.414  0.00  0.00    +0.000 OA
ENDBRANCH  25  26
ENDBRANCH   3  25
TORSDOF 7
