REMARK  Name = CHEMBL4217872
REMARK  10 active torsions:
REMARK  status: ('A' for Active; 'I' for Inactive)
REMARK    1  A    between atoms: C_1  and  C_2
REMARK    2  A    between atoms: C_4  and  C_5
REMARK    3  A    between atoms: N_12  and  C_13
REMARK    4  A    between atoms: C_24  and  C_25
REMARK    5  A    between atoms: C_25  and  N_26
REMARK    6  A    between atoms: N_29  and  C_30
REMARK    7  A    between atoms: C_30  and  C_31
REMARK    8  A    between atoms: C_31  and  N_33
REMARK    9  A    between atoms: N_33  and  C_34
REMARK   10  A    between atoms: N_33  and  C_35
REMARK                            x       y       z     vdW  Elec       q    Type
REMARK                         _______ _______ _______ _____ _____    ______ ____
ROOT
ATOM      1  C   UNL     1       2.463  -0.313  -0.007  0.00  0.00    +0.000 C 
ATOM      2  C   UNL     1       0.980  -0.085  -0.015  0.00  0.00    +0.000 A 
ATOM      3  C   UNL     1       0.160  -1.241  -0.055  0.00  0.00    +0.000 A 
ATOM      4  C   UNL     1      -1.245  -1.161  -0.096  0.00  0.00    +0.000 A 
ATOM      5  C   UNL     1      -1.815   0.097  -0.024  0.00  0.00    +0.000 A 
ATOM      6  C   UNL     1      -1.023   1.251  -0.000  0.00  0.00    +0.000 A 
ATOM      7  C   UNL     1       0.390   1.201  -0.003  0.00  0.00    +0.000 A 
ENDROOT
BRANCH   4   8
ATOM      8  C   UNL     1      -2.075  -2.411  -0.104  0.00  0.00    +0.000 C 
ATOM      9  O   UNL     1      -1.427  -3.459  -0.075  0.00  0.00    +0.000 OA
ATOM     10  N   UNL     1      -3.491  -2.307   0.034  0.00  0.00    +0.000 N 
ATOM     11  C   UNL     1      -4.337  -1.630  -1.007  0.00  0.00    +0.000 C 
ATOM     12  C   UNL     1      -5.264  -0.579  -0.459  0.00  0.00    +0.000 A 
ATOM     13  C   UNL     1      -5.685   0.687  -0.974  0.00  0.00    +0.000 A 
ATOM     14  N   UNL     1      -6.563   1.324  -0.180  0.00  0.00    +0.000 NA
ATOM     15  N   UNL     1      -6.728   0.469   0.844  0.00  0.00    +0.000 N 
ATOM     16  C   UNL     1      -7.618   0.753   1.951  0.00  0.00    +0.000 C 
ATOM     17  C   UNL     1      -5.954  -0.658   0.723  0.00  0.00    +0.000 A 
ATOM     18  N   UNL     1      -5.983  -1.589   1.680  0.00  0.00    +0.000 N 
ATOM     19  C   UNL     1      -5.240  -2.773   1.792  0.00  0.00    +0.000 A 
ATOM     20  C   UNL     1      -5.643  -3.580   2.889  0.00  0.00    +0.000 A 
ATOM     21  C   UNL     1      -5.050  -4.797   3.177  0.00  0.00    +0.000 A 
ATOM     22  C   UNL     1      -4.046  -5.249   2.349  0.00  0.00    +0.000 A 
ATOM     23  C   UNL     1      -3.609  -4.456   1.282  0.00  0.00    +0.000 A 
ATOM     24  C   UNL     1      -4.155  -3.189   0.987  0.00  0.00    +0.000 A 
ATOM     25  H   UNL     1      -6.641  -1.485   2.443  0.00  0.00    +0.000 HD
ENDBRANCH   4   8
BRANCH   7  26
ATOM     26  C   UNL     1       1.113   2.557   0.004  0.00  0.00    +0.000 C 
BRANCH  26  27
ATOM     27  N   UNL     1       2.565   2.557   0.031  0.00  0.00    +0.000 N 
ATOM     28  C   UNL     1       3.398   3.625   0.006  0.00  0.00    +0.000 C 
ATOM     29  O   UNL     1       3.031   4.796  -0.006  0.00  0.00    +0.000 OA
ATOM     30  N   UNL     1       4.717   3.231   0.001  0.00  0.00    +0.000 N 
ATOM     31  H   UNL     1       3.068   1.709  -0.061  0.00  0.00    +0.000 HD
ATOM     32  H   UNL     1       4.982   2.254   0.020  0.00  0.00    +0.000 HD
BRANCH  30  33
ATOM     33  C   UNL     1       5.806   4.191  -0.001  0.00  0.00    +0.000 C 
BRANCH  33  34
ATOM     34  C   UNL     1       7.251   3.609   0.006  0.00  0.00    +0.000 C 
ATOM     35  S   UNL     1       7.439   1.923   0.015  0.00  0.00    +0.000 S 
BRANCH  34  36
ATOM     36  N   UNL     1       8.324   4.521   0.003  0.00  0.00    +0.000 N 
ATOM     37  C   UNL     1       8.145   5.977  -0.005  0.00  0.00    +0.000 C 
ATOM     38  C   UNL     1       9.732   4.096   0.009  0.00  0.00    +0.000 C 
ENDBRANCH  34  36
ENDBRANCH  33  34
ENDBRANCH  30  33
ENDBRANCH  26  27
ENDBRANCH   7  26
TORSDOF 6
