REMARK  Name = CHEMBL68752
REMARK  9 active torsions:
REMARK  status: ('A' for Active; 'I' for Inactive)
REMARK    1  A    between atoms: C_1  and  O_2
REMARK    2  A    between atoms: O_2  and  C_3
REMARK    3  A    between atoms: C_5  and  O_6
REMARK    4  A    between atoms: O_6  and  C_7
REMARK    5  A    between atoms: N_10  and  C_11
REMARK    6  A    between atoms: C_11  and  C_12
REMARK    7  A    between atoms: C_14  and  C_15
REMARK    8  A    between atoms: C_24  and  C_25
REMARK    9  A    between atoms: C_30  and  N_31
REMARK                            x       y       z     vdW  Elec       q    Type
REMARK                         _______ _______ _______ _____ _____    ______ ____
ROOT
ATOM      1  C   UNL     1       3.091  -0.860   0.387  0.00  0.00    +0.000 A 
ATOM      2  C   UNL     1       4.277  -0.834   1.231  0.00  0.00    +0.000 A 
ATOM      3  C   UNL     1       4.995  -1.961   1.465  0.00  0.00    +0.000 A 
ATOM      4  C   UNL     1       4.395  -3.016   0.889  0.00  0.00    +0.000 A 
ATOM      5  C   UNL     1       3.325  -3.103  -0.035  0.00  0.00    +0.000 A 
ATOM      6  C   UNL     1       2.570  -2.006  -0.291  0.00  0.00    +0.000 A 
ENDROOT
BRANCH   6   7
ATOM      7  C   UNL     1       1.279  -2.311  -1.123  0.00  0.00    +0.000 C 
ATOM      8  O   UNL     1       0.965  -3.493  -1.311  0.00  0.00    +0.000 OA
ATOM      9  N   UNL     1       0.476  -1.239  -1.647  0.00  0.00    +0.000 N 
ATOM     10  C   UNL     1      -0.868  -0.915  -1.028  0.00  0.00    +0.000 C 
ATOM     11  C   UNL     1      -1.730   0.004  -1.911  0.00  0.00    +0.000 C 
ATOM     12  C   UNL     1      -0.979   1.611  -2.340  0.00  0.00    +0.000 C 
ATOM     13  C   UNL     1       0.355   0.804  -3.156  0.00  0.00    +0.000 C 
ATOM     14  C   UNL     1       1.199  -0.117  -2.255  0.00  0.00    +0.000 C 
BRANCH  12  15
ATOM     15  N   UNL     1      -1.624   3.323  -1.931  0.00  0.00    +0.000 N 
ATOM     16  C   UNL     1      -2.842   2.596  -1.645  0.00  0.00    +0.000 C 
ATOM     17  O   UNL     1      -3.503   1.963  -2.349  0.00  0.00    +0.000 OA
ATOM     18  O   UNL     1      -2.999   2.503  -0.294  0.00  0.00    +0.000 OA
ATOM     19  C   UNL     1      -3.784   3.615  -0.153  0.00  0.00    +0.000 C 
ATOM     20  C   UNL     1      -2.664   4.456   0.333  0.00  0.00    +0.000 A 
ATOM     21  C   UNL     1      -3.058   5.130   1.605  0.00  0.00    +0.000 A 
ATOM     22  C   UNL     1      -3.030   6.467   1.883  0.00  0.00    +0.000 A 
ATOM     23  C   UNL     1      -2.610   7.140   0.765  0.00  0.00    +0.000 A 
ATOM     24  C   UNL     1      -2.064   6.327  -0.569  0.00  0.00    +0.000 A 
ATOM     25  C   UNL     1      -1.819   4.741  -0.750  0.00  0.00    +0.000 A 
ENDBRANCH  12  15
ENDBRANCH   6   7
BRANCH   1  27
ATOM     26  C   UNL     1       1.208   0.371   0.705  0.00  0.00    +0.000 C 
ATOM     27  O   UNL     1       2.569   0.409   0.387  0.00  0.00    +0.000 OA
ENDBRANCH   1  27
BRANCH   3  28
ATOM     28  O   UNL     1       6.128  -2.226   2.195  0.00  0.00    +0.000 OA
BRANCH  28  29
ATOM     29  C   UNL     1       7.179  -3.128   1.589  0.00  0.00    +0.000 C 
ATOM     30  C   UNL     1       7.144  -3.156   0.046  0.00  0.00    +0.000 C 
ATOM     31  C   UNL     1       6.290  -4.315  -0.575  0.00  0.00    +0.000 C 
ATOM     32  N   UNL     1       6.314  -5.640   0.074  0.00  0.00    +0.000 NA
ATOM     33  C   UNL     1       6.624  -5.690   1.500  0.00  0.00    +0.000 C 
ATOM     34  C   UNL     1       7.509  -4.593   2.049  0.00  0.00    +0.000 C 
BRANCH  32  35
ATOM     35  C   UNL     1       5.081  -6.461  -0.215  0.00  0.00    +0.000 C 
BRANCH  35  36
ATOM     36  C   UNL     1       3.758  -6.272   0.594  0.00  0.00    +0.000 A 
ATOM     37  C   UNL     1       3.541  -5.498   1.756  0.00  0.00    +0.000 A 
ATOM     38  C   UNL     1       2.323  -4.998   2.204  0.00  0.00    +0.000 A 
ATOM     39  C   UNL     1       2.291  -3.787   3.109  0.00  0.00    +0.000 C 
ATOM     40  C   UNL     1       1.225  -5.655   1.730  0.00  0.00    +0.000 A 
ATOM     41  N   UNL     1       1.351  -6.649   0.764  0.00  0.00    +0.000 N 
ATOM     42  O   UNL     1       0.346  -7.362   0.460  0.00  0.00    +0.000 OA
ATOM     43  C   UNL     1       2.592  -6.877   0.145  0.00  0.00    +0.000 A 
ENDBRANCH  35  36
ENDBRANCH  32  35
ENDBRANCH  28  29
ENDBRANCH   3  28
TORSDOF 7
