REMARK  Name = CHEMBL3307200
REMARK  6 active torsions:
REMARK  status: ('A' for Active; 'I' for Inactive)
REMARK    1  A    between atoms: C_1  and  C_2
REMARK    2  A    between atoms: C_6  and  C_7
REMARK    3  A    between atoms: N_9  and  C_10
REMARK    4  A    between atoms: C_13  and  C_14
REMARK    5  A    between atoms: C_23  and  C_24
REMARK    6  A    between atoms: C_29  and  N_30
REMARK                            x       y       z     vdW  Elec       q    Type
REMARK                         _______ _______ _______ _____ _____    ______ ____
ROOT
ATOM      1  C   UNL     1       1.924 -10.279  -0.464  0.00  0.00    +0.000 C 
ATOM      2  O   UNL     1       3.167 -10.024   0.035  0.00  0.00    +0.000 OA
ATOM      3  N   UNL     1       1.428 -12.188  -0.603  0.00  0.00    +0.000 N 
ATOM      4  C   UNL     1       2.624 -11.698  -1.156  0.00  0.00    +0.000 C 
ATOM      5  C   UNL     1       1.802 -11.693  -2.301  0.00  0.00    +0.000 C 
ATOM      6  C   UNL     1       2.310 -13.048  -2.542  0.00  0.00    +0.000 C 
ATOM      7  F   UNL     1       3.506 -13.360  -2.984  0.00  0.00    +0.000 F 
ATOM      8  F   UNL     1       2.665 -13.714  -1.070  0.00  0.00    +0.000 F 
ATOM      9  C   UNL     1       1.053 -13.341  -3.424  0.00  0.00    +0.000 C 
ATOM     10  C   UNL     1      -0.128 -12.901  -3.920  0.00  0.00    +0.000 C 
ATOM     11  C   UNL     1       0.854 -14.598  -3.023  0.00  0.00    +0.000 A 
ATOM     12  C   UNL     1       0.795 -15.668  -4.462  0.00  0.00    +0.000 A 
ATOM     13  C   UNL     1       0.635 -17.015  -4.528  0.00  0.00    +0.000 A 
ATOM     14  C   UNL     1       0.861 -17.223  -3.187  0.00  0.00    +0.000 A 
ATOM     15  C   UNL     1       1.006 -15.893  -1.844  0.00  0.00    +0.000 A 
ATOM     16  C   UNL     1       0.839 -14.075  -1.428  0.00  0.00    +0.000 A 
ENDROOT
BRANCH  10  17
ATOM     17  C   UNL     1      -0.421 -11.468  -3.770  0.00  0.00    +0.000 C 
ATOM     18  O   UNL     1       0.127 -10.550  -3.176  0.00  0.00    +0.000 OA
ATOM     19  N   UNL     1      -1.337 -10.928  -4.514  0.00  0.00    +0.000 N 
ATOM     20  C   UNL     1      -0.974  -9.578  -4.901  0.00  0.00    +0.000 C 
ATOM     21  C   UNL     1      -1.849  -8.518  -4.290  0.00  0.00    +0.000 C 
ATOM     22  C   UNL     1      -3.334  -8.884  -4.394  0.00  0.00    +0.000 C 
ATOM     23  C   UNL     1      -3.566 -10.285  -3.790  0.00  0.00    +0.000 C 
ATOM     24  C   UNL     1      -2.669 -11.363  -4.362  0.00  0.00    +0.000 C 
BRANCH  22  25
ATOM     25  N   UNL     1      -3.862  -8.797  -5.781  0.00  0.00    +0.000 NA
ATOM     26  C   UNL     1      -3.658  -7.458  -6.328  0.00  0.00    +0.000 C 
ATOM     27  C   UNL     1      -4.169  -7.405  -7.758  0.00  0.00    +0.000 C 
ATOM     28  C   UNL     1      -3.485  -8.423  -8.669  0.00  0.00    +0.000 C 
ATOM     29  C   UNL     1      -3.627  -9.799  -8.100  0.00  0.00    +0.000 C 
ATOM     30  C   UNL     1      -3.207  -9.712  -6.692  0.00  0.00    +0.000 C 
ENDBRANCH  22  25
ENDBRANCH  10  17
BRANCH   1  34
ATOM     31  C   UNL     1       1.875  -4.582  -0.012  0.00  0.00    +0.000 A 
ATOM     32  C   UNL     1       2.851  -5.272   0.674  0.00  0.00    +0.000 A 
ATOM     33  C   UNL     1       3.035  -6.975   0.467  0.00  0.00    +0.000 A 
ATOM     34  C   UNL     1       2.090  -8.239  -0.309  0.00  0.00    +0.000 A 
ATOM     35  C   UNL     1       1.409  -7.155  -1.009  0.00  0.00    +0.000 A 
ATOM     36  C   UNL     1       1.248  -5.497  -0.859  0.00  0.00    +0.000 A 
BRANCH  31  39
ATOM     37  C   UNL     1       0.189  -2.716  -0.019  0.00  0.00    +0.000 C 
ATOM     38  O   UNL     1      -0.754  -3.507  -0.020  0.00  0.00    +0.000 OA
ATOM     39  N   UNL     1       1.532  -3.165   0.020  0.00  0.00    +0.000 N 
ATOM     40  H   UNL     1       2.280  -2.485   0.080  0.00  0.00    +0.000 HD
BRANCH  37  46
ATOM     41  C   UNL     1       2.186  -0.040   0.000  0.00  0.00    +0.000 C 
ATOM     42  C   UNL     1       0.720  -0.172  -0.001  0.00  0.00    +0.000 A 
ATOM     43  O   UNL     1       0.010   1.000   0.002  0.00  0.00    +0.000 OA
ATOM     44  C   UNL     1      -1.304   0.672   0.006  0.00  0.00    +0.000 A 
ATOM     45  C   UNL     1      -1.441  -0.693  -0.003  0.00  0.00    +0.000 A 
ATOM     46  C   UNL     1      -0.121  -1.271  -0.009  0.00  0.00    +0.000 A 
ENDBRANCH  37  46
ENDBRANCH  31  39
ENDBRANCH   1  34
TORSDOF 5
