REMARK  Name = CHEMBL514975
REMARK  6 active torsions:
REMARK  status: ('A' for Active; 'I' for Inactive)
REMARK    1  A    between atoms: C_2  and  C_3
REMARK    2  A    between atoms: C_6  and  C_7
REMARK    3  A    between atoms: N_16  and  C_17
REMARK    4  A    between atoms: N_16  and  C_21
REMARK    5  A    between atoms: C_17  and  C_18
REMARK    6  A    between atoms: C_21  and  C_22
REMARK                            x       y       z     vdW  Elec       q    Type
REMARK                         _______ _______ _______ _____ _____    ______ ____
ROOT
ATOM      1  O   UNL     1       1.226   0.131   0.570  0.00  0.00    +0.000 OA
ATOM      2  C   UNL     1       2.377  -0.048   0.155  0.00  0.00    +0.000 C 
ATOM      3  N   UNL     1       2.980  -1.303  -0.034  0.00  0.00    +0.000 N 
ENDROOT
BRANCH   2   4
ATOM      4  C   UNL     1       3.111   1.207  -0.086  0.00  0.00    +0.000 A 
ATOM      5  C   UNL     1       4.163   1.353  -0.986  0.00  0.00    +0.000 A 
ATOM      6  C   UNL     1       4.934   2.504  -0.938  0.00  0.00    +0.000 A 
ATOM      7  C   UNL     1       4.532   3.597  -0.152  0.00  0.00    +0.000 A 
ATOM      8  C   UNL     1       3.379   3.495   0.628  0.00  0.00    +0.000 A 
ATOM      9  C   UNL     1       2.687   2.301   0.676  0.00  0.00    +0.000 A 
BRANCH   7  10
ATOM     10  C   UNL     1       5.301   4.834  -0.192  0.00  0.00    +0.000 A 
ATOM     11  C   UNL     1       5.506   5.448  -1.444  0.00  0.00    +0.000 A 
ATOM     12  C   UNL     1       6.333   6.558  -1.566  0.00  0.00    +0.000 A 
ATOM     13  C   UNL     1       6.898   7.122  -0.427  0.00  0.00    +0.000 A 
ATOM     14  C   UNL     1       6.666   6.558   0.828  0.00  0.00    +0.000 A 
ATOM     15  C   UNL     1       5.880   5.414   0.949  0.00  0.00    +0.000 A 
ATOM     16 CL   UNL     1       5.693   4.749   2.538  0.00  0.00    +0.000 Cl
ENDBRANCH   7  10
ENDBRANCH   2   4
BRANCH   3  17
ATOM     17  C   UNL     1       2.185  -2.521   0.103  0.00  0.00    +0.000 C 
BRANCH  17  18
ATOM     18  C   UNL     1       0.703  -2.390  -0.001  0.00  0.00    +0.000 C 
ATOM     19  C   UNL     1       0.023  -1.485  -1.011  0.00  0.00    +0.000 C 
ATOM     20  C   UNL     1      -0.040  -2.962  -1.182  0.00  0.00    +0.000 C 
ENDBRANCH  17  18
ENDBRANCH   3  17
BRANCH   3  21
ATOM     21  C   UNL     1       4.434  -1.449   0.140  0.00  0.00    +0.000 C 
BRANCH  21  22
ATOM     22  C   UNL     1       5.136  -2.826   0.172  0.00  0.00    +0.000 C 
ATOM     23  C   UNL     1       5.593  -3.209  -1.225  0.00  0.00    +0.000 C 
ATOM     24  C   UNL     1       5.824  -4.686  -1.093  0.00  0.00    +0.000 C 
ATOM     25  C   UNL     1       4.737  -5.103  -0.126  0.00  0.00    +0.000 C 
ATOM     26  O   UNL     1       4.422  -3.956   0.683  0.00  0.00    +0.000 OA
ENDBRANCH  21  22
ENDBRANCH   3  21
TORSDOF 6
