REMARK  Name = CHEMBL30550
REMARK  7 active torsions:
REMARK  status: ('A' for Active; 'I' for Inactive)
REMARK    1  A    between atoms: C_2  and  C_3
REMARK    2  A    between atoms: C_3  and  N_4
REMARK    3  A    between atoms: C_6  and  C_7
REMARK    4  A    between atoms: N_15  and  C_16
REMARK    5  A    between atoms: C_16  and  C_17
REMARK    6  A    between atoms: C_22  and  C_23
REMARK    7  A    between atoms: C_28  and  N_29
REMARK                            x       y       z     vdW  Elec       q    Type
REMARK                         _______ _______ _______ _____ _____    ______ ____
ROOT
ATOM      1  C   UNL     1       5.456  -0.194   2.867  0.00  0.00    +0.000 A 
ATOM      2  C   UNL     1       6.741  -0.735   2.872  0.00  0.00    +0.000 A 
ATOM      3  C   UNL     1       7.020  -0.930   4.254  0.00  0.00    +0.000 A 
ATOM      4  C   UNL     1       6.436  -1.700   5.304  0.00  0.00    +0.000 A 
ATOM      5  C   UNL     1       6.645  -1.370   6.683  0.00  0.00    +0.000 A 
ATOM      6  C   UNL     1       7.465  -0.301   7.066  0.00  0.00    +0.000 A 
ATOM      7  C   UNL     1       7.747   0.593   6.005  0.00  0.00    +0.000 A 
ATOM      8  C   UNL     1       7.099   0.388   4.689  0.00  0.00    +0.000 A 
ATOM      9  O   UNL     1       5.597   0.682   4.110  0.00  0.00    +0.000 OA
ENDROOT
BRANCH   6  10
ATOM     10  C   UNL     1       8.039  -0.297   8.524  0.00  0.00    +0.000 C 
ATOM     11  O   UNL     1       7.508  -1.065   9.335  0.00  0.00    +0.000 OA
ATOM     12  N   UNL     1       9.177   0.467   8.927  0.00  0.00    +0.000 N 
ATOM     13  C   UNL     1      10.328  -0.187   9.591  0.00  0.00    +0.000 C 
ATOM     14  C   UNL     1      10.899   0.551  10.803  0.00  0.00    +0.000 C 
ATOM     15  C   UNL     1      11.639   2.020  10.244  0.00  0.00    +0.000 C 
ATOM     16  C   UNL     1      10.048   2.628   9.834  0.00  0.00    +0.000 C 
ATOM     17  C   UNL     1       9.357   1.893   8.673  0.00  0.00    +0.000 C 
BRANCH  15  18
ATOM     18  N   UNL     1      13.373   1.787   9.612  0.00  0.00    +0.000 N 
ATOM     19  C   UNL     1      13.663   1.810  11.034  0.00  0.00    +0.000 C 
ATOM     20  O   UNL     1      13.185   1.081  11.938  0.00  0.00    +0.000 OA
ATOM     21  O   UNL     1      14.374   2.845  11.467  0.00  0.00    +0.000 OA
ATOM     22  C   UNL     1      15.604   2.229  11.392  0.00  0.00    +0.000 C 
ATOM     23  C   UNL     1      15.858   2.834  10.096  0.00  0.00    +0.000 A 
ATOM     24  C   UNL     1      16.619   4.025   9.902  0.00  0.00    +0.000 A 
ATOM     25  C   UNL     1      17.303   4.350   8.740  0.00  0.00    +0.000 A 
ATOM     26  C   UNL     1      17.372   3.296   7.878  0.00  0.00    +0.000 A 
ATOM     27  C   UNL     1      16.272   2.200   8.071  0.00  0.00    +0.000 A 
ATOM     28  C   UNL     1      15.061   2.356   9.090  0.00  0.00    +0.000 A 
ENDBRANCH  15  18
ENDBRANCH   6  10
BRANCH   1  29
ATOM     29  C   UNL     1       4.621   0.020   1.523  0.00  0.00    +0.000 C 
BRANCH  29  32
ATOM     30  O   UNL     1       1.174  -0.052   0.268  0.00  0.00    +0.000 OA
ATOM     31  C   UNL     1       2.408  -0.011   0.191  0.00  0.00    +0.000 C 
ATOM     32  N   UNL     1       3.160  -0.090   1.377  0.00  0.00    +0.000 N 
ATOM     33  H   UNL     1       2.574  -0.168   2.199  0.00  0.00    +0.000 HD
BRANCH  31  34
ATOM     34  C   UNL     1       3.097   0.081  -1.200  0.00  0.00    +0.000 C 
BRANCH  34  35
ATOM     35  N   UNL     1       2.152   0.181  -2.346  0.00  0.00    +0.000 N 
ATOM     36  C   UNL     1       1.639  -0.972  -2.938  0.00  0.00    +0.000 A 
ATOM     37  C   UNL     1       0.968  -0.932  -4.107  0.00  0.00    +0.000 A 
ATOM     38  C   UNL     1       0.613   0.359  -4.668  0.00  0.00    +0.000 A 
ATOM     39  C   UNL     1       0.936   1.488  -4.027  0.00  0.00    +0.000 A 
ATOM     40  C   UNL     1       1.854   1.447  -2.852  0.00  0.00    +0.000 A 
ATOM     41  O   UNL     1       2.324   2.497  -2.424  0.00  0.00    +0.000 OA
BRANCH  37  42
ATOM     42  C   UNL     1       0.552  -2.156  -4.873  0.00  0.00    +0.000 C 
ATOM     43  F   UNL     1      -0.789  -2.217  -5.068  0.00  0.00    +0.000 F 
ATOM     44  F   UNL     1       1.126  -2.183  -6.106  0.00  0.00    +0.000 F 
ATOM     45  F   UNL     1       0.917  -3.308  -4.253  0.00  0.00    +0.000 F 
ENDBRANCH  37  42
ENDBRANCH  34  35
ENDBRANCH  31  34
ENDBRANCH  29  32
ENDBRANCH   1  29
TORSDOF 7
