REMARK  Name = CHEMBL287101
REMARK  7 active torsions:
REMARK  status: ('A' for Active; 'I' for Inactive)
REMARK    1  A    between atoms: C_2  and  C_3
REMARK    2  A    between atoms: C_3  and  N_4
REMARK    3  A    between atoms: C_6  and  C_7
REMARK    4  A    between atoms: N_15  and  C_16
REMARK    5  A    between atoms: C_16  and  C_17
REMARK    6  A    between atoms: C_21  and  C_22
REMARK    7  A    between atoms: C_27  and  N_28
REMARK                            x       y       z     vdW  Elec       q    Type
REMARK                         _______ _______ _______ _____ _____    ______ ____
ROOT
ATOM      1  C   UNL     1       5.294   2.822   0.413  0.00  0.00    +0.000 A 
ATOM      2  C   UNL     1       6.591   2.765   0.910  0.00  0.00    +0.000 A 
ATOM      3  C   UNL     1       6.883   4.098   1.284  0.00  0.00    +0.000 A 
ATOM      4  C   UNL     1       6.258   5.005   2.192  0.00  0.00    +0.000 A 
ATOM      5  C   UNL     1       6.379   6.411   2.131  0.00  0.00    +0.000 A 
ATOM      6  C   UNL     1       7.195   6.898   1.132  0.00  0.00    +0.000 A 
ATOM      7  F   UNL     1       7.746   8.128   1.190  0.00  0.00    +0.000 F 
ATOM      8  C   UNL     1       7.503   6.036   0.048  0.00  0.00    +0.000 A 
ATOM      9  C   UNL     1       6.889   4.718   0.040  0.00  0.00    +0.000 A 
ATOM     10  O   UNL     1       5.376   4.179  -0.261  0.00  0.00    +0.000 OA
ENDROOT
BRANCH   5  11
ATOM     11  C   UNL     1       5.495   7.321   2.934  0.00  0.00    +0.000 C 
ATOM     12  O   UNL     1       5.634   8.539   2.848  0.00  0.00    +0.000 OA
ATOM     13  N   UNL     1       4.414   6.731   3.626  0.00  0.00    +0.000 N 
ATOM     14  C   UNL     1       3.033   7.110   3.312  0.00  0.00    +0.000 C 
ATOM     15  C   UNL     1       2.194   7.357   4.557  0.00  0.00    +0.000 C 
ATOM     16  C   UNL     1       1.884   5.823   5.306  0.00  0.00    +0.000 C 
ATOM     17  C   UNL     1       3.618   5.735   5.732  0.00  0.00    +0.000 C 
ATOM     18  C   UNL     1       4.546   5.602   4.544  0.00  0.00    +0.000 C 
BRANCH  16  19
ATOM     19  N   UNL     1       0.379   4.972   4.582  0.00  0.00    +0.000 N 
ATOM     20  C   UNL     1      -0.303   5.834   5.501  0.00  0.00    +0.000 C 
ATOM     21  O   UNL     1      -0.261   7.093   5.543  0.00  0.00    +0.000 OA
ATOM     22  O   UNL     1      -0.846   5.221   6.547  0.00  0.00    +0.000 OA
ATOM     23  C   UNL     1      -2.069   4.984   5.962  0.00  0.00    +0.000 C 
ATOM     24  C   UNL     1      -1.743   3.621   5.568  0.00  0.00    +0.000 A 
ATOM     25  C   UNL     1      -1.733   2.339   6.134  0.00  0.00    +0.000 A 
ATOM     26  C   UNL     1      -2.091   1.181   5.396  0.00  0.00    +0.000 A 
ATOM     27  C   UNL     1      -2.580   1.449   4.164  0.00  0.00    +0.000 A 
ATOM     28  C   UNL     1      -2.041   2.793   3.676  0.00  0.00    +0.000 A 
ATOM     29  C   UNL     1      -0.917   3.634   4.529  0.00  0.00    +0.000 A 
ENDBRANCH  16  19
ENDBRANCH   5  11
BRANCH   1  30
ATOM     30  C   UNL     1       4.464   1.517   0.080  0.00  0.00    +0.000 C 
BRANCH  30  33
ATOM     31  O   UNL     1       1.066   0.329   0.400  0.00  0.00    +0.000 OA
ATOM     32  C   UNL     1       2.259   0.212   0.102  0.00  0.00    +0.000 C 
ATOM     33  N   UNL     1       3.017   1.382   0.165  0.00  0.00    +0.000 N 
ATOM     34  H   UNL     1       2.431   2.180   0.382  0.00  0.00    +0.000 HD
BRANCH  32  35
ATOM     35  C   UNL     1       2.890  -1.194  -0.256  0.00  0.00    +0.000 C 
BRANCH  35  36
ATOM     36  N   UNL     1       1.932  -2.338  -0.411  0.00  0.00    +0.000 N 
ATOM     37  C   UNL     1       2.371  -3.659  -0.209  0.00  0.00    +0.000 A 
ATOM     38  C   UNL     1       1.658  -4.721  -0.645  0.00  0.00    +0.000 A 
ATOM     39  C   UNL     1       0.321  -4.504  -1.165  0.00  0.00    +0.000 A 
ATOM     40  C   UNL     1      -0.179  -3.269  -1.237  0.00  0.00    +0.000 A 
ATOM     41  C   UNL     1       0.734  -2.111  -1.102  0.00  0.00    +0.000 A 
ATOM     42  O   UNL     1       0.392  -1.068  -1.645  0.00  0.00    +0.000 OA
BRANCH  38  43
ATOM     43  C   UNL     1       2.124  -6.150  -0.602  0.00  0.00    +0.000 C 
ATOM     44  F   UNL     1       1.301  -6.935   0.139  0.00  0.00    +0.000 F 
ATOM     45  F   UNL     1       2.168  -6.696  -1.846  0.00  0.00    +0.000 F 
ATOM     46  F   UNL     1       3.369  -6.274  -0.077  0.00  0.00    +0.000 F 
ENDBRANCH  38  43
ENDBRANCH  35  36
ENDBRANCH  32  35
ENDBRANCH  30  33
ENDBRANCH   1  30
TORSDOF 7
