REMARK  Name = CHEMBL4467042
REMARK  28 active torsions:
REMARK  status: ('A' for Active; 'I' for Inactive)
REMARK    1  A    between atoms: C_1  and  C_2
REMARK    2  A    between atoms: C_2  and  C_3
REMARK    3  A    between atoms: C_3  and  C_4
REMARK    4  A    between atoms: C_3  and  C_5
REMARK    5  A    between atoms: C_9  and  C_10
REMARK    6  A    between atoms: C_10  and  C_11
REMARK    7  A    between atoms: C_14  and  O_15
REMARK    8  A    between atoms: C_21  and  N_22
REMARK    9  A    between atoms: C_27  and  C_28
REMARK   10  A    between atoms: N_30  and  C_31
REMARK   11  A    between atoms: N_30  and  C_35
REMARK   12  A    between atoms: C_31  and  C_32
REMARK   13  A    between atoms: C_32  and  C_33
REMARK   14  A    between atoms: C_33  and  O_34
REMARK   15  A    between atoms: C_35  and  C_36
REMARK   16  A    between atoms: N_38  and  C_39
REMARK   17  A    between atoms: C_39  and  C_40
REMARK   18  A    between atoms: C_39  and  C_44
REMARK   19  A    between atoms: C_40  and  C_41
REMARK   20  A    between atoms: C_41  and  C_42
REMARK   21  A    between atoms: C_41  and  C_43
REMARK   22  A    between atoms: N_46  and  C_47
REMARK   23  A    between atoms: C_47  and  C_48
REMARK   24  A    between atoms: C_54  and  C_55
REMARK   25  A    between atoms: C_55  and  C_56
REMARK   26  A    between atoms: C_62  and  C_63
REMARK   27  A    between atoms: C_63  and  C_64
REMARK   28  A    between atoms: C_64  and  C_65
REMARK                            x       y       z     vdW  Elec       q    Type
REMARK                         _______ _______ _______ _____ _____    ______ ____
ROOT
ATOM      1  C   UNL     1       4.695  -4.630   1.247  0.00  0.00    +0.000 C 
ATOM      2  N   UNL     1       4.981  -6.724   1.308  0.00  0.00    +0.000 N 
ATOM      3  C   UNL     1       5.347  -8.644   1.521  0.00  0.00    +0.000 C 
ATOM      4  O   UNL     1       5.898  -9.362   2.521  0.00  0.00    +0.000 OA
ATOM      5  C   UNL     1       4.537 -10.390   0.749  0.00  0.00    +0.000 C 
ATOM      6  N   UNL     1       3.067 -11.111   0.947  0.00  0.00    +0.000 N 
ATOM      7  C   UNL     1       2.085 -10.654   1.780  0.00  0.00    +0.000 C 
ATOM      8  O   UNL     1       0.930 -11.066   1.770  0.00  0.00    +0.000 OA
ATOM      9  C   UNL     1       2.412  -9.546   2.721  0.00  0.00    +0.000 C 
ATOM     10  C   UNL     1       2.098  -8.199   2.193  0.00  0.00    +0.000 C 
ATOM     11  C   UNL     1       0.698  -8.305   2.634  0.00  0.00    +0.000 C 
ATOM     12  S   UNL     1      -0.263  -7.152   1.909  0.00  0.00    +0.000 S 
ATOM     13  C   UNL     1      -1.712  -6.669   2.868  0.00  0.00    +0.000 C 
ATOM     14  C   UNL     1      -2.270  -5.192   2.324  0.00  0.00    +0.000 C 
ATOM     15  N   UNL     1      -1.570  -4.063   2.890  0.00  0.00    +0.000 N 
ATOM     16  C   UNL     1      -0.256  -3.780   2.754  0.00  0.00    +0.000 C 
ATOM     17  O   UNL     1       0.169  -2.997   3.599  0.00  0.00    +0.000 OA
ATOM     18  C   UNL     1       0.600  -4.691   1.837  0.00  0.00    +0.000 C 
ATOM     19  N   UNL     1       1.233  -4.551   0.636  0.00  0.00    +0.000 N 
ATOM     20  C   UNL     1       2.433  -4.124   0.922  0.00  0.00    +0.000 C 
ATOM     21  O   UNL     1       2.913  -4.151  -0.258  0.00  0.00    +0.000 OA
ATOM     22  C   UNL     1       2.797  -3.015   2.606  0.00  0.00    +0.000 C 
ATOM     23  N   UNL     1       4.209  -3.067   3.137  0.00  0.00    +0.000 N 
ATOM     24  C   UNL     1       5.249  -3.411   2.281  0.00  0.00    +0.000 C 
ATOM     25  O   UNL     1       6.161  -2.598   2.071  0.00  0.00    +0.000 OA
ATOM     26  H   UNL     1       5.834  -7.188   1.983  0.00  0.00    +0.000 HD
ATOM     27  H   UNL     1       2.687 -11.940   0.412  0.00  0.00    +0.000 HD
ATOM     28  H   UNL     1      -2.063  -3.467   3.545  0.00  0.00    +0.000 HD
ATOM     29  H   UNL     1       0.945  -4.255  -0.314  0.00  0.00    +0.000 HD
ATOM     30  H   UNL     1       4.264  -3.830   3.748  0.00  0.00    +0.000 HD
ENDROOT
BRANCH   9  31
ATOM     31  N   UNL     1       3.727  -9.270   2.684  0.00  0.00    +0.000 NA
ATOM     32  H   UNL     1       3.700  -9.079   1.682  0.00  0.00    +0.000 HD
ATOM     33  H   UNL     1       4.260 -10.123   2.818  0.00  0.00    +0.000 HD
ENDBRANCH   9  31
BRANCH  14  34
ATOM     34  C   UNL     1      -3.776  -5.125   2.591  0.00  0.00    +0.000 C 
ATOM     35  O   UNL     1      -4.206  -4.299   3.396  0.00  0.00    +0.000 OA
ATOM     36  N   UNL     1      -4.598  -6.011   1.899  0.00  0.00    +0.000 N 
BRANCH  36  37
ATOM     37  C   UNL     1      -6.083  -6.003   2.212  0.00  0.00    +0.000 C 
BRANCH  37  38
ATOM     38  C   UNL     1      -7.032  -6.767   1.184  0.00  0.00    +0.000 C 
ATOM     39  O   UNL     1      -6.581  -7.259   0.143  0.00  0.00    +0.000 OA
ATOM     40  N   UNL     1      -8.270  -7.234   1.632  0.00  0.00    +0.000 N 
ATOM     41  H   UNL     1      -8.751  -6.806   2.415  0.00  0.00    +0.000 HD
BRANCH  40  42
ATOM     42  C   UNL     1      -8.944  -8.432   1.007  0.00  0.00    +0.000 C 
BRANCH  42  43
ATOM     43  C   UNL     1     -10.446  -8.433   1.409  0.00  0.00    +0.000 C 
ATOM     44  O   UNL     1     -10.871  -7.620   2.229  0.00  0.00    +0.000 OA
ATOM     45  N   UNL     1     -11.268  -9.379   0.827  0.00  0.00    +0.000 N 
ATOM     46  H   UNL     1     -10.897 -10.040   0.169  0.00  0.00    +0.000 HD
BRANCH  45  47
ATOM     47  C   UNL     1     -12.700  -9.453   1.129  0.00  0.00    +0.000 C 
BRANCH  47  48
ATOM     48  C   UNL     1     -13.466 -10.560   0.378  0.00  0.00    +0.000 C 
ATOM     49  N   UNL     1     -12.755 -11.362  -0.481  0.00  0.00    +0.000 N 
ATOM     50  O   UNL     1     -14.673 -10.737   0.531  0.00  0.00    +0.000 OA
ATOM     51  H   UNL     1     -11.773 -11.298  -0.674  0.00  0.00    +0.000 HD
ATOM     52  H   UNL     1     -13.243 -12.094  -0.984  0.00  0.00    +0.000 HD
ENDBRANCH  47  48
ENDBRANCH  45  47
ENDBRANCH  42  43
BRANCH  42  53
ATOM     53  C   UNL     1      -8.342  -9.822   1.384  0.00  0.00    +0.000 C 
BRANCH  53  54
ATOM     54  C   UNL     1      -6.874  -9.977   1.048  0.00  0.00    +0.000 C 
ATOM     55  C   UNL     1      -6.061  -9.201   2.019  0.00  0.00    +0.000 C 
ATOM     56  C   UNL     1      -6.264 -11.305   1.341  0.00  0.00    +0.000 C 
ENDBRANCH  53  54
ENDBRANCH  42  53
ENDBRANCH  40  42
ENDBRANCH  37  38
ENDBRANCH  36  37
BRANCH  36  57
ATOM     57  C   UNL     1      -4.104  -6.983   0.903  0.00  0.00    +0.000 C 
BRANCH  57  58
ATOM     58  C   UNL     1      -2.781  -6.849   0.272  0.00  0.00    +0.000 C 
BRANCH  58  59
ATOM     59  C   UNL     1      -2.163  -8.001  -0.428  0.00  0.00    +0.000 C 
BRANCH  59  60
ATOM     60  O   UNL     1      -0.766  -7.801  -0.636  0.00  0.00    +0.000 OA
ATOM     61  H   UNL     1      -0.575  -6.851  -0.742  0.00  0.00    +0.000 HD
ENDBRANCH  59  60
ENDBRANCH  58  59
ENDBRANCH  57  58
ENDBRANCH  36  57
ENDBRANCH  14  34
BRANCH   1  62
ATOM     62  C   UNL     1       4.092  -2.582   0.524  0.00  0.00    +0.000 C 
ATOM     63  C   UNL     1       3.257  -0.774   0.040  0.00  0.00    +0.000 C 
BRANCH  62  65
ATOM     64  C   UNL     1       0.875  -2.035   0.967  0.00  0.00    +0.000 C 
ATOM     65  C   UNL     1       2.281  -2.100   0.219  0.00  0.00    +0.000 C 
ENDBRANCH  62  65
ENDBRANCH   1  62
BRANCH  18  66
ATOM     66  C   UNL     1       1.666  -5.442   2.694  0.00  0.00    +0.000 C 
BRANCH  66  67
ATOM     67  C   UNL     1       1.271  -5.879   4.079  0.00  0.00    +0.000 C 
ATOM     68  N   UNL     1       0.032  -5.563   4.510  0.00  0.00    +0.000 N 
ATOM     69  O   UNL     1       1.998  -6.556   4.789  0.00  0.00    +0.000 OA
ATOM     70  H   UNL     1      -0.665  -5.183   3.903  0.00  0.00    +0.000 HD
ATOM     71  H   UNL     1      -0.423  -5.979   5.296  0.00  0.00    +0.000 HD
ENDBRANCH  66  67
ENDBRANCH  18  66
BRANCH   5  72
ATOM     72  C   UNL     1       4.639  -9.657  -0.446  0.00  0.00    +0.000 C 
BRANCH  72  73
ATOM     73  C   UNL     1       6.155  -9.625  -0.510  0.00  0.00    +0.000 A 
ATOM     74  C   UNL     1       7.101 -10.552   0.067  0.00  0.00    +0.000 A 
ATOM     75  C   UNL     1       8.460 -10.291  -0.001  0.00  0.00    +0.000 A 
ATOM     76  C   UNL     1       8.850  -9.092  -0.572  0.00  0.00    +0.000 A 
ATOM     77  C   UNL     1       7.923  -8.125  -0.944  0.00  0.00    +0.000 A 
ATOM     78  C   UNL     1       6.583  -8.374  -0.881  0.00  0.00    +0.000 A 
BRANCH  76  79
ATOM     79  O   UNL     1      10.147  -8.775  -0.825  0.00  0.00    +0.000 OA
ATOM     80  H   UNL     1      10.731  -9.505  -0.572  0.00  0.00    +0.000 HD
ENDBRANCH  76  79
ENDBRANCH  72  73
ENDBRANCH   5  72
BRANCH  22  81
ATOM     81  C   UNL     1       2.341  -1.269   3.066  0.00  0.00    +0.000 C 
BRANCH  81  82
ATOM     82  C   UNL     1       3.321  -0.100   3.054  0.00  0.00    +0.000 C 
BRANCH  82  83
ATOM     83  C   UNL     1       2.637   1.245   3.322  0.00  0.00    +0.000 C 
ATOM     84  N   UNL     1       1.277   1.271   3.517  0.00  0.00    +0.000 N 
ATOM     85  O   UNL     1       3.284   2.290   3.324  0.00  0.00    +0.000 OA
ATOM     86  H   UNL     1       0.663   0.468   3.499  0.00  0.00    +0.000 HD
ATOM     87  H   UNL     1       0.823   2.147   3.732  0.00  0.00    +0.000 HD
ENDBRANCH  82  83
ENDBRANCH  81  82
ENDBRANCH  22  81
TORSDOF 24
