REMARK  Name = CHEMBL197822
REMARK  14 active torsions:
REMARK  status: ('A' for Active; 'I' for Inactive)
REMARK    1  A    between atoms: C_1  and  O_2
REMARK    2  A    between atoms: O_2  and  C_3
REMARK    3  A    between atoms: C_6  and  C_7
REMARK    4  A    between atoms: C_7  and  C_8
REMARK    5  A    between atoms: C_7  and  N_15
REMARK    6  A    between atoms: N_10  and  C_11
REMARK    7  A    between atoms: C_11  and  C_12
REMARK    8  A    between atoms: C_11  and  C_13
REMARK    9  A    between atoms: C_11  and  C_14
REMARK   10  A    between atoms: C_18  and  C_19
REMARK   11  A    between atoms: CA_31  and  CB_32
REMARK   12  A    between atoms: CB_32  and  CG_33
REMARK   13  A    between atoms: CG_33  and  CD1_34
REMARK   14  A    between atoms: CG_33  and  CD2_35
REMARK                            x       y       z     vdW  Elec       q    Type
REMARK                         _______ _______ _______ _____ _____    ______ ____
ROOT
ATOM      1  N   LEU A   1       4.791  -5.752  -1.333  0.00  0.00    +0.000 N 
ATOM      2  C   UNK A   2       4.827  -5.332  -2.662  0.00  0.00    +0.000 C 
ATOM      3  O   UNK A   2       5.468  -4.353  -2.930  0.00  0.00    +0.000 OA
ATOM      4  C   UNK A   2       3.896  -6.142  -3.695  0.00  0.00    +0.000 C 
ATOM      5  N   UNK A   2       4.255  -7.523  -3.497  0.00  0.00    +0.000 N 
ATOM      6  C   LEU A   1       4.408  -8.037  -2.256  0.00  0.00    +0.000 C 
ATOM      7  O   LEU A   1       4.666  -9.243  -2.185  0.00  0.00    +0.000 OA
ATOM      8  CA  LEU A   1       4.182  -7.067  -1.056  0.00  0.00    +0.000 C 
ATOM      9  H   UNK A   2       4.420  -8.189  -4.243  0.00  0.00    +0.000 HD
ENDROOT
BRANCH   4  10
ATOM     10  C   UNK A   2       4.229  -5.701  -5.117  0.00  0.00    +0.000 C 
ATOM     11  C   UNK A   2       4.250  -4.228  -5.210  0.00  0.00    +0.000 C 
ATOM     12  C   UNK A   2       4.678  -4.168  -6.652  0.00  0.00    +0.000 A 
ATOM     13  C   UNK A   2       5.531  -4.958  -7.502  0.00  0.00    +0.000 A 
ATOM     14  C   UNK A   2       5.561  -4.686  -8.871  0.00  0.00    +0.000 A 
ATOM     15  C   UNK A   2       4.770  -3.651  -9.233  0.00  0.00    +0.000 A 
ATOM     16  C   UNK A   2       3.703  -3.440  -8.336  0.00  0.00    +0.000 A 
ATOM     17  C   UNK A   2       3.470  -4.241  -7.202  0.00  0.00    +0.000 A 
ATOM     18  C   UNK A   2       3.272  -5.818  -6.474  0.00  0.00    +0.000 C 
ENDBRANCH   4  10
BRANCH   1  19
ATOM     19  C   UNK A   0       5.302  -4.754  -0.286  0.00  0.00    +0.000 C 
BRANCH  19  23
ATOM     20  C   UNK A   0       3.094  -1.052   0.010  0.00  0.00    +0.000 A 
ATOM     21  C   UNK A   0       4.264  -1.236   0.735  0.00  0.00    +0.000 A 
ATOM     22  C   UNK A   0       5.052  -2.353   0.494  0.00  0.00    +0.000 A 
ATOM     23  C   UNK A   0       4.590  -3.393  -0.332  0.00  0.00    +0.000 A 
ATOM     24  C   UNK A   0       3.398  -3.198  -1.032  0.00  0.00    +0.000 A 
ATOM     25  C   UNK A   0       2.685  -2.017  -0.903  0.00  0.00    +0.000 A 
BRANCH  20  27
ATOM     26  C   UNK A   0       1.051   0.089   0.073  0.00  0.00    +0.000 C 
ATOM     27  O   UNK A   0       2.466   0.146   0.185  0.00  0.00    +0.000 OA
ENDBRANCH  20  27
ENDBRANCH  19  23
BRANCH  19  28
ATOM     28  C   UNK A   0       5.107  -5.158   1.212  0.00  0.00    +0.000 C 
ATOM     29  O   UNK A   0       4.078  -5.752   1.530  0.00  0.00    +0.000 OA
ATOM     30  N   UNK A   0       6.021  -4.773   2.175  0.00  0.00    +0.000 N 
ATOM     31  H   UNK A   0       6.605  -3.961   2.027  0.00  0.00    +0.000 HD
BRANCH  30  32
ATOM     32  C   UNK A   0       6.009  -5.356   3.530  0.00  0.00    +0.000 C 
ATOM     33  C   UNK A   0       4.590  -5.531   4.119  0.00  0.00    +0.000 C 
ATOM     34  C   UNK A   0       6.768  -6.690   3.468  0.00  0.00    +0.000 C 
ATOM     35  C   UNK A   0       6.747  -4.418   4.495  0.00  0.00    +0.000 C 
ENDBRANCH  30  32
ENDBRANCH  19  28
ENDBRANCH   1  19
BRANCH   8  36
ATOM     36  CB  LEU A   1       4.800  -7.818   0.125  0.00  0.00    +0.000 C 
BRANCH  36  37
ATOM     37  CG  LEU A   1       3.675  -8.469   0.954  0.00  0.00    +0.000 C 
ATOM     38  CD1 LEU A   1       3.191  -9.683   0.173  0.00  0.00    +0.000 C 
ATOM     39  CD2 LEU A   1       4.159  -8.933   2.314  0.00  0.00    +0.000 C 
ENDBRANCH  36  37
ENDBRANCH   8  36
TORSDOF 8
