REMARK  Name = CHEMBL25067
REMARK  12 active torsions:
REMARK  status: ('A' for Active; 'I' for Inactive)
REMARK    1  A    between atoms: C_1  and  C_2
REMARK    2  A    between atoms: C_2  and  C_4
REMARK    3  A    between atoms: C_4  and  C_5
REMARK    4  A    between atoms: C_5  and  C_6
REMARK    5  A    between atoms: C_6  and  C_7
REMARK    6  A    between atoms: N_9  and  C_10
REMARK    7  A    between atoms: C_12  and  C_13
REMARK    8  A    between atoms: N_25  and  C_26
REMARK    9  A    between atoms: C_26  and  C_27
REMARK   10  A    between atoms: N_29  and  C_30
REMARK   11  A    between atoms: C_30  and  C_31
REMARK   12  A    between atoms: C_31  and  C_32
REMARK                            x       y       z     vdW  Elec       q    Type
REMARK                         _______ _______ _______ _____ _____    ______ ____
ROOT
ATOM      1  C   UNL     1       9.315   0.124   2.898  0.00  0.00    +0.000 C 
ATOM      2  N   UNL     1       9.893  -1.036   3.583  0.00  0.00    +0.000 NA
ATOM      3  C   UNL     1      11.141  -1.312   3.369  0.00  0.00    +0.000 C 
ATOM      4  C   UNL     1      12.061  -0.529   2.480  0.00  0.00    +0.000 A 
ATOM      5  C   UNL     1      13.041  -1.237   1.756  0.00  0.00    +0.000 A 
ATOM      6  C   UNL     1      13.988  -0.567   0.981  0.00  0.00    +0.000 A 
ATOM      7  C   UNL     1      13.920   0.812   0.855  0.00  0.00    +0.000 A 
ATOM      8  C   UNL     1      12.911   1.516   1.507  0.00  0.00    +0.000 A 
ATOM      9  C   UNL     1      12.033   0.876   2.403  0.00  0.00    +0.000 A 
ATOM     10  N   UNL     1      11.251   1.687   3.285  0.00  0.00    +0.000 N 
ATOM     11  C   UNL     1       9.903   1.418   3.543  0.00  0.00    +0.000 C 
ATOM     12  O   UNL     1       9.216   2.187   4.228  0.00  0.00    +0.000 OA
ENDROOT
BRANCH   3  13
ATOM     13  C   UNL     1      11.716  -2.501   4.077  0.00  0.00    +0.000 A 
ATOM     14  C   UNL     1      11.164  -3.775   3.905  0.00  0.00    +0.000 A 
ATOM     15  C   UNL     1      11.660  -4.851   4.652  0.00  0.00    +0.000 A 
ATOM     16  C   UNL     1      12.759  -4.672   5.494  0.00  0.00    +0.000 A 
ATOM     17  C   UNL     1      13.373  -3.423   5.581  0.00  0.00    +0.000 A 
ATOM     18  C   UNL     1      12.825  -2.327   4.913  0.00  0.00    +0.000 A 
ENDBRANCH   3  13
BRANCH   1  21
ATOM     19  C   UNL     1       7.018   0.117   2.013  0.00  0.00    +0.000 C 
ATOM     20  O   UNL     1       7.426   0.129   0.853  0.00  0.00    +0.000 OA
ATOM     21  N   UNL     1       7.873   0.071   3.085  0.00  0.00    +0.000 N 
ATOM     22  H   UNL     1       7.542   0.219   4.028  0.00  0.00    +0.000 HD
BRANCH  19  23
ATOM     23  C   UNL     1       5.527   0.140   2.346  0.00  0.00    +0.000 C 
BRANCH  23  24
ATOM     24  C   UNL     1       4.698   0.089   1.055  0.00  0.00    +0.000 C 
BRANCH  24  25
ATOM     25  C   UNL     1       3.186   0.098   1.276  0.00  0.00    +0.000 C 
BRANCH  25  27
ATOM     26  C   UNL     1       0.935   0.043   0.004  0.00  0.00    +0.000 C 
ATOM     27  C   UNL     1       2.439   0.041  -0.053  0.00  0.00    +0.000 C 
ATOM     28  O   UNL     1       3.017  -0.005  -1.139  0.00  0.00    +0.000 OA
ENDBRANCH  25  27
ENDBRANCH  24  25
ENDBRANCH  23  24
ENDBRANCH  19  23
ENDBRANCH   1  21
BRANCH  10  29
ATOM     29  C   UNL     1      11.852   2.871   3.946  0.00  0.00    +0.000 C 
BRANCH  29  30
ATOM     30  C   UNL     1      13.380   3.025   3.930  0.00  0.00    +0.000 C 
ATOM     31  O   UNL     1      14.146   2.064   3.783  0.00  0.00    +0.000 OA
ATOM     32  N   UNL     1      13.895   4.300   4.115  0.00  0.00    +0.000 N 
ATOM     33  H   UNL     1      13.429   4.902   4.784  0.00  0.00    +0.000 HD
BRANCH  32  34
ATOM     34  C   UNL     1      15.331   4.377   3.962  0.00  0.00    +0.000 C 
BRANCH  34  35
ATOM     35  C   UNL     1      16.048   5.541   4.616  0.00  0.00    +0.000 C 
BRANCH  35  36
ATOM     36  C   UNL     1      17.534   5.602   4.292  0.00  0.00    +0.000 A 
ATOM     37  C   UNL     1      18.091   6.893   4.184  0.00  0.00    +0.000 A 
ATOM     38  C   UNL     1      19.394   7.082   3.717  0.00  0.00    +0.000 A 
ATOM     39  C   UNL     1      20.209   5.987   3.464  0.00  0.00    +0.000 A 
ATOM     40  C   UNL     1      19.732   4.709   3.710  0.00  0.00    +0.000 A 
ATOM     41  C   UNL     1      18.402   4.505   4.086  0.00  0.00    +0.000 A 
ATOM     42 CL   UNL     1      17.998   2.830   4.236  0.00  0.00    +0.000 Cl
ENDBRANCH  35  36
ENDBRANCH  34  35
ENDBRANCH  32  34
ENDBRANCH  29  30
ENDBRANCH  10  29
TORSDOF 11
