REMARK  Name = CHEMBL467546
REMARK  10 active torsions:
REMARK  status: ('A' for Active; 'I' for Inactive)
REMARK    1  A    between atoms: C_1  and  C_2
REMARK    2  A    between atoms: C_2  and  S_3
REMARK    3  A    between atoms: S_3  and  C_4
REMARK    4  A    between atoms: C_7  and  C_8
REMARK    5  A    between atoms: C_11  and  C_12
REMARK    6  A    between atoms: C_15  and  C_16
REMARK    7  A    between atoms: N_17  and  C_18
REMARK    8  A    between atoms: C_21  and  O_22
REMARK    9  A    between atoms: O_22  and  C_23
REMARK   10  A    between atoms: C_28  and  C_29
REMARK                            x       y       z     vdW  Elec       q    Type
REMARK                         _______ _______ _______ _____ _____    ______ ____
ROOT
ATOM      1  C   UNL     1       9.341   1.444  -0.912  0.00  0.00    +0.000 A 
ATOM      2  C   UNL     1      10.086   0.906  -1.964  0.00  0.00    +0.000 A 
ATOM      3  N   UNL     1      11.450   0.864  -1.992  0.00  0.00    +0.000 NA
ATOM      4  C   UNL     1      12.080   1.379  -0.905  0.00  0.00    +0.000 A 
ATOM      5  C   UNL     1      11.348   1.923   0.143  0.00  0.00    +0.000 A 
ATOM      6  N   UNL     1       9.981   1.987   0.156  0.00  0.00    +0.000 NA
ENDROOT
BRANCH   1  10
ATOM      7  C   UNL     1       4.988   1.386  -0.861  0.00  0.00    +0.000 A 
ATOM      8  C   UNL     1       5.706   2.585  -0.834  0.00  0.00    +0.000 A 
ATOM      9  C   UNL     1       7.114   2.590  -0.825  0.00  0.00    +0.000 A 
ATOM     10  C   UNL     1       7.860   1.397  -0.874  0.00  0.00    +0.000 A 
ATOM     11  C   UNL     1       7.130   0.183  -0.909  0.00  0.00    +0.000 A 
ATOM     12  C   UNL     1       7.800  -1.167  -0.951  0.00  0.00    +0.000 C 
ATOM     13  C   UNL     1       5.711   0.194  -0.907  0.00  0.00    +0.000 A 
BRANCH   7  14
ATOM     14  S   UNL     1       3.202   1.475  -0.948  0.00  0.00    +0.000 S 
BRANCH  14  16
ATOM     15  C   UNL     1       1.115   0.015   0.063  0.00  0.00    +0.000 C 
ATOM     16  C   UNL     1       2.639   0.039   0.039  0.00  0.00    +0.000 C 
ENDBRANCH  14  16
ENDBRANCH   7  14
ENDBRANCH   1  10
BRANCH   4  17
ATOM     17  C   UNL     1      13.542   1.435  -0.962  0.00  0.00    +0.000 A 
ATOM     18  N   UNL     1      14.410   0.962  -0.081  0.00  0.00    +0.000 NA
ATOM     19  N   UNL     1      15.691   1.200  -0.548  0.00  0.00    +0.000 NA
ATOM     20  C   UNL     1      15.596   1.830  -1.704  0.00  0.00    +0.000 A 
ATOM     21  C   UNL     1      16.697   2.420  -2.516  0.00  0.00    +0.000 C 
ATOM     22  N   UNL     1      14.261   1.985  -2.005  0.00  0.00    +0.000 N 
BRANCH  22  23
ATOM     23  C   UNL     1      13.753   2.652  -3.123  0.00  0.00    +0.000 A 
ATOM     24  C   UNL     1      12.958   3.778  -2.974  0.00  0.00    +0.000 A 
ATOM     25  C   UNL     1      12.446   4.365  -4.123  0.00  0.00    +0.000 A 
ATOM     26  C   UNL     1      12.749   3.806  -5.363  0.00  0.00    +0.000 A 
ATOM     27  N   UNL     1      13.545   2.724  -5.505  0.00  0.00    +0.000 NA
ATOM     28  C   UNL     1      14.032   2.160  -4.384  0.00  0.00    +0.000 A 
BRANCH  26  29
ATOM     29  O   UNL     1      12.283   4.272  -6.559  0.00  0.00    +0.000 OA
ATOM     30  C   UNL     1      11.445   5.415  -6.500  0.00  0.00    +0.000 C 
ENDBRANCH  26  29
ENDBRANCH  22  23
ENDBRANCH   4  17
TORSDOF 6
