REMARK  Name = CHEMBL198622
REMARK  11 active torsions:
REMARK  status: ('A' for Active; 'I' for Inactive)
REMARK    1  A    between atoms: C_1  and  C_2
REMARK    2  A    between atoms: C_2  and  O_3
REMARK    3  A    between atoms: O_3  and  C_4
REMARK    4  A    between atoms: C_7  and  S_8
REMARK    5  A    between atoms: S_8  and  N_11
REMARK    6  A    between atoms: N_11  and  C_12
REMARK    7  A    between atoms: N_11  and  C_28
REMARK    8  A    between atoms: C_12  and  C_13
REMARK    9  A    between atoms: C_24  and  C_25
REMARK   10  A    between atoms: C_31  and  O_32
REMARK   11  A    between atoms: O_32  and  C_33
REMARK                            x       y       z     vdW  Elec       q    Type
REMARK                         _______ _______ _______ _____ _____    ______ ____
ROOT
ATOM      1  N   UNL     1       9.559   1.767   1.244  0.00  0.00    +0.000 N 
ENDROOT
BRANCH   1   2
ATOM      2  C   UNL     1      11.080   1.873   1.174  0.00  0.00    +0.000 A 
ATOM      3  C   UNL     1      11.690   2.964   0.493  0.00  0.00    +0.000 A 
ATOM      4  C   UNL     1      13.087   3.035   0.234  0.00  0.00    +0.000 A 
ATOM      5  C   UNL     1      13.938   2.030   0.680  0.00  0.00    +0.000 A 
ATOM      6  C   UNL     1      13.356   0.910   1.271  0.00  0.00    +0.000 A 
ATOM      7  C   UNL     1      11.951   0.822   1.488  0.00  0.00    +0.000 A 
BRANCH   5   8
ATOM      8  O   UNL     1      15.281   2.235   0.493  0.00  0.00    +0.000 OA
ATOM      9  C   UNL     1      16.154   1.311   1.145  0.00  0.00    +0.000 C 
ENDBRANCH   5   8
ENDBRANCH   1   2
BRANCH   1  10
ATOM     10  S   UNL     1       8.788   1.061   2.630  0.00  0.00    +0.000 S 
ATOM     11  O   UNL     1       9.119   1.945   3.731  0.00  0.00    +0.000 OA
ATOM     12  O   UNL     1       9.208  -0.329   2.669  0.00  0.00    +0.000 OA
BRANCH  10  16
ATOM     13  C   UNL     1       4.151   0.221   2.084  0.00  0.00    +0.000 A 
ATOM     14  C   UNL     1       4.833  -0.265   3.188  0.00  0.00    +0.000 A 
ATOM     15  C   UNL     1       6.214   0.096   3.441  0.00  0.00    +0.000 A 
ATOM     16  C   UNL     1       6.923   0.998   2.623  0.00  0.00    +0.000 A 
ATOM     17  C   UNL     1       6.109   1.741   1.803  0.00  0.00    +0.000 A 
ATOM     18  C   UNL     1       4.760   1.318   1.536  0.00  0.00    +0.000 A 
BRANCH  13  19
ATOM     19  O   UNL     1       2.883  -0.163   1.710  0.00  0.00    +0.000 OA
BRANCH  19  21
ATOM     20  C   UNL     1       1.032  -0.093   0.068  0.00  0.00    +0.000 C 
ATOM     21  C   UNL     1       2.547  -0.191   0.284  0.00  0.00    +0.000 C 
ENDBRANCH  19  21
ENDBRANCH  13  19
ENDBRANCH  10  16
ENDBRANCH   1  10
BRANCH   1  22
ATOM     22  C   UNL     1       8.963   1.747  -0.100  0.00  0.00    +0.000 C 
BRANCH  22  23
ATOM     23  C   UNL     1       7.595   1.206  -0.540  0.00  0.00    +0.000 C 
ATOM     24  O   UNL     1       7.237   0.069  -0.165  0.00  0.00    +0.000 OA
ATOM     25  N   UNL     1       6.773   2.006  -1.422  0.00  0.00    +0.000 N 
ATOM     26  C   UNL     1       5.402   2.226  -1.040  0.00  0.00    +0.000 C 
ATOM     27  C   UNL     1       4.402   2.526  -2.126  0.00  0.00    +0.000 A 
ATOM     28  C   UNL     1       4.015   3.801  -2.490  0.00  0.00    +0.000 A 
ATOM     29  C   UNL     1       3.127   3.960  -3.548  0.00  0.00    +0.000 A 
ATOM     30  C   UNL     1       2.563   2.837  -4.169  0.00  0.00    +0.000 A 
ATOM     31  C   UNL     1       3.027   1.549  -3.861  0.00  0.00    +0.000 A 
ATOM     32  C   UNL     1       4.098   1.446  -2.970  0.00  0.00    +0.000 A 
ATOM     33  C   UNL     1       5.337   0.482  -3.027  0.00  0.00    +0.000 C 
ATOM     34  C   UNL     1       6.701   1.515  -2.822  0.00  0.00    +0.000 C 
BRANCH  34  35
ATOM     35  C   UNL     1       8.021   2.130  -3.465  0.00  0.00    +0.000 C 
ATOM     36  N   UNL     1       8.861   2.754  -2.553  0.00  0.00    +0.000 N 
ATOM     37  O   UNL     1       8.246   2.290  -4.658  0.00  0.00    +0.000 OA
ATOM     38  H   UNL     1       8.415   3.382  -1.886  0.00  0.00    +0.000 HD
ATOM     39  H   UNL     1       9.868   2.808  -2.638  0.00  0.00    +0.000 HD
ENDBRANCH  34  35
ENDBRANCH  22  23
ENDBRANCH   1  22
TORSDOF 9
