REMARK  Name = CHEMBL382301
REMARK  24 active torsions:
REMARK  status: ('A' for Active; 'I' for Inactive)
REMARK    1  A    between atoms: C_1  and  C_2
REMARK    2  A    between atoms: C_2  and  O_3
REMARK    3  A    between atoms: O_3  and  C_4
REMARK    4  A    between atoms: C_7  and  C_8
REMARK    5  A    between atoms: C_8  and  C_9
REMARK    6  A    between atoms: C_18  and  C_19
REMARK    7  A    between atoms: C_25  and  C_26
REMARK    8  A    between atoms: N_28  and  C_29
REMARK    9  A    between atoms: C_29  and  C_30
REMARK   10  A    between atoms: C_29  and  C_34
REMARK   11  A    between atoms: C_30  and  C_31
REMARK   12  A    between atoms: C_31  and  C_32
REMARK   13  A    between atoms: C_32  and  N_33
REMARK   14  A    between atoms: N_36  and  C_37
REMARK   15  A    between atoms: C_37  and  C_38
REMARK   16  A    between atoms: C_44  and  C_45
REMARK   17  A    between atoms: C_45  and  C_46
REMARK   18  A    between atoms: C_52  and  C_53
REMARK   19  A    between atoms: C_53  and  C_54
REMARK   20  A    between atoms: C_53  and  O_55
REMARK   21  A    between atoms: C_59  and  C_60
REMARK   22  A    between atoms: C_60  and  C_61
REMARK   23  A    between atoms: C_60  and  C_62
REMARK   24  A    between atoms: C_62  and  C_63
REMARK                            x       y       z     vdW  Elec       q    Type
REMARK                         _______ _______ _______ _____ _____    ______ ____
ROOT
ATOM      1  C   UNL     1       7.734   2.132  -0.841  0.00  0.00    +0.000 C 
ATOM      2  N   UNL     1       6.553   3.785   0.022  0.00  0.00    +0.000 N 
ATOM      3  C   UNL     1       5.711   5.460   0.991  0.00  0.00    +0.000 C 
ATOM      4  O   UNL     1       4.344   5.692   1.457  0.00  0.00    +0.000 OA
ATOM      5  C   UNL     1       5.398   7.432   1.792  0.00  0.00    +0.000 C 
ATOM      6  C   UNL     1       6.410   8.267   1.207  0.00  0.00    +0.000 C 
ATOM      7  S   UNL     1       7.204   9.882   1.774  0.00  0.00    +0.000 S 
ATOM      8  S   UNL     1       8.656  10.102   0.414  0.00  0.00    +0.000 S 
ATOM      9  C   UNL     1      10.205  10.941   0.616  0.00  0.00    +0.000 C 
ATOM     10  C   UNL     1      11.375  10.728  -0.351  0.00  0.00    +0.000 C 
ATOM     11  N   UNL     1      12.056   9.440  -0.129  0.00  0.00    +0.000 N 
ATOM     12  C   UNL     1      11.519   8.198  -0.358  0.00  0.00    +0.000 C 
ATOM     13  O   UNL     1      12.164   7.299   0.181  0.00  0.00    +0.000 OA
ATOM     14  C   UNL     1      10.048   7.996  -0.641  0.00  0.00    +0.000 C 
ATOM     15  N   UNL     1       9.985   7.149  -1.732  0.00  0.00    +0.000 N 
ATOM     16  C   UNL     1      10.555   5.861  -1.657  0.00  0.00    +0.000 C 
ATOM     17  O   UNL     1      10.863   5.191  -2.641  0.00  0.00    +0.000 OA
ATOM     18  C   UNL     1      10.848   5.227  -0.367  0.00  0.00    +0.000 C 
ATOM     19  N   UNL     1       9.864   4.292  -0.066  0.00  0.00    +0.000 N 
ATOM     20  C   UNL     1       9.899   3.171  -0.689  0.00  0.00    +0.000 C 
ATOM     21  O   UNL     1       9.536   2.301   0.127  0.00  0.00    +0.000 OA
ATOM     22  C   UNL     1      10.361   3.035  -2.206  0.00  0.00    +0.000 C 
ATOM     23  N   UNL     1      10.938   1.880  -2.071  0.00  0.00    +0.000 N 
ATOM     24  C   UNL     1       9.615   1.265  -1.551  0.00  0.00    +0.000 C 
ATOM     25  O   UNL     1      10.465   0.284  -1.546  0.00  0.00    +0.000 OA
ATOM     26  H   UNL     1       5.362   4.333  -0.135  0.00  0.00    +0.000 HD
ATOM     27  H   UNL     1      13.015   9.483   0.259  0.00  0.00    +0.000 HD
ATOM     28  H   UNL     1       9.609   7.634  -2.564  0.00  0.00    +0.000 HD
ATOM     29  H   UNL     1       9.461   4.167   0.857  0.00  0.00    +0.000 HD
ATOM     30  H   UNL     1      12.007   1.719  -2.339  0.00  0.00    +0.000 HD
ENDROOT
BRANCH  10  31
ATOM     31  C   UNL     1      12.350  11.943  -0.183  0.00  0.00    +0.000 C 
ATOM     32  O   UNL     1      13.514  11.700   0.147  0.00  0.00    +0.000 OA
ATOM     33  N   UNL     1      11.887  13.221  -0.543  0.00  0.00    +0.000 N 
ATOM     34  C   UNL     1      10.648  13.901  -0.159  0.00  0.00    +0.000 C 
ATOM     35  C   UNL     1      10.363  14.775  -1.352  0.00  0.00    +0.000 C 
ATOM     36  C   UNL     1      11.742  15.339  -1.668  0.00  0.00    +0.000 C 
ATOM     37  C   UNL     1      12.731  14.228  -1.271  0.00  0.00    +0.000 C 
BRANCH  37  38
ATOM     38  C   UNL     1      13.767  14.866  -0.365  0.00  0.00    +0.000 C 
ATOM     39  O   UNL     1      13.656  14.616   0.837  0.00  0.00    +0.000 OA
ATOM     40  N   UNL     1      14.717  15.745  -0.893  0.00  0.00    +0.000 N 
ATOM     41  H   UNL     1      14.675  16.079  -1.855  0.00  0.00    +0.000 HD
BRANCH  40  42
ATOM     42  C   UNL     1      15.835  16.308  -0.078  0.00  0.00    +0.000 C 
BRANCH  42  43
ATOM     43  C   UNL     1      16.677  17.345  -0.896  0.00  0.00    +0.000 C 
ATOM     44  O   UNL     1      16.380  17.587  -2.066  0.00  0.00    +0.000 OA
ATOM     45  N   UNL     1      17.744  17.970  -0.269  0.00  0.00    +0.000 N 
ATOM     46  H   UNL     1      17.977  17.768   0.686  0.00  0.00    +0.000 HD
BRANCH  45  47
ATOM     47  C   UNL     1      18.591  18.947  -0.962  0.00  0.00    +0.000 C 
BRANCH  47  48
ATOM     48  C   UNL     1      19.729  19.528  -0.095  0.00  0.00    +0.000 C 
ATOM     49  N   UNL     1      19.835  19.082   1.206  0.00  0.00    +0.000 N 
ATOM     50  O   UNL     1      20.516  20.359  -0.543  0.00  0.00    +0.000 OA
ATOM     51  H   UNL     1      19.237  18.408   1.649  0.00  0.00    +0.000 HD
ATOM     52  H   UNL     1      20.570  19.440   1.807  0.00  0.00    +0.000 HD
ENDBRANCH  47  48
ENDBRANCH  45  47
ENDBRANCH  42  43
BRANCH  42  53
ATOM     53  C   UNL     1      16.754  15.184   0.394  0.00  0.00    +0.000 C 
BRANCH  53  54
ATOM     54  C   UNL     1      16.014  14.156   1.216  0.00  0.00    +0.000 C 
BRANCH  54  55
ATOM     55  C   UNL     1      16.845  13.014   1.673  0.00  0.00    +0.000 C 
BRANCH  55  56
ATOM     56  N   UNL     1      16.032  12.069   2.414  0.00  0.00    +0.000 NA
ATOM     57  H   UNL     1      15.607  12.523   3.220  0.00  0.00    +0.000 HD
ATOM     58  H   UNL     1      16.613  11.304   2.736  0.00  0.00    +0.000 HD
ENDBRANCH  55  56
ENDBRANCH  54  55
ENDBRANCH  53  54
ENDBRANCH  42  53
ENDBRANCH  40  42
ENDBRANCH  37  38
ENDBRANCH  10  31
BRANCH  22  59
ATOM     59  C   UNL     1       9.433   2.932  -3.402  0.00  0.00    +0.000 C 
ATOM     60  C   UNL     1      10.186   2.801  -4.714  0.00  0.00    +0.000 C 
BRANCH  59  61
ATOM     61  C   UNL     1       8.479   4.106  -3.378  0.00  0.00    +0.000 C 
ATOM     62  C   UNL     1       8.996   5.437  -3.828  0.00  0.00    +0.000 C 
ENDBRANCH  59  61
ENDBRANCH  22  59
BRANCH  18  63
ATOM     63  C   UNL     1      12.275   4.758  -0.566  0.00  0.00    +0.000 C 
ATOM     64  C   UNL     1      12.747   4.156   0.699  0.00  0.00    +0.000 C 
BRANCH  63  65
ATOM     65  O   UNL     1      13.148   5.770  -1.050  0.00  0.00    +0.000 OA
ATOM     66  H   UNL     1      13.094   6.469  -0.364  0.00  0.00    +0.000 HD
ENDBRANCH  63  65
ENDBRANCH  18  63
BRANCH  14  67
ATOM     67  C   UNL     1       9.222   7.436   0.535  0.00  0.00    +0.000 C 
BRANCH  67  68
ATOM     68  C   UNL     1       9.893   7.606   1.920  0.00  0.00    +0.000 C 
ATOM     69  N   UNL     1      11.049   8.321   2.041  0.00  0.00    +0.000 N 
ATOM     70  O   UNL     1       9.384   7.149   2.935  0.00  0.00    +0.000 OA
ATOM     71  H   UNL     1      11.575   8.765   1.314  0.00  0.00    +0.000 HD
ATOM     72  H   UNL     1      11.684   8.333   2.811  0.00  0.00    +0.000 HD
ENDBRANCH  67  68
ENDBRANCH  14  67
BRANCH   1  73
ATOM     73  C   UNL     1       8.238   0.020  -1.401  0.00  0.00    +0.000 C 
BRANCH  73  77
ATOM     74  C   UNL     1       5.912  -2.542  -4.441  0.00  0.00    +0.000 A 
ATOM     75  C   UNL     1       6.039  -1.200  -4.137  0.00  0.00    +0.000 A 
ATOM     76  C   UNL     1       7.168  -0.648  -3.589  0.00  0.00    +0.000 A 
ATOM     77  C   UNL     1       7.955  -1.319  -2.781  0.00  0.00    +0.000 A 
ATOM     78  C   UNL     1       8.009  -2.814  -3.193  0.00  0.00    +0.000 A 
ATOM     79  C   UNL     1       6.924  -3.377  -4.017  0.00  0.00    +0.000 A 
BRANCH  74  80
ATOM     80  O   UNL     1       4.870  -2.885  -5.257  0.00  0.00    +0.000 OA
BRANCH  80  82
ATOM     81  C   UNL     1       3.093  -4.331  -5.971  0.00  0.00    +0.000 C 
ATOM     82  C   UNL     1       4.194  -4.105  -4.948  0.00  0.00    +0.000 C 
ENDBRANCH  80  82
ENDBRANCH  74  80
ENDBRANCH  73  77
ENDBRANCH   1  73
TORSDOF 20
