REMARK  Name = CHEMBL32187
REMARK  4 active torsions:
REMARK  status: ('A' for Active; 'I' for Inactive)
REMARK    1  A    between atoms: C_1  and  C_2
REMARK    2  A    between atoms: C_8  and  C_9
REMARK    3  A    between atoms: C_13  and  C_14
REMARK    4  A    between atoms: C_19  and  N_20
REMARK                            x       y       z     vdW  Elec       q    Type
REMARK                         _______ _______ _______ _____ _____    ______ ____
ROOT
ATOM      1  C   UNL     1       5.602  -6.958  -4.504  0.00  0.00    +0.000 C 
ATOM      2  O   UNL     1       6.826  -6.965  -4.609  0.00  0.00    +0.000 OA
ATOM      3  N   UNL     1       4.839  -8.037  -4.909  0.00  0.00    +0.000 N 
ATOM      4  C   UNL     1       5.067  -9.338  -4.295  0.00  0.00    +0.000 C 
ATOM      5  C   UNL     1       5.218 -10.419  -5.346  0.00  0.00    +0.000 C 
ATOM      6  C   UNL     1       4.033 -10.405  -6.334  0.00  0.00    +0.000 C 
ATOM      7  C   UNL     1       3.872  -9.009  -6.954  0.00  0.00    +0.000 C 
ATOM      8  C   UNL     1       3.782  -7.914  -5.905  0.00  0.00    +0.000 C 
ENDROOT
BRANCH   6   9
ATOM      9  N   UNL     1       2.787 -11.017  -5.761  0.00  0.00    +0.000 N 
ATOM     10  C   UNL     1       2.115 -10.533  -4.636  0.00  0.00    +0.000 C 
ATOM     11  O   UNL     1       1.839  -9.370  -4.364  0.00  0.00    +0.000 OA
ATOM     12  O   UNL     1       1.824 -11.493  -3.725  0.00  0.00    +0.000 OA
ATOM     13  C   UNL     1       0.860 -12.391  -4.231  0.00  0.00    +0.000 C 
ATOM     14  C   UNL     1       1.249 -12.884  -5.589  0.00  0.00    +0.000 A 
ATOM     15  C   UNL     1       0.602 -14.005  -6.113  0.00  0.00    +0.000 A 
ATOM     16  C   UNL     1       0.928 -14.459  -7.383  0.00  0.00    +0.000 A 
ATOM     17  C   UNL     1       1.890 -13.788  -8.133  0.00  0.00    +0.000 A 
ATOM     18  C   UNL     1       2.539 -12.666  -7.613  0.00  0.00    +0.000 A 
ATOM     19  C   UNL     1       2.231 -12.203  -6.332  0.00  0.00    +0.000 A 
ENDBRANCH   6   9
BRANCH   1  24
ATOM     20  C   UNL     1       4.452  -1.738  -1.804  0.00  0.00    +0.000 A 
ATOM     21  C   UNL     1       5.562  -2.476  -2.160  0.00  0.00    +0.000 A 
ATOM     22  C   UNL     1       5.087  -3.676  -2.713  0.00  0.00    +0.000 A 
ATOM     23  C   UNL     1       5.692  -4.734  -3.409  0.00  0.00    +0.000 A 
ATOM     24  C   UNL     1       4.904  -5.816  -3.826  0.00  0.00    +0.000 A 
ATOM     25  C   UNL     1       3.536  -5.828  -3.510  0.00  0.00    +0.000 A 
ATOM     26  C   UNL     1       2.900  -4.748  -2.870  0.00  0.00    +0.000 A 
ATOM     27  C   UNL     1       3.712  -3.679  -2.504  0.00  0.00    +0.000 A 
ATOM     28  O   UNL     1       3.314  -2.484  -1.956  0.00  0.00    +0.000 OA
BRANCH  20  36
ATOM     29  C   UNL     1       1.092   0.103   0.060  0.00  0.00    +0.000 C 
ATOM     30  C   UNL     1       2.602   0.046   0.035  0.00  0.00    +0.000 C 
ATOM     31  O   UNL     1       3.246  -0.349   1.004  0.00  0.00    +0.000 OA
ATOM     32  N   UNL     1       3.161   0.314  -1.195  0.00  0.00    +0.000 N 
ATOM     33  C   UNL     1       2.885   1.503  -1.986  0.00  0.00    +0.000 C 
ATOM     34  C   UNL     1       3.352   1.077  -3.359  0.00  0.00    +0.000 C 
ATOM     35  C   UNL     1       4.653   0.349  -3.037  0.00  0.00    +0.000 C 
ATOM     36  C   UNL     1       4.422  -0.259  -1.623  0.00  0.00    +0.000 C 
ENDBRANCH  20  36
ENDBRANCH   1  24
TORSDOF 3
