REMARK  Name = CHEMBL2113207
REMARK  6 active torsions:
REMARK  status: ('A' for Active; 'I' for Inactive)
REMARK    1  A    between atoms: C_2  and  C_3
REMARK    2  A    between atoms: C_3  and  N_4
REMARK    3  A    between atoms: N_4  and  C_5
REMARK    4  A    between atoms: N_4  and  S_12
REMARK    5  A    between atoms: S_12  and  C_15
REMARK    6  A    between atoms: N_21  and  N_22
REMARK                            x       y       z     vdW  Elec       q    Type
REMARK                         _______ _______ _______ _____ _____    ______ ____
ROOT
ATOM      1  C   UNL     1       2.996   0.847   0.701  0.00  0.00    +0.000 C 
ENDROOT
BRANCH   1   3
ATOM      2  O   UNL     1       1.221   0.045  -0.848  0.00  0.00    +0.000 OA
ATOM      3  C   UNL     1       2.435   0.044  -0.602  0.00  0.00    +0.000 C 
ATOM      4  N   UNL     1       3.174  -0.918  -1.364  0.00  0.00    +0.000 N 
ATOM      5  H   UNL     1       2.379  -1.573  -1.533  0.00  0.00    +0.000 HD
BRANCH   4   6
ATOM      6  N   UNL     1       3.576  -0.819  -2.938  0.00  0.00    +0.000 NA
ATOM      7  C   UNL     1       3.718  -2.046  -3.473  0.00  0.00    +0.000 C 
ATOM      8  C   UNL     1       3.997  -3.146  -2.514  0.00  0.00    +0.000 C 
ATOM      9  O   UNL     1       2.996  -3.524  -1.964  0.00  0.00    +0.000 OA
ATOM     10  N   UNL     1       5.056  -3.868  -3.071  0.00  0.00    +0.000 N 
ATOM     11  C   UNL     1       4.599  -4.095  -4.373  0.00  0.00    +0.000 A 
ATOM     12  C   UNL     1       4.859  -5.373  -4.909  0.00  0.00    +0.000 A 
ATOM     13  C   UNL     1       4.129  -5.827  -5.975  0.00  0.00    +0.000 A 
ATOM     14  C   UNL     1       3.131  -4.961  -6.433  0.00  0.00    +0.000 A 
ATOM     15  C   UNL     1       2.919  -3.587  -5.875  0.00  0.00    +0.000 A 
ATOM     16  C   UNL     1       3.722  -3.071  -4.809  0.00  0.00    +0.000 A 
ATOM     17  H   UNL     1       5.902  -3.319  -3.215  0.00  0.00    +0.000 HD
ENDBRANCH   4   6
ENDBRANCH   1   3
BRANCH   1  18
ATOM     18  N   UNL     1       1.990   1.616   1.657  0.00  0.00    +0.000 N 
BRANCH  18  19
ATOM     19  C   UNL     1       0.568   1.463   1.555  0.00  0.00    +0.000 A 
ATOM     20  C   UNL     1      -0.002   0.190   1.570  0.00  0.00    +0.000 A 
ATOM     21  C   UNL     1      -1.365   0.027   1.303  0.00  0.00    +0.000 A 
ATOM     22  C   UNL     1      -2.188   1.142   1.167  0.00  0.00    +0.000 A 
ATOM     23 CL   UNL     1      -3.863   0.939   0.841  0.00  0.00    +0.000 Cl
ATOM     24  C   UNL     1      -1.654   2.421   1.275  0.00  0.00    +0.000 A 
ATOM     25  C   UNL     1      -0.273   2.578   1.416  0.00  0.00    +0.000 A 
ENDBRANCH  18  19
BRANCH  18  26
ATOM     26  S   UNL     1       2.628   2.663   2.884  0.00  0.00    +0.000 S 
ATOM     27  O   UNL     1       3.339   1.844   3.850  0.00  0.00    +0.000 OA
ATOM     28  O   UNL     1       3.324   3.734   2.200  0.00  0.00    +0.000 OA
BRANCH  26  29
ATOM     29  C   UNL     1       1.283   3.451   3.830  0.00  0.00    +0.000 A 
ATOM     30  C   UNL     1       1.197   4.852   3.928  0.00  0.00    +0.000 A 
ATOM     31  C   UNL     1       0.215   5.441   4.743  0.00  0.00    +0.000 A 
ATOM     32  C   UNL     1      -0.730   4.645   5.390  0.00  0.00    +0.000 A 
ATOM     33  C   UNL     1      -0.667   3.257   5.269  0.00  0.00    +0.000 A 
ATOM     34  C   UNL     1       0.358   2.659   4.523  0.00  0.00    +0.000 A 
ENDBRANCH  26  29
ENDBRANCH  18  26
ENDBRANCH   1  18
TORSDOF 6
