REMARK  Name = CHEMBL31556
REMARK  6 active torsions:
REMARK  status: ('A' for Active; 'I' for Inactive)
REMARK    1  A    between atoms: C_2  and  C_3
REMARK    2  A    between atoms: C_8  and  C_9
REMARK    3  A    between atoms: C_13  and  C_14
REMARK    4  A    between atoms: C_14  and  N_15
REMARK    5  A    between atoms: C_17  and  C_18
REMARK    6  A    between atoms: C_33  and  N_34
REMARK                            x       y       z     vdW  Elec       q    Type
REMARK                         _______ _______ _______ _____ _____    ______ ____
ROOT
ATOM      1  C   UNL     1       3.191   1.101   0.253  0.00  0.00    +0.000 A 
ATOM      2  C   UNL     1       2.748   2.048   1.213  0.00  0.00    +0.000 A 
ATOM      3  C   UNL     1       3.390   3.305   1.403  0.00  0.00    +0.000 A 
ATOM      4  C   UNL     1       4.467   3.588   0.560  0.00  0.00    +0.000 A 
ATOM      5  O   UNL     1       5.266   4.708   0.577  0.00  0.00    +0.000 OA
ATOM      6  C   UNL     1       6.158   4.570  -0.454  0.00  0.00    +0.000 A 
ATOM      7  C   UNL     1       5.955   3.367  -1.095  0.00  0.00    +0.000 A 
ATOM      8  C   UNL     1       4.877   2.721  -0.448  0.00  0.00    +0.000 A 
ATOM      9  C   UNL     1       4.220   1.481  -0.617  0.00  0.00    +0.000 A 
ENDROOT
BRANCH   1  11
ATOM     10  O   UNL     1       1.230  -0.119  -0.041  0.00  0.00    +0.000 OA
ATOM     11  C   UNL     1       2.460  -0.208  -0.017  0.00  0.00    +0.000 C 
ATOM     12  N   UNL     1       3.178  -1.391  -0.474  0.00  0.00    +0.000 N 
ATOM     13  C   UNL     1       4.134  -2.164   0.354  0.00  0.00    +0.000 C 
ATOM     14  C   UNL     1       5.195  -2.954  -0.516  0.00  0.00    +0.000 C 
ATOM     15  C   UNL     1       4.548  -4.302  -1.603  0.00  0.00    +0.000 C 
ATOM     16  C   UNL     1       3.507  -3.075  -2.373  0.00  0.00    +0.000 C 
ATOM     17  C   UNL     1       2.502  -2.288  -1.428  0.00  0.00    +0.000 C 
BRANCH  15  18
ATOM     18  N   UNL     1       4.755  -6.160  -1.486  0.00  0.00    +0.000 N 
ATOM     19  C   UNL     1       5.755  -5.772  -0.585  0.00  0.00    +0.000 C 
ATOM     20  O   UNL     1       6.795  -5.079  -0.869  0.00  0.00    +0.000 OA
ATOM     21  O   UNL     1       5.505  -6.010   0.684  0.00  0.00    +0.000 OA
ATOM     22  C   UNL     1       6.187  -7.211   0.763  0.00  0.00    +0.000 C 
ATOM     23  C   UNL     1       4.992  -7.992   0.506  0.00  0.00    +0.000 A 
ATOM     24  C   UNL     1       4.089  -8.526   1.475  0.00  0.00    +0.000 A 
ATOM     25  C   UNL     1       3.656  -9.843   1.506  0.00  0.00    +0.000 A 
ATOM     26  C   UNL     1       4.074 -10.496   0.394  0.00  0.00    +0.000 A 
ATOM     27  C   UNL     1       4.555  -9.531  -0.827  0.00  0.00    +0.000 A 
ATOM     28  C   UNL     1       4.574  -7.897  -0.743  0.00  0.00    +0.000 A 
ENDBRANCH  15  18
ENDBRANCH   1  11
BRANCH   6  29
ATOM     29  C   UNL     1       7.183   5.586  -0.657  0.00  0.00    +0.000 A 
ATOM     30  C   UNL     1       7.436   6.116  -1.921  0.00  0.00    +0.000 A 
ATOM     31  C   UNL     1       8.608   6.840  -2.172  0.00  0.00    +0.000 A 
ATOM     32  C   UNL     1       9.508   7.113  -1.141  0.00  0.00    +0.000 A 
ATOM     33  C   UNL     1       9.276   6.595   0.136  0.00  0.00    +0.000 A 
ATOM     34  C   UNL     1       8.082   5.876   0.360  0.00  0.00    +0.000 A 
BRANCH  33  35
ATOM     35  C   UNL     1      10.338   6.753   1.216  0.00  0.00    +0.000 C 
BRANCH  35  36
ATOM     36  N   UNL     1      10.071   5.985   2.440  0.00  0.00    +0.000 N 
ATOM     37  C   UNL     1       9.837   4.613   2.343  0.00  0.00    +0.000 A 
ATOM     38  C   UNL     1       9.227   3.936   3.330  0.00  0.00    +0.000 A 
ATOM     39  C   UNL     1       9.068   4.589   4.614  0.00  0.00    +0.000 A 
ATOM     40  C   UNL     1       9.473   5.853   4.792  0.00  0.00    +0.000 A 
ATOM     41  C   UNL     1       9.867   6.685   3.625  0.00  0.00    +0.000 A 
ATOM     42  O   UNL     1       9.980   7.899   3.762  0.00  0.00    +0.000 OA
BRANCH  38  43
ATOM     43  C   UNL     1       8.713   2.537   3.166  0.00  0.00    +0.000 C 
ATOM     44  F   UNL     1       9.353   1.676   3.996  0.00  0.00    +0.000 F 
ATOM     45  F   UNL     1       7.387   2.445   3.449  0.00  0.00    +0.000 F 
ATOM     46  F   UNL     1       8.874   2.065   1.903  0.00  0.00    +0.000 F 
ENDBRANCH  38  43
ENDBRANCH  35  36
ENDBRANCH  33  35
ENDBRANCH   6  29
TORSDOF 6
