REMARK  Name = CHEMBL491421
REMARK  9 active torsions:
REMARK  status: ('A' for Active; 'I' for Inactive)
REMARK    1  A    between atoms: C_1  and  C_2
REMARK    2  A    between atoms: C_2  and  O_3
REMARK    3  A    between atoms: O_3  and  C_4
REMARK    4  A    between atoms: C_7  and  C_8
REMARK    5  A    between atoms: C_11  and  C_12
REMARK    6  A    between atoms: N_13  and  C_14
REMARK    7  A    between atoms: C_17  and  O_18
REMARK    8  A    between atoms: O_18  and  C_19
REMARK    9  A    between atoms: C_23  and  C_24
REMARK                            x       y       z     vdW  Elec       q    Type
REMARK                         _______ _______ _______ _____ _____    ______ ____
ROOT
ATOM      1  C   UNL     1       8.633  -1.817  -1.744  0.00  0.00    +0.000 A 
ATOM      2  N   UNL     1       9.503  -1.095  -2.434  0.00  0.00    +0.000 NA
ATOM      3  N   UNL     1      10.764  -1.646  -2.282  0.00  0.00    +0.000 NA
ATOM      4  C   UNL     1      10.659  -2.711  -1.510  0.00  0.00    +0.000 A 
ATOM      5  C   UNL     1      11.714  -3.722  -1.207  0.00  0.00    +0.000 C 
ATOM      6  N   UNL     1       9.336  -2.849  -1.140  0.00  0.00    +0.000 N 
ENDROOT
BRANCH   1  10
ATOM      7  C   UNL     1       4.387  -1.163  -1.117  0.00  0.00    +0.000 A 
ATOM      8  C   UNL     1       4.917  -1.307  -2.411  0.00  0.00    +0.000 A 
ATOM      9  C   UNL     1       6.301  -1.483  -2.632  0.00  0.00    +0.000 A 
ATOM     10  C   UNL     1       7.191  -1.551  -1.557  0.00  0.00    +0.000 A 
ATOM     11  C   UNL     1       6.650  -1.430  -0.265  0.00  0.00    +0.000 A 
ATOM     12  C   UNL     1       5.264  -1.255  -0.026  0.00  0.00    +0.000 A 
ATOM     13  C   UNL     1       4.814  -1.221   1.406  0.00  0.00    +0.000 C 
BRANCH   7  14
ATOM     14  O   UNL     1       3.014  -1.065  -1.045  0.00  0.00    +0.000 OA
BRANCH  14  16
ATOM     15  C   UNL     1       0.966  -0.059  -0.185  0.00  0.00    +0.000 C 
ATOM     16  C   UNL     1       2.487  -0.065  -0.164  0.00  0.00    +0.000 C 
ENDBRANCH  14  16
ENDBRANCH   7  14
ENDBRANCH   1  10
BRANCH   6  17
ATOM     17  C   UNL     1       8.807  -3.949  -0.451  0.00  0.00    +0.000 A 
ATOM     18  C   UNL     1       7.807  -4.701  -1.045  0.00  0.00    +0.000 A 
ATOM     19  C   UNL     1       7.396  -5.861  -0.406  0.00  0.00    +0.000 A 
ATOM     20  C   UNL     1       7.987  -6.215   0.803  0.00  0.00    +0.000 A 
ATOM     21  N   UNL     1       8.942  -5.467   1.398  0.00  0.00    +0.000 NA
ATOM     22  C   UNL     1       9.339  -4.346   0.762  0.00  0.00    +0.000 A 
BRANCH  20  23
ATOM     23  O   UNL     1       7.684  -7.346   1.507  0.00  0.00    +0.000 OA
ATOM     24  C   UNL     1       6.699  -8.188   0.926  0.00  0.00    +0.000 C 
ENDBRANCH  20  23
ENDBRANCH   6  17
TORSDOF 5
