REMARK  Name = CHEMBL3813858
REMARK  25 active torsions:
REMARK  status: ('A' for Active; 'I' for Inactive)
REMARK    1  A    between atoms: C_1  and  C_2
REMARK    2  A    between atoms: C_2  and  C_3
REMARK    3  A    between atoms: C_3  and  C_4
REMARK    4  A    between atoms: C_3  and  C_5
REMARK    5  A    between atoms: C_9  and  C_10
REMARK    6  A    between atoms: C_10  and  C_11
REMARK    7  A    between atoms: C_14  and  O_15
REMARK    8  A    between atoms: C_21  and  N_22
REMARK    9  A    between atoms: C_27  and  C_28
REMARK   10  A    between atoms: C_34  and  C_35
REMARK   11  A    between atoms: N_37  and  C_38
REMARK   12  A    between atoms: N_37  and  C_39
REMARK   13  A    between atoms: C_39  and  C_40
REMARK   14  A    between atoms: C_39  and  C_44
REMARK   15  A    between atoms: C_40  and  C_41
REMARK   16  A    between atoms: C_41  and  C_42
REMARK   17  A    between atoms: C_41  and  C_43
REMARK   18  A    between atoms: N_46  and  C_47
REMARK   19  A    between atoms: C_47  and  C_48
REMARK   20  A    between atoms: N_51  and  C_52
REMARK   21  A    between atoms: C_55  and  C_56
REMARK   22  A    between atoms: C_56  and  C_57
REMARK   23  A    between atoms: C_63  and  C_64
REMARK   24  A    between atoms: C_64  and  C_65
REMARK   25  A    between atoms: C_65  and  C_66
REMARK                            x       y       z     vdW  Elec       q    Type
REMARK                         _______ _______ _______ _____ _____    ______ ____
ROOT
ATOM      1  C   UNL     1      -0.567  -5.717   1.959  0.00  0.00    +0.000 C 
ATOM      2  N   UNL     1      -2.724  -7.464   2.588  0.00  0.00    +0.000 N 
ATOM      3  C   UNL     1      -4.899  -9.027   3.202  0.00  0.00    +0.000 C 
ATOM      4  O   UNL     1      -5.942 -10.568   3.377  0.00  0.00    +0.000 OA
ATOM      5  C   UNL     1      -7.537  -9.775   3.790  0.00  0.00    +0.000 C 
ATOM      6  N   UNL     1      -8.735  -9.418   4.989  0.00  0.00    +0.000 N 
ATOM      7  C   UNL     1      -7.468  -9.064   4.987  0.00  0.00    +0.000 C 
ATOM      8  O   UNL     1      -6.841  -8.454   5.789  0.00  0.00    +0.000 OA
ATOM      9  C   UNL     1      -6.471  -8.970   3.748  0.00  0.00    +0.000 C 
ATOM     10  C   UNL     1      -6.168  -8.225   2.605  0.00  0.00    +0.000 C 
ATOM     11  S   UNL     1      -4.982  -7.382   4.068  0.00  0.00    +0.000 S 
ATOM     12  S   UNL     1      -4.236  -6.040   2.814  0.00  0.00    +0.000 S 
ATOM     13  C   UNL     1      -2.923  -5.239   3.779  0.00  0.00    +0.000 C 
ATOM     14  C   UNL     1      -2.355  -4.140   2.999  0.00  0.00    +0.000 C 
ATOM     15  N   UNL     1      -1.938  -4.821   1.952  0.00  0.00    +0.000 N 
ATOM     16  C   UNL     1      -2.295  -5.598   0.821  0.00  0.00    +0.000 C 
ATOM     17  C   UNL     1      -1.189  -4.030   1.227  0.00  0.00    +0.000 C 
ATOM     18  O   UNL     1      -0.361  -3.901   2.207  0.00  0.00    +0.000 OA
ATOM     19  C   UNL     1       0.332  -4.999   0.337  0.00  0.00    +0.000 C 
ATOM     20  N   UNL     1       1.277  -4.244  -0.462  0.00  0.00    +0.000 N 
ATOM     21  C   UNL     1       2.704  -3.613   0.117  0.00  0.00    +0.000 C 
ATOM     22  O   UNL     1       3.282  -2.049  -0.694  0.00  0.00    +0.000 OA
ATOM     23  C   UNL     1       2.553  -3.300   2.271  0.00  0.00    +0.000 C 
ATOM     24  N   UNL     1       3.717  -3.750   2.091  0.00  0.00    +0.000 N 
ATOM     25  C   UNL     1       1.862  -4.608   1.697  0.00  0.00    +0.000 C 
ATOM     26  O   UNL     1       3.628  -4.012   1.443  0.00  0.00    +0.000 OA
ATOM     27  H   UNL     1      -3.929  -8.649   2.953  0.00  0.00    +0.000 HD
ATOM     28  H   UNL     1      -9.366  -9.025   5.750  0.00  0.00    +0.000 HD
ATOM     29  H   UNL     1       1.029  -3.949  -1.315  0.00  0.00    +0.000 HD
ATOM     30  H   UNL     1       4.441  -4.391   2.386  0.00  0.00    +0.000 HD
ENDROOT
BRANCH  14  31
ATOM     31  C   UNL     1      -1.356  -3.292   3.871  0.00  0.00    +0.000 C 
ATOM     32  O   UNL     1      -0.160  -3.146   3.693  0.00  0.00    +0.000 OA
ATOM     33  N   UNL     1      -1.857  -2.621   4.974  0.00  0.00    +0.000 N 
ATOM     34  C   UNL     1      -2.746  -3.142   5.996  0.00  0.00    +0.000 C 
ATOM     35  C   UNL     1      -3.690  -1.993   6.211  0.00  0.00    +0.000 C 
ATOM     36  C   UNL     1      -2.765  -0.785   6.232  0.00  0.00    +0.000 C 
ATOM     37  C   UNL     1      -1.668  -1.162   5.261  0.00  0.00    +0.000 C 
BRANCH  37  38
ATOM     38  C   UNL     1      -0.552  -0.866   6.227  0.00  0.00    +0.000 C 
ATOM     39  O   UNL     1       0.271  -2.027   6.531  0.00  0.00    +0.000 OA
ATOM     40  N   UNL     1       0.096   0.455   6.276  0.00  0.00    +0.000 N 
ATOM     41  C   UNL     1      -0.756   1.573   6.007  0.00  0.00    +0.000 C 
BRANCH  40  42
ATOM     42  C   UNL     1       1.466   0.679   6.870  0.00  0.00    +0.000 C 
BRANCH  42  43
ATOM     43  C   UNL     1       1.663   2.189   7.156  0.00  0.00    +0.000 C 
ATOM     44  O   UNL     1       0.775   3.000   6.874  0.00  0.00    +0.000 OA
ATOM     45  N   UNL     1       2.861   2.635   7.744  0.00  0.00    +0.000 N 
ATOM     46  H   UNL     1       3.603   2.000   7.982  0.00  0.00    +0.000 HD
BRANCH  45  47
ATOM     47  C   UNL     1       3.079   4.059   8.026  0.00  0.00    +0.000 C 
BRANCH  47  48
ATOM     48  C   UNL     1       4.456   4.319   8.666  0.00  0.00    +0.000 C 
ATOM     49  N   UNL     1       5.303   3.209   8.893  0.00  0.00    +0.000 N 
ATOM     50  O   UNL     1       4.792   5.468   8.968  0.00  0.00    +0.000 OA
ATOM     51  H   UNL     1       5.064   2.262   8.659  0.00  0.00    +0.000 HD
ATOM     52  H   UNL     1       6.221   3.337   9.311  0.00  0.00    +0.000 HD
ENDBRANCH  47  48
ENDBRANCH  45  47
ENDBRANCH  42  43
BRANCH  42  53
ATOM     53  C   UNL     1       2.560   0.180   5.969  0.00  0.00    +0.000 C 
BRANCH  53  54
ATOM     54  C   UNL     1       2.417  -1.282   5.642  0.00  0.00    +0.000 C 
ATOM     55  C   UNL     1       1.225  -1.600   4.893  0.00  0.00    +0.000 C 
ATOM     56  C   UNL     1       3.492  -1.781   4.785  0.00  0.00    +0.000 C 
ENDBRANCH  53  54
ENDBRANCH  42  53
ENDBRANCH  40  42
ENDBRANCH  37  38
ENDBRANCH  14  31
BRANCH   9  57
ATOM     57  N   UNL     1      -7.355 -10.492   2.365  0.00  0.00    +0.000 NA
ATOM     58  H   UNL     1      -8.267 -10.362   2.470  0.00  0.00    +0.000 HD
ATOM     59  H   UNL     1      -7.901 -11.345   3.116  0.00  0.00    +0.000 HD
ENDBRANCH   9  57
BRANCH   1  60
ATOM     60  C   UNL     1       0.822  -3.318   1.374  0.00  0.00    +0.000 C 
ATOM     61  C   UNL     1       1.932  -1.128   0.643  0.00  0.00    +0.000 C 
BRANCH  60  63
ATOM     62  C   UNL     1       1.515  -1.543  -1.164  0.00  0.00    +0.000 C 
ATOM     63  C   UNL     1       2.020  -2.231   0.110  0.00  0.00    +0.000 C 
ENDBRANCH  60  63
ENDBRANCH   1  60
BRANCH  19  64
ATOM     64  C   UNL     1       1.690  -6.175   1.033  0.00  0.00    +0.000 C 
BRANCH  64  65
ATOM     65  C   UNL     1       1.439  -6.642   2.499  0.00  0.00    +0.000 C 
ATOM     66  N   UNL     1       0.284  -6.411   3.283  0.00  0.00    +0.000 N 
ATOM     67  O   UNL     1       2.279  -7.314   3.054  0.00  0.00    +0.000 OA
ATOM     68  H   UNL     1      -0.785  -5.877   3.265  0.00  0.00    +0.000 HD
ATOM     69  H   UNL     1      -0.079  -6.670   4.083  0.00  0.00    +0.000 HD
ENDBRANCH  64  65
ENDBRANCH  19  64
BRANCH   5  70
ATOM     70  C   UNL     1      -9.438  -9.574   2.660  0.00  0.00    +0.000 C 
BRANCH  70  71
ATOM     71  C   UNL     1     -10.178 -10.568   1.700  0.00  0.00    +0.000 A 
ATOM     72  C   UNL     1     -10.915 -11.662   2.124  0.00  0.00    +0.000 A 
ATOM     73  C   UNL     1     -11.707 -12.385   1.240  0.00  0.00    +0.000 A 
ATOM     74  C   UNL     1     -11.756 -11.996  -0.085  0.00  0.00    +0.000 A 
ATOM     75  C   UNL     1     -10.994 -10.933  -0.520  0.00  0.00    +0.000 A 
ATOM     76  C   UNL     1     -10.218 -10.230   0.366  0.00  0.00    +0.000 A 
BRANCH  74  77
ATOM     77  O   UNL     1     -12.512 -12.614  -1.027  0.00  0.00    +0.000 OA
ATOM     78  H   UNL     1     -13.052 -13.359  -0.735  0.00  0.00    +0.000 HD
ENDBRANCH  74  77
ENDBRANCH  70  71
ENDBRANCH   5  70
BRANCH  23  79
ATOM     79  C   UNL     1       2.264  -2.027   2.734  0.00  0.00    +0.000 C 
BRANCH  79  80
ATOM     80  C   UNL     1       3.493  -0.915   2.362  0.00  0.00    +0.000 C 
BRANCH  80  81
ATOM     81  C   UNL     1       3.077   0.359   3.063  0.00  0.00    +0.000 C 
ATOM     82  N   UNL     1       1.848   0.525   3.649  0.00  0.00    +0.000 N 
ATOM     83  O   UNL     1       3.896   1.263   3.084  0.00  0.00    +0.000 OA
ATOM     84  H   UNL     1       1.185  -0.116   3.707  0.00  0.00    +0.000 HD
ATOM     85  H   UNL     1       1.568   1.286   4.263  0.00  0.00    +0.000 HD
ENDBRANCH  80  81
ENDBRANCH  79  80
ENDBRANCH  23  79
TORSDOF 19
