REMARK  Name = CHEMBL456464
REMARK  13 active torsions:
REMARK  status: ('A' for Active; 'I' for Inactive)
REMARK    1  A    between atoms: C_1  and  O_2
REMARK    2  A    between atoms: O_2  and  C_3
REMARK    3  A    between atoms: C_6  and  S_7
REMARK    4  A    between atoms: S_7  and  N_10
REMARK    5  A    between atoms: N_10  and  C_11
REMARK    6  A    between atoms: N_10  and  C_25
REMARK    7  A    between atoms: C_11  and  C_12
REMARK    8  A    between atoms: C_15  and  C_16
REMARK    9  A    between atoms: C_21  and  C_22
REMARK   10  A    between atoms: C_28  and  O_29
REMARK   11  A    between atoms: O_29  and  C_30
REMARK   12  A    between atoms: C_33  and  O_34
REMARK   13  A    between atoms: O_34  and  C_35
REMARK                            x       y       z     vdW  Elec       q    Type
REMARK                         _______ _______ _______ _____ _____    ______ ____
ROOT
ATOM      1  N   UNL     1       5.123  -4.004   4.790  0.00  0.00    +0.000 N 
ENDROOT
BRANCH   1   2
ATOM      2  C   UNL     1       5.699  -4.838   5.823  0.00  0.00    +0.000 A 
ATOM      3  C   UNL     1       6.194  -4.311   7.002  0.00  0.00    +0.000 A 
ATOM      4  C   UNL     1       6.580  -5.175   8.024  0.00  0.00    +0.000 A 
ATOM      5  C   UNL     1       6.443  -6.550   7.865  0.00  0.00    +0.000 A 
ATOM      6  N   UNL     1       5.955  -7.096   6.733  0.00  0.00    +0.000 NA
ATOM      7  C   UNL     1       5.612  -6.232   5.744  0.00  0.00    +0.000 A 
BRANCH   5   8
ATOM      8  O   UNL     1       6.779  -7.462   8.831  0.00  0.00    +0.000 OA
ATOM      9  C   UNL     1       7.295  -6.916  10.043  0.00  0.00    +0.000 C 
ENDBRANCH   5   8
ENDBRANCH   1   2
BRANCH   1  10
ATOM     10  S   UNL     1       6.051  -2.682   4.235  0.00  0.00    +0.000 S 
ATOM     11  O   UNL     1       7.400  -3.118   3.937  0.00  0.00    +0.000 OA
ATOM     12  O   UNL     1       5.872  -1.585   5.174  0.00  0.00    +0.000 OA
BRANCH  10  16
ATOM     13  C   UNL     1       2.739   0.171   1.595  0.00  0.00    +0.000 A 
ATOM     14  C   UNL     1       4.468   0.599   1.643  0.00  0.00    +0.000 A 
ATOM     15  C   UNL     1       5.741  -0.554   2.120  0.00  0.00    +0.000 A 
ATOM     16  C   UNL     1       5.512  -2.243   2.516  0.00  0.00    +0.000 A 
ATOM     17  C   UNL     1       3.998  -2.824   2.266  0.00  0.00    +0.000 A 
ATOM     18  C   UNL     1       2.327  -1.612   1.953  0.00  0.00    +0.000 A 
BRANCH  13  20
ATOM     19  C   UNL     1       0.787   0.737   0.747  0.00  0.00    +0.000 C 
ATOM     20  O   UNL     1       2.070   1.185   0.943  0.00  0.00    +0.000 OA
ENDBRANCH  13  20
BRANCH  17  21
ATOM     21  O   UNL     1       3.627  -4.603   2.508  0.00  0.00    +0.000 OA
ATOM     22  C   UNL     1       1.748  -5.008   2.742  0.00  0.00    +0.000 C 
ENDBRANCH  17  21
ENDBRANCH  10  16
ENDBRANCH   1  10
BRANCH   1  23
ATOM     23  C   UNL     1       3.632  -4.297   4.522  0.00  0.00    +0.000 C 
BRANCH  23  24
ATOM     24  C   UNL     1       2.567  -3.170   3.453  0.00  0.00    +0.000 A 
ATOM     25  C   UNL     1       2.398  -3.607   1.508  0.00  0.00    +0.000 A 
ATOM     26  C   UNL     1       3.089  -2.939   0.317  0.00  0.00    +0.000 A 
ATOM     27  C   UNL     1       3.842  -1.506   0.831  0.00  0.00    +0.000 A 
ATOM     28  C   UNL     1       3.810  -0.991   2.825  0.00  0.00    +0.000 A 
ATOM     29  N   UNL     1       3.128  -1.843   4.010  0.00  0.00    +0.000 NA
BRANCH  27  30
ATOM     30  C   UNL     1       3.230  -0.827  -0.578  0.00  0.00    +0.000 A 
ATOM     31  C   UNL     1       4.252   0.009  -0.970  0.00  0.00    +0.000 A 
ATOM     32  C   UNL     1       3.935   1.227  -1.492  0.00  0.00    +0.000 A 
ATOM     33  C   UNL     1       2.688   1.428  -2.060  0.00  0.00    +0.000 A 
ATOM     34  C   UNL     1       1.649   0.461  -1.951  0.00  0.00    +0.000 A 
ATOM     35  C   UNL     1       1.820  -0.737  -1.167  0.00  0.00    +0.000 A 
ATOM     36  C   UNL     1       0.353  -1.493  -0.613  0.00  0.00    +0.000 C 
ENDBRANCH  27  30
ENDBRANCH  23  24
ENDBRANCH   1  23
TORSDOF 9
