REMARK  Name = CHEMBL3814633
REMARK  24 active torsions:
REMARK  status: ('A' for Active; 'I' for Inactive)
REMARK    1  A    between atoms: C_1  and  C_2
REMARK    2  A    between atoms: C_2  and  C_3
REMARK    3  A    between atoms: C_3  and  C_4
REMARK    4  A    between atoms: C_3  and  C_5
REMARK    5  A    between atoms: C_9  and  C_10
REMARK    6  A    between atoms: C_10  and  C_11
REMARK    7  A    between atoms: C_14  and  O_15
REMARK    8  A    between atoms: C_21  and  N_22
REMARK    9  A    between atoms: C_27  and  C_28
REMARK   10  A    between atoms: C_34  and  C_35
REMARK   11  A    between atoms: N_37  and  C_38
REMARK   12  A    between atoms: C_38  and  C_39
REMARK   13  A    between atoms: C_38  and  C_43
REMARK   14  A    between atoms: C_39  and  C_40
REMARK   15  A    between atoms: C_40  and  C_41
REMARK   16  A    between atoms: C_40  and  C_42
REMARK   17  A    between atoms: N_45  and  C_46
REMARK   18  A    between atoms: N_45  and  C_47
REMARK   19  A    between atoms: C_47  and  C_48
REMARK   20  A    between atoms: C_54  and  C_55
REMARK   21  A    between atoms: C_55  and  C_56
REMARK   22  A    between atoms: C_62  and  C_63
REMARK   23  A    between atoms: C_63  and  C_64
REMARK   24  A    between atoms: C_64  and  C_65
REMARK                            x       y       z     vdW  Elec       q    Type
REMARK                         _______ _______ _______ _____ _____    ______ ____
ROOT
ATOM      1  C   UNL     1       4.898   0.552   5.177  0.00  0.00    +0.000 C 
ATOM      2  N   UNL     1       5.467   0.193   7.262  0.00  0.00    +0.000 N 
ATOM      3  C   UNL     1       5.880   0.071   9.309  0.00  0.00    +0.000 C 
ATOM      4  O   UNL     1       6.100   0.926  10.562  0.00  0.00    +0.000 OA
ATOM      5  C   UNL     1       5.042  -0.993  10.937  0.00  0.00    +0.000 C 
ATOM      6  N   UNL     1       3.509  -0.963  11.596  0.00  0.00    +0.000 N 
ATOM      7  C   UNL     1       2.615  -0.046  11.141  0.00  0.00    +0.000 C 
ATOM      8  O   UNL     1       1.420  -0.033  11.395  0.00  0.00    +0.000 OA
ATOM      9  C   UNL     1       2.989   1.039  10.235  0.00  0.00    +0.000 C 
ATOM     10  C   UNL     1       2.551   0.865   8.890  0.00  0.00    +0.000 C 
ATOM     11  S   UNL     1       0.834   1.367   9.064  0.00  0.00    +0.000 S 
ATOM     12  S   UNL     1      -0.110   0.916   7.453  0.00  0.00    +0.000 S 
ATOM     13  C   UNL     1      -1.636   1.501   6.943  0.00  0.00    +0.000 C 
ATOM     14  C   UNL     1      -2.151   1.261   5.549  0.00  0.00    +0.000 C 
ATOM     15  N   UNL     1      -1.420   2.098   4.577  0.00  0.00    +0.000 N 
ATOM     16  C   UNL     1      -0.098   2.015   4.305  0.00  0.00    +0.000 C 
ATOM     17  O   UNL     1       0.377   2.809   3.507  0.00  0.00    +0.000 OA
ATOM     18  C   UNL     1       0.707   0.907   4.965  0.00  0.00    +0.000 C 
ATOM     19  N   UNL     1       0.932  -0.233   4.234  0.00  0.00    +0.000 N 
ATOM     20  C   UNL     1       1.893  -0.162   3.495  0.00  0.00    +0.000 C 
ATOM     21  O   UNL     1       1.999  -1.294   2.634  0.00  0.00    +0.000 OA
ATOM     22  C   UNL     1       2.596   2.014   3.107  0.00  0.00    +0.000 C 
ATOM     23  N   UNL     1       4.276   2.492   3.406  0.00  0.00    +0.000 N 
ATOM     24  C   UNL     1       5.346   1.623   3.664  0.00  0.00    +0.000 C 
ATOM     25  O   UNL     1       6.249   1.562   2.805  0.00  0.00    +0.000 OA
ATOM     26  H   UNL     1       6.182   0.642   8.371  0.00  0.00    +0.000 HD
ATOM     27  H   UNL     1       3.047  -1.626  12.312  0.00  0.00    +0.000 HD
ATOM     28  H   UNL     1      -1.937   2.835   4.090  0.00  0.00    +0.000 HD
ATOM     29  H   UNL     1       0.931  -1.225   4.248  0.00  0.00    +0.000 HD
ATOM     30  H   UNL     1       4.378   2.835   4.309  0.00  0.00    +0.000 HD
ENDROOT
BRANCH  14  31
ATOM     31  C   UNL     1      -3.652   1.609   5.588  0.00  0.00    +0.000 C 
ATOM     32  O   UNL     1      -3.962   2.489   4.785  0.00  0.00    +0.000 OA
ATOM     33  N   UNL     1      -4.519   0.845   6.410  0.00  0.00    +0.000 N 
ATOM     34  C   UNL     1      -4.340   0.476   7.806  0.00  0.00    +0.000 C 
ATOM     35  C   UNL     1      -4.917  -0.915   7.865  0.00  0.00    +0.000 C 
ATOM     36  C   UNL     1      -6.187  -0.782   7.064  0.00  0.00    +0.000 C 
ATOM     37  C   UNL     1      -5.875   0.291   6.035  0.00  0.00    +0.000 C 
BRANCH  37  38
ATOM     38  C   UNL     1      -7.061   1.229   6.426  0.00  0.00    +0.000 C 
ATOM     39  O   UNL     1      -6.779   2.297   6.998  0.00  0.00    +0.000 OA
ATOM     40  N   UNL     1      -8.297   1.013   5.714  0.00  0.00    +0.000 N 
ATOM     41  H   UNL     1      -8.554   0.118   5.301  0.00  0.00    +0.000 HD
BRANCH  40  42
ATOM     42  C   UNL     1      -9.314   2.100   5.534  0.00  0.00    +0.000 C 
BRANCH  42  43
ATOM     43  C   UNL     1     -10.682   1.500   5.079  0.00  0.00    +0.000 C 
ATOM     44  O   UNL     1     -10.760   0.297   4.820  0.00  0.00    +0.000 OA
ATOM     45  N   UNL     1     -11.774   2.353   4.989  0.00  0.00    +0.000 N 
ATOM     46  C   UNL     1     -11.647   3.741   5.311  0.00  0.00    +0.000 C 
BRANCH  45  47
ATOM     47  C   UNL     1     -13.107   1.859   4.566  0.00  0.00    +0.000 C 
BRANCH  47  48
ATOM     48  C   UNL     1     -14.252   2.918   4.501  0.00  0.00    +0.000 C 
ATOM     49  N   UNL     1     -14.029   4.231   4.815  0.00  0.00    +0.000 N 
ATOM     50  O   UNL     1     -15.392   2.608   4.167  0.00  0.00    +0.000 OA
ATOM     51  H   UNL     1     -13.208   4.693   5.102  0.00  0.00    +0.000 HD
ATOM     52  H   UNL     1     -14.677   4.984   4.810  0.00  0.00    +0.000 HD
ENDBRANCH  47  48
ENDBRANCH  45  47
ENDBRANCH  42  43
BRANCH  42  53
ATOM     53  C   UNL     1      -8.880   3.187   4.523  0.00  0.00    +0.000 C 
BRANCH  53  54
ATOM     54  C   UNL     1      -7.598   3.886   4.902  0.00  0.00    +0.000 C 
ATOM     55  C   UNL     1      -6.438   3.017   4.640  0.00  0.00    +0.000 C 
ATOM     56  C   UNL     1      -7.192   4.946   3.962  0.00  0.00    +0.000 C 
ENDBRANCH  53  54
ENDBRANCH  42  53
ENDBRANCH  40  42
ENDBRANCH  37  38
ENDBRANCH  14  31
BRANCH   9  57
ATOM     57  N   UNL     1       4.245   0.983   9.825  0.00  0.00    +0.000 NA
ATOM     58  H   UNL     1       4.291   0.001   9.624  0.00  0.00    +0.000 HD
ATOM     59  H   UNL     1       4.738   1.005  10.730  0.00  0.00    +0.000 HD
ENDBRANCH   9  57
BRANCH   1  60
ATOM     60  C   UNL     1       4.089   0.396   2.973  0.00  0.00    +0.000 C 
ATOM     61  C   UNL     1       3.323  -0.066   0.994  0.00  0.00    +0.000 C 
BRANCH  60  63
ATOM     62  C   UNL     1       3.904  -1.050   2.992  0.00  0.00    +0.000 C 
ATOM     63  C   UNL     1       2.807   0.462   2.329  0.00  0.00    +0.000 C 
ENDBRANCH  60  63
ENDBRANCH   1  60
BRANCH  18  64
ATOM     64  C   UNL     1       1.847   1.497   5.833  0.00  0.00    +0.000 C 
BRANCH  64  65
ATOM     65  C   UNL     1       2.433   0.330   6.545  0.00  0.00    +0.000 C 
ATOM     66  N   UNL     1       1.865  -0.868   6.811  0.00  0.00    +0.000 N 
ATOM     67  O   UNL     1       3.546   0.512   6.943  0.00  0.00    +0.000 OA
ATOM     68  H   UNL     1       1.036  -1.127   6.332  0.00  0.00    +0.000 HD
ATOM     69  H   UNL     1       2.176  -1.503   7.546  0.00  0.00    +0.000 HD
ENDBRANCH  64  65
ENDBRANCH  18  64
BRANCH   5  70
ATOM     70  C   UNL     1       5.159  -1.913   9.901  0.00  0.00    +0.000 C 
BRANCH  70  71
ATOM     71  C   UNL     1       6.659  -1.983   9.869  0.00  0.00    +0.000 A 
ATOM     72  C   UNL     1       7.541  -1.607  10.922  0.00  0.00    +0.000 A 
ATOM     73  C   UNL     1       8.904  -1.677  10.739  0.00  0.00    +0.000 A 
ATOM     74  C   UNL     1       9.371  -2.046   9.495  0.00  0.00    +0.000 A 
ATOM     75  C   UNL     1       8.501  -2.231   8.432  0.00  0.00    +0.000 A 
ATOM     76  C   UNL     1       7.150  -2.154   8.603  0.00  0.00    +0.000 A 
BRANCH  74  77
ATOM     77  O   UNL     1      10.683  -2.250   9.215  0.00  0.00    +0.000 OA
ATOM     78  H   UNL     1      11.259  -2.122   9.984  0.00  0.00    +0.000 HD
ENDBRANCH  74  77
ENDBRANCH  70  71
ENDBRANCH   5  70
BRANCH  22  79
ATOM     79  C   UNL     1       2.301   2.702   1.705  0.00  0.00    +0.000 C 
BRANCH  79  80
ATOM     80  C   UNL     1       3.578   2.769   0.806  0.00  0.00    +0.000 C 
BRANCH  80  81
ATOM     81  C   UNL     1       3.261   3.270  -0.539  0.00  0.00    +0.000 C 
ATOM     82  N   UNL     1       1.959   3.620  -0.777  0.00  0.00    +0.000 N 
ATOM     83  O   UNL     1       4.148   3.343  -1.380  0.00  0.00    +0.000 OA
ATOM     84  H   UNL     1       1.199   3.538  -0.111  0.00  0.00    +0.000 HD
ATOM     85  H   UNL     1       1.711   4.013  -1.668  0.00  0.00    +0.000 HD
ENDBRANCH  80  81
ENDBRANCH  79  80
ENDBRANCH  22  79
TORSDOF 19
