REMARK  Name = CHEMBL2112249
REMARK  8 active torsions:
REMARK  status: ('A' for Active; 'I' for Inactive)
REMARK    1  A    between atoms: CD1_1  and  CG1_2
REMARK    2  A    between atoms: CG1_2  and  CB_3
REMARK    3  A    between atoms: CB_3  and  CG2_4
REMARK    4  A    between atoms: CB_3  and  CA_5
REMARK    5  A    between atoms: C_9  and  C_10
REMARK    6  A    between atoms: C_10  and  C_11
REMARK    7  A    between atoms: CA_31  and  CB_32
REMARK    8  A    between atoms: CB_32  and  CG_33
REMARK                            x       y       z     vdW  Elec       q    Type
REMARK                         _______ _______ _______ _____ _____    ______ ____
ROOT
ATOM      1  CA  ILE A   1       4.520  -0.689   1.181  0.00  0.00    +0.000 C 
ATOM      2  N   ILE A   1       5.255  -0.416   2.395  0.00  0.00    +0.000 N 
ATOM      3  C   UNK A   6       5.477  -1.252   3.473  0.00  0.00    +0.000 C 
ATOM      4  O   UNK A   6       4.987  -2.369   3.600  0.00  0.00    +0.000 OA
ATOM      5  C   UNK A   6       6.600  -0.760   4.435  0.00  0.00    +0.000 C 
ATOM      6  N   UNK A   6       7.175  -1.973   5.240  0.00  0.00    +0.000 N 
ATOM      7  C   PRO A   5       8.574  -2.271   5.336  0.00  0.00    +0.000 C 
ATOM      8  O   PRO A   5       9.161  -1.412   6.055  0.00  0.00    +0.000 OA
ATOM      9  CA  PRO A   5       9.410  -3.106   3.709  0.00  0.00    +0.000 C 
ATOM     10  CB  PRO A   5       9.589  -1.682   2.504  0.00  0.00    +0.000 C 
ATOM     11  CG  PRO A   5       8.647  -1.830   3.373  0.00  0.00    +0.000 C 
ATOM     12  CD  PRO A   5      10.445  -2.088   4.139  0.00  0.00    +0.000 C 
ATOM     13  N   PRO A   5      10.781  -3.298   3.570  0.00  0.00    +0.000 N 
ATOM     14  C   HIS A   4      11.568  -3.353   2.323  0.00  0.00    +0.000 C 
ATOM     15  O   HIS A   4      12.084  -4.440   2.021  0.00  0.00    +0.000 OA
ATOM     16  CA  HIS A   4      11.758  -2.134   1.114  0.00  0.00    +0.000 C 
ATOM     17  N   HIS A   4      11.932  -2.730  -0.355  0.00  0.00    +0.000 N 
ATOM     18  C   LYS A   3      11.435  -2.187  -1.577  0.00  0.00    +0.000 C 
ATOM     19  O   LYS A   3      12.115  -1.236  -2.008  0.00  0.00    +0.000 OA
ATOM     20  CA  LYS A   3       9.701  -2.402  -2.203  0.00  0.00    +0.000 C 
ATOM     21  CB  LYS A   3       8.552  -3.031  -1.384  0.00  0.00    +0.000 C 
ATOM     22  CG  LYS A   3       9.342  -3.926  -0.599  0.00  0.00    +0.000 C 
ATOM     23  CD  LYS A   3       9.192  -2.713   0.252  0.00  0.00    +0.000 C 
ATOM     24  CE  LYS A   3       9.529  -0.963  -0.587  0.00  0.00    +0.000 C 
ATOM     25  N   LYS A   3       9.173  -1.098  -1.962  0.00  0.00    +0.000 N 
ATOM     26  C   LYS A   2       7.821  -0.874  -2.244  0.00  0.00    +0.000 C 
ATOM     27  O   LYS A   2       7.329  -1.473  -3.192  0.00  0.00    +0.000 OA
ATOM     28  CA  LYS A   2       7.020   0.029  -0.899  0.00  0.00    +0.000 C 
ATOM     29  CB  LYS A   2       6.981   1.523  -1.060  0.00  0.00    +0.000 C 
ATOM     30  CG  LYS A   2       7.905   1.703  -2.182  0.00  0.00    +0.000 C 
ATOM     31  CD  LYS A   2       6.640   1.530  -3.057  0.00  0.00    +0.000 C 
ATOM     32  CE  LYS A   2       5.442   0.176  -2.421  0.00  0.00    +0.000 C 
ATOM     33  N   LYS A   2       5.648  -0.229  -0.976  0.00  0.00    +0.000 N 
ATOM     34  C   ILE A   1       4.961   0.337   0.140  0.00  0.00    +0.000 C 
ATOM     35  O   ILE A   1       4.790   1.519   0.370  0.00  0.00    +0.000 OA
ATOM     36  H   ILE A   1       5.581   0.541   2.418  0.00  0.00    +0.000 HD
ATOM     37  H   UNK A   6       6.658  -2.811   5.034  0.00  0.00    +0.000 HD
ATOM     38  H   HIS A   4      11.920  -3.739  -0.329  0.00  0.00    +0.000 HD
ENDROOT
BRANCH   1  39
ATOM     39  CB  ILE A   1       2.991  -0.556   1.304  0.00  0.00    +0.000 C 
ATOM     40  CG2 ILE A   1       2.370  -0.145  -0.046  0.00  0.00    +0.000 C 
BRANCH  39  42
ATOM     41  CD1 ILE A   1       2.865  -3.079   0.977  0.00  0.00    +0.000 C 
ATOM     42  CG1 ILE A   1       2.405  -1.877   1.793  0.00  0.00    +0.000 C 
ENDBRANCH  39  42
ENDBRANCH   1  39
BRANCH   5  43
ATOM     43  C   UNK A   6       6.622   0.553   5.165  0.00  0.00    +0.000 C 
BRANCH  43  44
ATOM     44  C   UNK A   6       6.014   1.700   4.393  0.00  0.00    +0.000 A 
ATOM     45  C   UNK A   6       4.653   1.624   4.061  0.00  0.00    +0.000 A 
ATOM     46  C   UNK A   6       4.097   2.504   3.150  0.00  0.00    +0.000 A 
ATOM     47  C   UNK A   6       4.781   3.656   2.822  0.00  0.00    +0.000 A 
ATOM     48  C   UNK A   6       4.095   4.664   2.154  0.00  0.00    +0.000 A 
ATOM     49  C   UNK A   6       4.689   5.908   2.014  0.00  0.00    +0.000 A 
ATOM     50  C   UNK A   6       5.994   6.112   2.465  0.00  0.00    +0.000 A 
ATOM     51  C   UNK A   6       6.725   5.066   3.034  0.00  0.00    +0.000 A 
ATOM     52  C   UNK A   6       6.119   3.827   3.247  0.00  0.00    +0.000 A 
ATOM     53  C   UNK A   6       6.768   2.783   3.926  0.00  0.00    +0.000 A 
ENDBRANCH  43  44
ENDBRANCH   5  43
BRANCH  16  54
ATOM     54  CB  HIS A   4      12.348  -0.731   1.339  0.00  0.00    +0.000 C 
BRANCH  54  55
ATOM     55  CG  HIS A   4      12.064   0.055   2.597  0.00  0.00    +0.000 A 
ATOM     56  CD2 HIS A   4      11.290   1.184   2.830  0.00  0.00    +0.000 A 
ATOM     57  NE2 HIS A   4      11.241   1.328   4.198  0.00  0.00    +0.000 N 
ATOM     58  CE1 HIS A   4      11.961   0.308   4.734  0.00  0.00    +0.000 A 
ATOM     59  ND1 HIS A   4      12.653  -0.301   3.789  0.00  0.00    +0.000 NA
ATOM     60  HE2 HIS A   4      10.793   2.054   4.740  0.00  0.00    +0.000 HD
ENDBRANCH  54  55
ENDBRANCH  16  54
TORSDOF 6
