REMARK  Name = CHEMBL2113196
REMARK  15 active torsions:
REMARK  status: ('A' for Active; 'I' for Inactive)
REMARK    1  A    between atoms: C_1  and  N_2
REMARK    2  A    between atoms: N_2  and  C_3
REMARK    3  A    between atoms: N_2  and  C_4
REMARK    4  A    between atoms: C_4  and  C_5
REMARK    5  A    between atoms: C_5  and  C_6
REMARK    6  A    between atoms: C_6  and  O_7
REMARK    7  A    between atoms: O_7  and  C_8
REMARK    8  A    between atoms: C_11  and  S_12
REMARK    9  A    between atoms: S_12  and  N_15
REMARK   10  A    between atoms: N_15  and  C_16
REMARK   11  A    between atoms: N_15  and  C_35
REMARK   12  A    between atoms: C_16  and  C_17
REMARK   13  A    between atoms: N_19  and  N_20
REMARK   14  A    between atoms: N_24  and  C_25
REMARK   15  A    between atoms: C_25  and  C_26
REMARK                            x       y       z     vdW  Elec       q    Type
REMARK                         _______ _______ _______ _____ _____    ______ ____
ROOT
ATOM      1  N   UNL     1       8.646   7.977   4.102  0.00  0.00    +0.000 N 
ENDROOT
BRANCH   1   2
ATOM      2  C   UNL     1       9.145   9.326   4.549  0.00  0.00    +0.000 A 
ATOM      3  C   UNL     1       9.071   9.647   5.923  0.00  0.00    +0.000 A 
ATOM      4  C   UNL     1       9.270  10.955   6.406  0.00  0.00    +0.000 A 
ATOM      5  C   UNL     1       9.656  11.963   5.533  0.00  0.00    +0.000 A 
ATOM      6 CL   UNL     1      10.050  13.525   6.141  0.00  0.00    +0.000 Cl
ATOM      7  C   UNL     1       9.754  11.687   4.173  0.00  0.00    +0.000 A 
ATOM      8  C   UNL     1       9.478  10.386   3.686  0.00  0.00    +0.000 A 
ENDBRANCH   1   2
BRANCH   1   9
ATOM      9  S   UNL     1       9.413   7.266   2.667  0.00  0.00    +0.000 S 
ATOM     10  O   UNL     1      10.776   6.969   3.077  0.00  0.00    +0.000 OA
ATOM     11  O   UNL     1       9.215   8.186   1.559  0.00  0.00    +0.000 OA
BRANCH   9  15
ATOM     12  C   UNL     1       7.098   3.705   0.814  0.00  0.00    +0.000 A 
ATOM     13  C   UNL     1       8.286   4.111   0.206  0.00  0.00    +0.000 A 
ATOM     14  C   UNL     1       9.078   5.141   0.797  0.00  0.00    +0.000 A 
ATOM     15  C   UNL     1       8.755   5.648   2.073  0.00  0.00    +0.000 A 
ATOM     16  C   UNL     1       7.774   4.963   2.753  0.00  0.00    +0.000 A 
ATOM     17  C   UNL     1       6.818   4.222   2.054  0.00  0.00    +0.000 A 
BRANCH  12  18
ATOM     18  O   UNL     1       6.376   2.661   0.315  0.00  0.00    +0.000 OA
BRANCH  18  19
ATOM     19  C   UNL     1       4.946   2.743   0.413  0.00  0.00    +0.000 C 
BRANCH  19  20
ATOM     20  C   UNL     1       4.401   1.334   0.255  0.00  0.00    +0.000 C 
BRANCH  20  21
ATOM     21  C   UNL     1       2.869   1.318   0.202  0.00  0.00    +0.000 C 
BRANCH  21  23
ATOM     22  C   UNL     1       0.907  -0.054  -0.025  0.00  0.00    +0.000 C 
ATOM     23  N   UNL     1       2.365  -0.029  -0.101  0.00  0.00    +0.000 NA
ATOM     24  C   UNL     1       2.817  -0.445  -1.425  0.00  0.00    +0.000 C 
ENDBRANCH  21  23
ENDBRANCH  20  21
ENDBRANCH  19  20
ENDBRANCH  18  19
ENDBRANCH  12  18
ENDBRANCH   9  15
ENDBRANCH   1   9
BRANCH   1  25
ATOM     25  C   UNL     1       7.252   7.667   4.643  0.00  0.00    +0.000 C 
BRANCH  25  26
ATOM     26  C   UNL     1       6.176   6.938   3.834  0.00  0.00    +0.000 C 
ATOM     27  O   UNL     1       6.203   7.087   2.612  0.00  0.00    +0.000 OA
ATOM     28  N   UNL     1       5.210   6.151   4.555  0.00  0.00    +0.000 N 
ATOM     29  H   UNL     1       5.252   6.144   5.578  0.00  0.00    +0.000 HD
BRANCH  28  30
ATOM     30  N   UNL     1       3.813   5.817   4.070  0.00  0.00    +0.000 NA
ATOM     31  C   UNL     1       3.093   5.024   4.870  0.00  0.00    +0.000 C 
ATOM     32  C   UNL     1       3.765   3.883   5.516  0.00  0.00    +0.000 C 
ATOM     33  O   UNL     1       4.529   4.290   6.393  0.00  0.00    +0.000 OA
ATOM     34  N   UNL     1       2.868   2.823   5.581  0.00  0.00    +0.000 N 
ATOM     35  C   UNL     1       1.798   3.480   6.169  0.00  0.00    +0.000 A 
ATOM     36  C   UNL     1       1.109   2.736   7.137  0.00  0.00    +0.000 A 
ATOM     37  C   UNL     1       0.268   3.405   7.967  0.00  0.00    +0.000 A 
ATOM     38  C   UNL     1       0.178   4.791   7.769  0.00  0.00    +0.000 A 
ATOM     39  C   UNL     1       0.902   5.534   6.709  0.00  0.00    +0.000 A 
ATOM     40  C   UNL     1       1.774   4.868   5.837  0.00  0.00    +0.000 A 
BRANCH  34  41
ATOM     41  C   UNL     1       2.254   1.920   4.528  0.00  0.00    +0.000 C 
BRANCH  41  42
ATOM     42  C   UNL     1       3.264   1.376   3.554  0.00  0.00    +0.000 C 
ATOM     43  N   UNL     1       4.300   2.264   3.374  0.00  0.00    +0.000 N 
ATOM     44  O   UNL     1       3.138   0.355   2.976  0.00  0.00    +0.000 OA
ATOM     45  H   UNL     1       4.183   3.236   3.579  0.00  0.00    +0.000 HD
ATOM     46  H   UNL     1       5.098   2.024   2.813  0.00  0.00    +0.000 HD
ENDBRANCH  41  42
ENDBRANCH  34  41
ENDBRANCH  28  30
ENDBRANCH  25  26
ENDBRANCH   1  25
TORSDOF 13
