REMARK  Name = CHEMBL371291
REMARK  14 active torsions:
REMARK  status: ('A' for Active; 'I' for Inactive)
REMARK    1  A    between atoms: CD1_1  and  CG_2
REMARK    2  A    between atoms: CG_2  and  CD2_3
REMARK    3  A    between atoms: CG_2  and  CB_4
REMARK    4  A    between atoms: CB_4  and  CA_5
REMARK    5  A    between atoms: C_9  and  C_10
REMARK    6  A    between atoms: N_21  and  C_22
REMARK    7  A    between atoms: C_22  and  C_23
REMARK    8  A    between atoms: C_22  and  C_29
REMARK    9  A    between atoms: N_25  and  C_26
REMARK   10  A    between atoms: C_26  and  C_27
REMARK   11  A    between atoms: C_26  and  C_28
REMARK   12  A    between atoms: C_32  and  N_33
REMARK   13  A    between atoms: N_33  and  C_34
REMARK   14  A    between atoms: N_33  and  C_35
REMARK                            x       y       z     vdW  Elec       q    Type
REMARK                         _______ _______ _______ _____ _____    ______ ____
ROOT
ATOM      1  CA  LEU A   2       2.914   0.449  -3.451  0.00  0.00    +0.000 C 
ATOM      2  C   LEU A   2       1.519   1.029  -3.212  0.00  0.00    +0.000 C 
ATOM      3  O   LEU A   2       1.235   2.122  -2.791  0.00  0.00    +0.000 OA
ATOM      4  N   UNK A   1       0.558   0.162  -3.634  0.00  0.00    +0.000 N 
ATOM      5  C   UNK A   1       0.870  -1.146  -4.183  0.00  0.00    +0.000 C 
ATOM      6  C   UNK A   1       2.021  -1.793  -3.343  0.00  0.00    +0.000 C 
ATOM      7  O   UNK A   1       2.077  -3.013  -3.208  0.00  0.00    +0.000 OA
ATOM      8  N   LEU A   2       3.002  -0.898  -2.852  0.00  0.00    +0.000 N 
ATOM      9  H   UNK A   1      -0.381   0.524  -3.542  0.00  0.00    +0.000 HD
ENDROOT
BRANCH   5  10
ATOM     10  C   UNK A   1      -0.326  -2.117  -4.081  0.00  0.00    +0.000 C 
ATOM     11  C   UNK A   1      -1.596  -1.617  -4.795  0.00  0.00    +0.000 C 
ATOM     12  C   UNK A   1      -2.249  -0.823  -3.703  0.00  0.00    +0.000 A 
ATOM     13  C   UNK A   1      -3.139   0.225  -3.833  0.00  0.00    +0.000 A 
ATOM     14  C   UNK A   1      -3.491   0.935  -2.682  0.00  0.00    +0.000 A 
ATOM     15  C   UNK A   1      -2.942   0.603  -1.433  0.00  0.00    +0.000 A 
ATOM     16  C   UNK A   1      -2.045  -0.457  -1.308  0.00  0.00    +0.000 A 
ATOM     17  C   UNK A   1      -1.729  -1.176  -2.448  0.00  0.00    +0.000 A 
ATOM     18  C   UNK A   1      -0.716  -2.269  -2.584  0.00  0.00    +0.000 C 
ENDBRANCH   5  10
BRANCH   1  19
ATOM     19  CB  LEU A   2       3.903   1.422  -2.956  0.00  0.00    +0.000 C 
BRANCH  19  21
ATOM     20  CD1 LEU A   2       6.097   2.310  -3.296  0.00  0.00    +0.000 C 
ATOM     21  CG  LEU A   2       5.116   1.407  -3.918  0.00  0.00    +0.000 C 
ATOM     22  CD2 LEU A   2       5.818   0.088  -4.241  0.00  0.00    +0.000 C 
ENDBRANCH  19  21
ENDBRANCH   1  19
BRANCH   8  23
ATOM     23  C   UNK A   0       4.216  -1.468  -2.079  0.00  0.00    +0.000 C 
BRANCH  23  24
ATOM     24  C   UNK A   0       4.919  -2.578  -2.948  0.00  0.00    +0.000 A 
ATOM     25  C   UNK A   0       4.573  -2.857  -4.283  0.00  0.00    +0.000 A 
ATOM     26  C   UNK A   0       5.178  -3.862  -5.030  0.00  0.00    +0.000 A 
ATOM     27  C   UNK A   0       6.294  -4.546  -4.567  0.00  0.00    +0.000 A 
ATOM     28  C   UNK A   0       6.660  -4.248  -3.241  0.00  0.00    +0.000 A 
ATOM     29  C   UNK A   0       5.976  -3.320  -2.437  0.00  0.00    +0.000 A 
BRANCH  27  30
ATOM     30  N   UNK A   0       6.986  -5.429  -5.376  0.00  0.00    +0.000 N 
ATOM     31  C   UNK A   0       6.622  -5.677  -6.772  0.00  0.00    +0.000 C 
ATOM     32  C   UNK A   0       8.221  -6.069  -4.941  0.00  0.00    +0.000 C 
ENDBRANCH  27  30
ENDBRANCH  23  24
BRANCH  23  33
ATOM     33  C   UNK A   0       5.434  -0.560  -1.240  0.00  0.00    +0.000 C 
ATOM     34  O   UNK A   0       6.646  -0.725  -1.444  0.00  0.00    +0.000 OA
ATOM     35  N   UNK A   0       5.127   0.386  -0.268  0.00  0.00    +0.000 N 
ATOM     36  H   UNK A   0       4.194   0.393   0.126  0.00  0.00    +0.000 HD
BRANCH  35  37
ATOM     37  C   UNK A   0       6.167   1.348   0.261  0.00  0.00    +0.000 C 
ATOM     38  C   UNK A   0       6.541   2.545  -0.615  0.00  0.00    +0.000 C 
ATOM     39  C   UNK A   0       5.698   2.036   1.508  0.00  0.00    +0.000 C 
ENDBRANCH  35  37
ENDBRANCH  23  33
ENDBRANCH   8  23
TORSDOF 8
