REMARK  Name = CHEMBL403149
REMARK  9 active torsions:
REMARK  status: ('A' for Active; 'I' for Inactive)
REMARK    1  A    between atoms: C_1  and  C_2
REMARK    2  A    between atoms: C_4  and  C_5
REMARK    3  A    between atoms: C_5  and  C_6
REMARK    4  A    between atoms: C_5  and  N_12
REMARK    5  A    between atoms: C_15  and  C_16
REMARK    6  A    between atoms: CA_28  and  CB_29
REMARK    7  A    between atoms: CB_29  and  CG_30
REMARK    8  A    between atoms: CG_30  and  CD1_31
REMARK    9  A    between atoms: CG_30  and  CD2_32
REMARK                            x       y       z     vdW  Elec       q    Type
REMARK                         _______ _______ _______ _____ _____    ______ ____
ROOT
ATOM      1  N   LEU A   1      -2.302   2.967   0.249  0.00  0.00    +0.000 N 
ATOM      2  C   UNK A   2      -2.099   3.723  -0.911  0.00  0.00    +0.000 C 
ATOM      3  O   UNK A   2      -2.412   3.303  -1.999  0.00  0.00    +0.000 OA
ATOM      4  C   UNK A   2      -1.369   5.088  -0.666  0.00  0.00    +0.000 C 
ATOM      5  N   UNK A   2      -2.315   5.841   0.083  0.00  0.00    +0.000 N 
ATOM      6  C   LEU A   1      -2.706   5.354   1.290  0.00  0.00    +0.000 C 
ATOM      7  O   LEU A   1      -3.194   6.133   2.082  0.00  0.00    +0.000 OA
ATOM      8  CA  LEU A   1      -2.503   3.797   1.493  0.00  0.00    +0.000 C 
ATOM      9  H   UNK A   2      -2.565   6.802  -0.116  0.00  0.00    +0.000 HD
ENDROOT
BRANCH   4  10
ATOM     10  C   UNK A   2      -0.943   5.861  -1.896  0.00  0.00    +0.000 C 
ATOM     11  C   UNK A   2       0.301   5.274  -2.578  0.00  0.00    +0.000 C 
ATOM     12  C   UNK A   2       0.101   5.700  -3.983  0.00  0.00    +0.000 A 
ATOM     13  C   UNK A   2       1.020   5.627  -5.008  0.00  0.00    +0.000 A 
ATOM     14  C   UNK A   2       0.612   6.055  -6.266  0.00  0.00    +0.000 A 
ATOM     15  C   UNK A   2      -0.707   6.490  -6.483  0.00  0.00    +0.000 A 
ATOM     16  C   UNK A   2      -1.643   6.491  -5.450  0.00  0.00    +0.000 A 
ATOM     17  C   UNK A   2      -1.219   6.106  -4.199  0.00  0.00    +0.000 A 
ATOM     18  C   UNK A   2      -2.045   5.990  -2.965  0.00  0.00    +0.000 C 
ENDBRANCH   4  10
BRANCH   1  19
ATOM     19  C   UNK A   0      -2.583   1.419   0.081  0.00  0.00    +0.000 C 
BRANCH  19  23
ATOM     20  C   UNK A   0      -6.295   0.722   3.615  0.00  0.00    +0.000 C 
ATOM     21  C   UNK A   0      -5.139   0.493   2.661  0.00  0.00    +0.000 A 
ATOM     22  N   UNK A   0      -4.907   0.825   1.386  0.00  0.00    +0.000 NA
ATOM     23  C   UNK A   0      -3.483   0.675   1.203  0.00  0.00    +0.000 A 
ATOM     24  C   UNK A   0      -3.055  -0.030   2.308  0.00  0.00    +0.000 A 
ATOM     25  O   UNK A   0      -4.037  -0.061   3.252  0.00  0.00    +0.000 OA
ENDBRANCH  19  23
BRANCH  19  26
ATOM     26  C   UNK A   0      -1.188   0.635  -0.131  0.00  0.00    +0.000 C 
ATOM     27  O   UNK A   0      -0.786  -0.225   0.656  0.00  0.00    +0.000 OA
ATOM     28  N   UNK A   0      -0.472   0.877  -1.286  0.00  0.00    +0.000 N 
ATOM     29  C   UNK A   0       0.550   0.151  -2.032  0.00  0.00    +0.000 C 
ATOM     30  C   UNK A   0       1.224   1.507  -2.291  0.00  0.00    +0.000 C 
ATOM     31  C   UNK A   0      -0.103   2.106  -1.921  0.00  0.00    +0.000 C 
ENDBRANCH  19  26
ENDBRANCH   1  19
BRANCH   8  32
ATOM     32  CB  LEU A   1      -3.785   3.350   2.148  0.00  0.00    +0.000 C 
BRANCH  32  33
ATOM     33  CG  LEU A   1      -5.071   4.164   2.037  0.00  0.00    +0.000 C 
ATOM     34  CD1 LEU A   1      -5.459   4.368   0.561  0.00  0.00    +0.000 C 
ATOM     35  CD2 LEU A   1      -6.248   3.464   2.647  0.00  0.00    +0.000 C 
ENDBRANCH  32  33
ENDBRANCH   8  32
TORSDOF 6
