REMARK  Name = CHEMBL209917
REMARK  9 active torsions:
REMARK  status: ('A' for Active; 'I' for Inactive)
REMARK    1  A    between atoms: CD1_1  and  CG_2
REMARK    2  A    between atoms: CG_2  and  CD2_3
REMARK    3  A    between atoms: CG_2  and  CB_4
REMARK    4  A    between atoms: CB_4  and  CA_5
REMARK    5  A    between atoms: CA_9  and  C_10
REMARK    6  A    between atoms: N_21  and  CA_22
REMARK    7  A    between atoms: CA_22  and  C_23
REMARK    8  A    between atoms: CA_22  and  C_25
REMARK    9  A    between atoms: C_23  and  O_24
REMARK                            x       y       z     vdW  Elec       q    Type
REMARK                         _______ _______ _______ _____ _____    ______ ____
ROOT
ATOM      1  CA  UNL     1       4.609   0.498  -1.407  0.00  0.00    +0.000 C 
ATOM      2  C   UNL     1       5.270  -0.876  -1.158  0.00  0.00    +0.000 C 
ATOM      3  O   UNL     1       4.933  -1.932  -1.637  0.00  0.00    +0.000 OA
ATOM      4  N   UNL     1       6.354  -0.807  -0.341  0.00  0.00    +0.000 N 
ATOM      5  CA  UNL     1       7.227   0.324  -0.480  0.00  0.00    +0.000 C 
ATOM      6  C   UNL     1       6.451   1.603  -0.180  0.00  0.00    +0.000 C 
ATOM      7  O   UNL     1       7.105   2.542   0.258  0.00  0.00    +0.000 OA
ATOM      8  N   UNL     1       5.069   1.601  -0.466  0.00  0.00    +0.000 N 
ATOM      9  H   UNL     1       6.728  -1.721  -0.126  0.00  0.00    +0.000 HD
ENDROOT
BRANCH   5  10
ATOM     10  C   UNL     1       8.435   0.280   0.488  0.00  0.00    +0.000 C 
ATOM     11  C   UNL     1       9.316  -0.950   0.224  0.00  0.00    +0.000 C 
ATOM     12  C   UNL     1       8.679  -1.952   1.138  0.00  0.00    +0.000 A 
ATOM     13  C   UNL     1       8.693  -3.328   1.017  0.00  0.00    +0.000 A 
ATOM     14  C   UNL     1       7.911  -4.072   1.902  0.00  0.00    +0.000 A 
ATOM     15  C   UNL     1       7.127  -3.439   2.881  0.00  0.00    +0.000 A 
ATOM     16  C   UNL     1       7.110  -2.048   2.991  0.00  0.00    +0.000 A 
ATOM     17  C   UNL     1       7.897  -1.319   2.117  0.00  0.00    +0.000 A 
ATOM     18  C   UNL     1       7.960   0.169   1.963  0.00  0.00    +0.000 C 
ENDBRANCH   5  10
BRANCH   1  19
ATOM     19  CB  UNL     1       3.096   0.236  -1.440  0.00  0.00    +0.000 C 
BRANCH  19  21
ATOM     20  CD1 UNL     1       0.939  -0.328  -0.101  0.00  0.00    +0.000 C 
ATOM     21  CG  UNL     1       2.475  -0.325  -0.109  0.00  0.00    +0.000 C 
ATOM     22  CD2 UNL     1       2.928  -1.713   0.317  0.00  0.00    +0.000 C 
ENDBRANCH  19  21
ENDBRANCH   1  19
BRANCH   8  23
ATOM     23  CA  UNL     1       4.218   2.850  -0.176  0.00  0.00    +0.000 C 
BRANCH  23  24
ATOM     24  C   UNL     1       4.935   3.949   0.648  0.00  0.00    +0.000 A 
ATOM     25  C   UNL     1       5.935   4.740   0.058  0.00  0.00    +0.000 A 
ATOM     26  C   UNL     1       6.727   5.565   0.865  0.00  0.00    +0.000 A 
ATOM     27  C   UNL     1       6.441   5.715   2.219  0.00  0.00    +0.000 A 
ATOM     28  F   UNL     1       7.192   6.515   2.982  0.00  0.00    +0.000 F 
ATOM     29  C   UNL     1       5.407   5.032   2.807  0.00  0.00    +0.000 A 
ATOM     30  C   UNL     1       4.705   4.135   2.041  0.00  0.00    +0.000 A 
ATOM     31  F   UNL     1       3.791   3.442   2.738  0.00  0.00    +0.000 F 
ENDBRANCH  23  24
BRANCH  23  32
ATOM     32  C   UNL     1       2.938   2.589   0.664  0.00  0.00    +0.000 C 
BRANCH  32  33
ATOM     33  O   UNL     1       1.722   2.262   0.050  0.00  0.00    +0.000 OA
ATOM     34  H   UNL     1       1.745   2.417  -0.899  0.00  0.00    +0.000 HD
ENDBRANCH  32  33
ENDBRANCH  23  32
ENDBRANCH   8  23
TORSDOF 7
