REMARK  Name = CHEMBL481568
REMARK  9 active torsions:
REMARK  status: ('A' for Active; 'I' for Inactive)
REMARK    1  A    between atoms: C_1  and  O_2
REMARK    2  A    between atoms: O_2  and  C_3
REMARK    3  A    between atoms: C_6  and  C_7
REMARK    4  A    between atoms: C_9  and  C_10
REMARK    5  A    between atoms: C_13  and  C_14
REMARK    6  A    between atoms: N_16  and  C_17
REMARK    7  A    between atoms: N_16  and  C_24
REMARK    8  A    between atoms: C_17  and  C_18
REMARK    9  A    between atoms: C_24  and  C_25
REMARK                            x       y       z     vdW  Elec       q    Type
REMARK                         _______ _______ _______ _____ _____    ______ ____
ROOT
ATOM      1  C   UNL     1       6.049  -4.134  -2.632  0.00  0.00    +0.000 C 
ATOM      2  O   UNL     1       7.173  -4.520  -2.346  0.00  0.00    +0.000 OA
ATOM      3  N   UNL     1       5.286  -4.805  -3.645  0.00  0.00    +0.000 N 
ENDROOT
BRANCH   1   7
ATOM      4  C   UNL     1       4.777  -0.163  -1.372  0.00  0.00    +0.000 A 
ATOM      5  C   UNL     1       3.869  -1.136  -1.786  0.00  0.00    +0.000 A 
ATOM      6  C   UNL     1       4.225  -2.472  -1.942  0.00  0.00    +0.000 A 
ATOM      7  C   UNL     1       5.562  -2.847  -1.960  0.00  0.00    +0.000 A 
ATOM      8  C   UNL     1       6.500  -1.888  -1.521  0.00  0.00    +0.000 A 
ATOM      9  C   UNL     1       6.103  -0.568  -1.199  0.00  0.00    +0.000 A 
BRANCH   4  16
ATOM     10  C   UNL     1       3.115   1.276  -0.213  0.00  0.00    +0.000 A 
ATOM     11  C   UNL     1       2.698   2.507   0.271  0.00  0.00    +0.000 A 
ATOM     12  C   UNL     1       3.365   3.665  -0.114  0.00  0.00    +0.000 A 
ATOM     13  C   UNL     1       4.441   3.612  -1.008  0.00  0.00    +0.000 A 
ATOM     14  C   UNL     1       5.127   4.881  -1.423  0.00  0.00    +0.000 C 
ATOM     15  C   UNL     1       4.882   2.362  -1.475  0.00  0.00    +0.000 A 
ATOM     16  C   UNL     1       4.262   1.175  -1.038  0.00  0.00    +0.000 A 
BRANCH  10  18
ATOM     17  C   UNL     1       1.088   0.101   0.086  0.00  0.00    +0.000 C 
ATOM     18  O   UNL     1       2.507   0.119   0.222  0.00  0.00    +0.000 OA
ENDBRANCH  10  18
ENDBRANCH   4  16
ENDBRANCH   1   7
BRANCH   3  19
ATOM     19  C   UNL     1       4.080  -4.278  -4.318  0.00  0.00    +0.000 C 
BRANCH  19  20
ATOM     20  C   UNL     1       4.103  -2.834  -4.778  0.00  0.00    +0.000 A 
ATOM     21  C   UNL     1       2.872  -2.172  -4.930  0.00  0.00    +0.000 A 
ATOM     22  C   UNL     1       2.827  -0.778  -4.920  0.00  0.00    +0.000 A 
ATOM     23  C   UNL     1       3.998  -0.048  -4.717  0.00  0.00    +0.000 A 
ATOM     24  C   UNL     1       5.225  -0.704  -4.645  0.00  0.00    +0.000 A 
ATOM     25  C   UNL     1       5.290  -2.087  -4.792  0.00  0.00    +0.000 A 
ENDBRANCH  19  20
ENDBRANCH   3  19
BRANCH   3  26
ATOM     26  C   UNL     1       5.756  -6.158  -4.067  0.00  0.00    +0.000 C 
BRANCH  26  27
ATOM     27  C   UNL     1       4.750  -6.976  -4.916  0.00  0.00    +0.000 C 
ATOM     28  C   UNL     1       5.042  -8.456  -5.066  0.00  0.00    +0.000 C 
ATOM     29  C   UNL     1       4.424  -8.776  -6.411  0.00  0.00    +0.000 C 
ATOM     30  C   UNL     1       4.652  -7.513  -7.203  0.00  0.00    +0.000 C 
ATOM     31  O   UNL     1       4.710  -6.448  -6.260  0.00  0.00    +0.000 OA
ENDBRANCH  26  27
ENDBRANCH   3  26
TORSDOF 7
