REMARK  Name = CHEMBL382515
REMARK  10 active torsions:
REMARK  status: ('A' for Active; 'I' for Inactive)
REMARK    1  A    between atoms: C_1  and  C_2
REMARK    2  A    between atoms: C_5  and  N_6
REMARK    3  A    between atoms: N_6  and  C_7
REMARK    4  A    between atoms: N_6  and  S_22
REMARK    5  A    between atoms: C_7  and  C_8
REMARK    6  A    between atoms: C_8  and  N_10
REMARK    7  A    between atoms: N_11  and  C_12
REMARK    8  A    between atoms: C_13  and  O_14
REMARK    9  A    between atoms: S_22  and  C_25
REMARK   10  A    between atoms: C_28  and  C_29
REMARK                            x       y       z     vdW  Elec       q    Type
REMARK                         _______ _______ _______ _____ _____    ______ ____
ROOT
ATOM      1  N   UNL     1      -3.192  -0.036   0.039  0.00  0.00    +0.000 N 
ENDROOT
BRANCH   1   6
ATOM      2  C   UNL     1       2.609   0.114  -0.040  0.00  0.00    +0.000 C 
ATOM      3  C   UNL     1       1.119   0.158  -0.044  0.00  0.00    +0.000 A 
ATOM      4  C   UNL     1       0.449  -1.037   0.051  0.00  0.00    +0.000 A 
ATOM      5  C   UNL     1      -0.917  -1.018   0.263  0.00  0.00    +0.000 A 
ATOM      6  C   UNL     1      -1.730   0.101   0.073  0.00  0.00    +0.000 A 
ATOM      7  C   UNL     1      -1.041   1.310  -0.027  0.00  0.00    +0.000 A 
ATOM      8  C   UNL     1       0.371   1.340  -0.036  0.00  0.00    +0.000 A 
ENDBRANCH   1   6
BRANCH   1   9
ATOM      9  S   UNL     1      -4.149   1.423  -0.022  0.00  0.00    +0.000 S 
ATOM     10  O   UNL     1      -3.921   2.127   1.226  0.00  0.00    +0.000 OA
ATOM     11  O   UNL     1      -3.857   2.083  -1.283  0.00  0.00    +0.000 OA
BRANCH   9  12
ATOM     12  C   UNL     1      -5.925   1.129  -0.067  0.00  0.00    +0.000 A 
ATOM     13  C   UNL     1      -6.492  -0.132  -0.007  0.00  0.00    +0.000 A 
ATOM     14  C   UNL     1      -7.816  -0.372  -0.318  0.00  0.00    +0.000 A 
ATOM     15  C   UNL     1      -8.686   0.685  -0.488  0.00  0.00    +0.000 A 
ATOM     16  C   UNL     1      -8.181   1.988  -0.330  0.00  0.00    +0.000 A 
ATOM     17  C   UNL     1      -6.798   2.219  -0.201  0.00  0.00    +0.000 A 
BRANCH  15  18
ATOM     18  C   UNL     1     -10.077   0.410  -0.823  0.00  0.00    +0.000 A 
ATOM     19  C   UNL     1     -10.639   0.980  -1.970  0.00  0.00    +0.000 A 
ATOM     20  C   UNL     1     -12.004   0.870  -2.209  0.00  0.00    +0.000 A 
ATOM     21  C   UNL     1     -12.789   0.065  -1.388  0.00  0.00    +0.000 A 
ATOM     22  C   UNL     1     -12.204  -0.657  -0.351  0.00  0.00    +0.000 A 
ATOM     23  C   UNL     1     -10.864  -0.447  -0.037  0.00  0.00    +0.000 A 
ENDBRANCH  15  18
ENDBRANCH   9  12
ENDBRANCH   1   9
BRANCH   1  24
ATOM     24  C   UNL     1      -3.829  -1.386  -0.064  0.00  0.00    +0.000 C 
BRANCH  24  25
ATOM     25  C   UNL     1      -3.194  -2.730  -0.366  0.00  0.00    +0.000 C 
ATOM     26  O   UNL     1      -2.204  -2.816  -1.108  0.00  0.00    +0.000 OA
BRANCH  25  27
ATOM     27  N   UNL     1      -3.827  -3.873   0.110  0.00  0.00    +0.000 NA
ATOM     28  N   UNL     1      -2.945  -4.768   0.161  0.00  0.00    +0.000 NA
BRANCH  28  29
ATOM     29  C   UNL     1      -3.357  -6.092   0.053  0.00  0.00    +0.000 A 
ATOM     30  C   UNL     1      -2.781  -7.115   0.767  0.00  0.00    +0.000 A 
ATOM     31  N   UNL     1      -3.447  -8.263   0.423  0.00  0.00    +0.000 N 
ATOM     32  C   UNL     1      -4.377  -8.001  -0.564  0.00  0.00    +0.000 A 
ATOM     33  C   UNL     1      -5.293  -8.843  -1.208  0.00  0.00    +0.000 A 
ATOM     34  C   UNL     1      -6.111  -8.276  -2.195  0.00  0.00    +0.000 A 
ATOM     35  C   UNL     1      -5.998  -6.934  -2.549  0.00  0.00    +0.000 A 
ATOM     36  C   UNL     1      -5.078  -6.108  -1.901  0.00  0.00    +0.000 A 
ATOM     37  C   UNL     1      -4.286  -6.638  -0.864  0.00  0.00    +0.000 A 
ATOM     38  H   UNL     1      -3.276  -9.161   0.851  0.00  0.00    +0.000 HD
BRANCH  30  39
ATOM     39  O   UNL     1      -1.799  -7.145   1.662  0.00  0.00    +0.000 OA
ATOM     40  H   UNL     1      -1.433  -6.239   1.707  0.00  0.00    +0.000 HD
ENDBRANCH  30  39
ENDBRANCH  28  29
ENDBRANCH  25  27
ENDBRANCH  24  25
ENDBRANCH   1  24
TORSDOF 9
