REMARK  Name = CHEMBL105733
REMARK  6 active torsions:
REMARK  status: ('A' for Active; 'I' for Inactive)
REMARK    1  A    between atoms: C_1  and  O_2
REMARK    2  A    between atoms: O_2  and  C_3
REMARK    3  A    between atoms: C_5  and  O_6
REMARK    4  A    between atoms: O_6  and  C_7
REMARK    5  A    between atoms: C_19  and  C_20
REMARK    6  A    between atoms: C_25  and  N_26
REMARK                            x       y       z     vdW  Elec       q    Type
REMARK                         _______ _______ _______ _____ _____    ______ ____
ROOT
ATOM      1  C   UNL     1       3.324  -0.838   0.810  0.00  0.00    +0.000 A 
ATOM      2  C   UNL     1       4.777  -0.577   1.507  0.00  0.00    +0.000 A 
ATOM      3  C   UNL     1       5.796  -1.612   2.140  0.00  0.00    +0.000 A 
ATOM      4  C   UNL     1       5.133  -2.837   1.991  0.00  0.00    +0.000 A 
ATOM      5  C   UNL     1       3.724  -3.076   1.315  0.00  0.00    +0.000 A 
ATOM      6  C   UNL     1       2.799  -2.130   0.706  0.00  0.00    +0.000 A 
ENDROOT
BRANCH   6   7
ATOM      7  C   UNL     1       1.402  -2.661   0.121  0.00  0.00    +0.000 C 
ATOM      8  O   UNL     1       1.109  -3.839   0.373  0.00  0.00    +0.000 OA
ATOM      9  N   UNL     1       0.460  -1.867  -0.681  0.00  0.00    +0.000 N 
ATOM     10  C   UNL     1      -0.884  -1.410  -0.073  0.00  0.00    +0.000 C 
ATOM     11  C   UNL     1      -1.937  -1.215  -1.156  0.00  0.00    +0.000 C 
ATOM     12  C   UNL     1      -1.567   0.165  -2.333  0.00  0.00    +0.000 C 
ATOM     13  C   UNL     1      -0.099  -0.761  -2.906  0.00  0.00    +0.000 C 
ATOM     14  C   UNL     1       0.943  -1.014  -1.825  0.00  0.00    +0.000 C 
BRANCH  12  15
ATOM     15  N   UNL     1      -2.105   2.022  -2.311  0.00  0.00    +0.000 N 
ATOM     16  C   UNL     1      -3.320   1.361  -1.857  0.00  0.00    +0.000 C 
ATOM     17  O   UNL     1      -3.879   0.309  -2.127  0.00  0.00    +0.000 OA
ATOM     18  O   UNL     1      -3.661   1.905  -0.712  0.00  0.00    +0.000 OA
ATOM     19  C   UNL     1      -4.792   2.581  -1.089  0.00  0.00    +0.000 C 
ATOM     20  C   UNL     1      -4.123   3.855  -1.168  0.00  0.00    +0.000 A 
ATOM     21  C   UNL     1      -5.176   4.941  -0.534  0.00  0.00    +0.000 A 
ATOM     22  C   UNL     1      -5.193   6.296  -0.646  0.00  0.00    +0.000 A 
ATOM     23  C   UNL     1      -4.062   6.586  -1.364  0.00  0.00    +0.000 A 
ATOM     24  C   UNL     1      -2.956   5.406  -2.009  0.00  0.00    +0.000 A 
ATOM     25  C   UNL     1      -2.876   3.740  -1.912  0.00  0.00    +0.000 A 
ENDBRANCH  12  15
ENDBRANCH   6   7
BRANCH   1  27
ATOM     26  C   UNL     1       1.345   0.615   0.457  0.00  0.00    +0.000 C 
ATOM     27  O   UNL     1       2.731   0.309   0.235  0.00  0.00    +0.000 OA
ENDBRANCH   1  27
BRANCH   3  28
ATOM     28  O   UNL     1       7.244  -1.417   3.011  0.00  0.00    +0.000 OA
BRANCH  28  29
ATOM     29  C   UNL     1       8.698  -2.264   3.844  0.00  0.00    +0.000 C 
ATOM     30  C   UNL     1       9.224  -1.334   2.768  0.00  0.00    +0.000 C 
ATOM     31  C   UNL     1      10.014  -2.528   2.532  0.00  0.00    +0.000 C 
ATOM     32  C   UNL     1      11.251  -1.742   2.810  0.00  0.00    +0.000 C 
ATOM     33  C   UNL     1      11.495  -2.911   3.588  0.00  0.00    +0.000 A 
ATOM     34  C   UNL     1      11.762  -4.393   3.165  0.00  0.00    +0.000 A 
ATOM     35  C   UNL     1      12.434  -5.278   3.983  0.00  0.00    +0.000 A 
ATOM     36  C   UNL     1      13.002  -4.584   4.952  0.00  0.00    +0.000 A 
ATOM     37  C   UNL     1      12.060  -3.303   5.274  0.00  0.00    +0.000 A 
ATOM     38  C   UNL     1      10.661  -2.533   4.673  0.00  0.00    +0.000 A 
ENDBRANCH  28  29
ENDBRANCH   3  28
TORSDOF 5
