REMARK  Name = CHEMBL521444
REMARK  7 active torsions:
REMARK  status: ('A' for Active; 'I' for Inactive)
REMARK    1  A    between atoms: C_1  and  C_2
REMARK    2  A    between atoms: C_4  and  C_5
REMARK    3  A    between atoms: C_13  and  C_14
REMARK    4  A    between atoms: N_16  and  C_17
REMARK    5  A    between atoms: N_16  and  C_24
REMARK    6  A    between atoms: C_17  and  C_18
REMARK    7  A    between atoms: C_24  and  C_25
REMARK                            x       y       z     vdW  Elec       q    Type
REMARK                         _______ _______ _______ _____ _____    ______ ____
ROOT
ATOM      1  C   UNL     1       0.974   2.629   0.453  0.00  0.00    +0.000 C 
ATOM      2  O   UNL     1       0.305   3.627   0.402  0.00  0.00    +0.000 OA
ATOM      3  N   UNL     1       2.277   2.624  -0.094  0.00  0.00    +0.000 N 
ENDROOT
BRANCH   1  10
ATOM      4  C   UNL     1       2.855  -0.256   1.382  0.00  0.00    +0.000 C 
ATOM      5  C   UNL     1       1.116   0.004   1.285  0.00  0.00    +0.000 A 
ATOM      6  C   UNL     1       0.173  -1.120   1.282  0.00  0.00    +0.000 A 
ATOM      7  C   UNL     1      -1.318  -1.114   0.849  0.00  0.00    +0.000 A 
ATOM      8  C   UNL     1      -1.930   0.106   0.572  0.00  0.00    +0.000 A 
ATOM      9  C   UNL     1      -1.099   1.251   0.615  0.00  0.00    +0.000 A 
ATOM     10  C   UNL     1       0.387   1.248   0.913  0.00  0.00    +0.000 A 
BRANCH   7  11
ATOM     11  C   UNL     1      -2.051  -2.418   0.452  0.00  0.00    +0.000 A 
ATOM     12  C   UNL     1      -1.815  -3.515   1.274  0.00  0.00    +0.000 A 
ATOM     13  C   UNL     1      -2.278  -4.800   0.984  0.00  0.00    +0.000 A 
ATOM     14  C   UNL     1      -3.097  -5.032  -0.113  0.00  0.00    +0.000 A 
ATOM     15  C   UNL     1      -3.324  -4.000  -1.018  0.00  0.00    +0.000 A 
ATOM     16  C   UNL     1      -2.793  -2.706  -0.755  0.00  0.00    +0.000 A 
ENDBRANCH   7  11
ENDBRANCH   1  10
BRANCH   3  17
ATOM     17  C   UNL     1       2.921   1.439  -0.612  0.00  0.00    +0.000 C 
BRANCH  17  18
ATOM     18  C   UNL     1       2.204   0.056  -1.247  0.00  0.00    +0.000 A 
ATOM     19  C   UNL     1       2.589  -1.430  -1.004  0.00  0.00    +0.000 A 
ATOM     20  C   UNL     1       1.736  -2.540  -1.045  0.00  0.00    +0.000 A 
ATOM     21  C   UNL     1       0.467  -2.212  -1.396  0.00  0.00    +0.000 A 
ATOM     22  C   UNL     1       0.109  -0.850  -1.721  0.00  0.00    +0.000 A 
ATOM     23  C   UNL     1       0.951   0.274  -1.752  0.00  0.00    +0.000 A 
ENDBRANCH  17  18
ENDBRANCH   3  17
BRANCH   3  24
ATOM     24  C   UNL     1       3.171   3.838  -0.025  0.00  0.00    +0.000 C 
BRANCH  24  25
ATOM     25  C   UNL     1       4.777   3.616  -0.009  0.00  0.00    +0.000 C 
ATOM     26  C   UNL     1       5.485   4.525  -1.007  0.00  0.00    +0.000 C 
ATOM     27  C   UNL     1       6.671   3.714  -1.488  0.00  0.00    +0.000 C 
ATOM     28  C   UNL     1       6.160   2.305  -1.432  0.00  0.00    +0.000 C 
ATOM     29  O   UNL     1       5.305   2.293  -0.287  0.00  0.00    +0.000 OA
ENDBRANCH  24  25
ENDBRANCH   3  24
TORSDOF 6
