REMARK  Name = CHEMBL31213
REMARK  7 active torsions:
REMARK  status: ('A' for Active; 'I' for Inactive)
REMARK    1  A    between atoms: C_1  and  N_2
REMARK    2  A    between atoms: N_2  and  C_3
REMARK    3  A    between atoms: C_3  and  C_4
REMARK    4  A    between atoms: C_8  and  C_9
REMARK    5  A    between atoms: C_14  and  N_15
REMARK    6  A    between atoms: C_32  and  C_34
REMARK    7  A    between atoms: C_34  and  N_35
REMARK                            x       y       z     vdW  Elec       q    Type
REMARK                         _______ _______ _______ _____ _____    ______ ____
ROOT
ATOM      1  C   UNL     1       2.187  -1.116   2.192  0.00  0.00    +0.000 A 
ATOM      2  C   UNL     1       1.311  -0.407   2.992  0.00  0.00    +0.000 A 
ATOM      3  C   UNL     1       0.592  -1.348   3.765  0.00  0.00    +0.000 A 
ATOM      4  C   UNL     1      -0.453  -1.276   4.708  0.00  0.00    +0.000 A 
ATOM      5  C   UNL     1      -0.923  -2.457   5.309  0.00  0.00    +0.000 A 
ATOM      6  C   UNL     1      -0.376  -3.690   4.915  0.00  0.00    +0.000 A 
ATOM      7  C   UNL     1       0.666  -3.785   3.979  0.00  0.00    +0.000 A 
ATOM      8  C   UNL     1       1.114  -2.591   3.422  0.00  0.00    +0.000 A 
ATOM      9  O   UNL     1       2.085  -2.453   2.467  0.00  0.00    +0.000 OA
ENDROOT
BRANCH   5  10
ATOM     10  C   UNL     1      -2.053  -2.356   6.299  0.00  0.00    +0.000 C 
ATOM     11  O   UNL     1      -2.630  -1.287   6.478  0.00  0.00    +0.000 OA
ATOM     12  N   UNL     1      -2.454  -3.515   6.942  0.00  0.00    +0.000 N 
ATOM     13  C   UNL     1      -3.831  -3.985   6.816  0.00  0.00    +0.000 C 
ATOM     14  C   UNL     1      -4.451  -4.259   8.173  0.00  0.00    +0.000 C 
ATOM     15  C   UNL     1      -3.558  -5.191   9.021  0.00  0.00    +0.000 C 
ATOM     16  C   UNL     1      -2.146  -4.599   9.136  0.00  0.00    +0.000 C 
ATOM     17  C   UNL     1      -1.538  -4.274   7.783  0.00  0.00    +0.000 C 
BRANCH  15  18
ATOM     18  N   UNL     1      -3.635  -6.626   8.586  0.00  0.00    +0.000 N 
ATOM     19  C   UNL     1      -3.274  -7.083   7.318  0.00  0.00    +0.000 C 
ATOM     20  O   UNL     1      -2.265  -6.818   6.674  0.00  0.00    +0.000 OA
ATOM     21  O   UNL     1      -4.222  -7.857   6.737  0.00  0.00    +0.000 OA
ATOM     22  C   UNL     1      -4.324  -9.091   7.412  0.00  0.00    +0.000 C 
ATOM     23  C   UNL     1      -4.483  -8.878   8.884  0.00  0.00    +0.000 A 
ATOM     24  C   UNL     1      -4.924  -9.941   9.675  0.00  0.00    +0.000 A 
ATOM     25  C   UNL     1      -5.051  -9.772  11.046  0.00  0.00    +0.000 A 
ATOM     26  C   UNL     1      -4.730  -8.548  11.626  0.00  0.00    +0.000 A 
ATOM     27  C   UNL     1      -4.288  -7.481  10.838  0.00  0.00    +0.000 A 
ATOM     28  C   UNL     1      -4.163  -7.632   9.455  0.00  0.00    +0.000 A 
ENDBRANCH  15  18
ENDBRANCH   5  10
BRANCH   1  29
ATOM     29  C   UNL     1       3.102  -0.676   1.098  0.00  0.00    +0.000 C 
BRANCH  29  31
ATOM     30  C   UNL     1       0.944  -0.050  -0.135  0.00  0.00    +0.000 C 
ATOM     31  N   UNL     1       2.406  -0.072  -0.057  0.00  0.00    +0.000 N 
ATOM     32  C   UNL     1       3.066   0.488  -1.158  0.00  0.00    +0.000 C 
ATOM     33  O   UNL     1       2.421   0.939  -2.112  0.00  0.00    +0.000 OA
BRANCH  32  34
ATOM     34  C   UNL     1       4.608   0.534  -1.157  0.00  0.00    +0.000 C 
BRANCH  34  35
ATOM     35  N   UNL     1       5.085   1.187  -2.369  0.00  0.00    +0.000 N 
ATOM     36  C   UNL     1       5.667   0.575  -3.443  0.00  0.00    +0.000 C 
ATOM     37  O   UNL     1       5.963  -0.608  -3.539  0.00  0.00    +0.000 OA
ATOM     38  C   UNL     1       5.915   1.622  -4.525  0.00  0.00    +0.000 C 
ATOM     39  N   UNL     1       5.427   2.798  -3.866  0.00  0.00    +0.000 N 
ATOM     40  C   UNL     1       4.931   2.519  -2.612  0.00  0.00    +0.000 C 
ATOM     41  O   UNL     1       4.448   3.356  -1.868  0.00  0.00    +0.000 OA
ATOM     42  H   UNL     1       5.338   3.722  -4.268  0.00  0.00    +0.000 HD
ENDBRANCH  34  35
ENDBRANCH  32  34
ENDBRANCH  29  31
ENDBRANCH   1  29
TORSDOF 6
