REMARK  Name = CHEMBL606976
REMARK  7 active torsions:
REMARK  status: ('A' for Active; 'I' for Inactive)
REMARK    1  A    between atoms: C_1  and  O_2
REMARK    2  A    between atoms: O_2  and  C_3
REMARK    3  A    between atoms: C_6  and  N_7
REMARK    4  A    between atoms: C_8  and  C_9
REMARK    5  A    between atoms: C_16  and  O_17
REMARK    6  A    between atoms: O_17  and  C_18
REMARK    7  A    between atoms: C_25  and  C_26
REMARK                            x       y       z     vdW  Elec       q    Type
REMARK                         _______ _______ _______ _____ _____    ______ ____
ROOT
ATOM      1  N   UNL     1       5.302  -0.730  -4.784  0.00  0.00    +0.000 N 
ATOM      2  C   UNL     1       5.531  -1.872  -5.557  0.00  0.00    +0.000 A 
ATOM      3  C   UNL     1       5.034  -3.261  -5.364  0.00  0.00    +0.000 C 
ATOM      4  N   UNL     1       6.212  -1.522  -6.635  0.00  0.00    +0.000 NA
ATOM      5  N   UNL     1       6.444  -0.181  -6.595  0.00  0.00    +0.000 NA
ATOM      6  C   UNL     1       5.980   0.298  -5.449  0.00  0.00    +0.000 A 
ATOM      7  N   UNL     1       6.109   1.575  -5.015  0.00  0.00    +0.000 N 
ATOM      8  C   UNL     1       5.768   2.668  -5.895  0.00  0.00    +0.000 C 
ATOM      9  C   UNL     1       6.994   3.567  -6.141  0.00  0.00    +0.000 C 
ATOM     10  C   UNL     1       7.410   4.204  -4.828  0.00  0.00    +0.000 C 
ATOM     11  C   UNL     1       7.782   3.003  -3.917  0.00  0.00    +0.000 C 
ATOM     12  C   UNL     1       6.622   1.999  -3.717  0.00  0.00    +0.000 C 
ENDROOT
BRANCH   1  16
ATOM     13  C   UNL     1       3.129  -0.245  -1.244  0.00  0.00    +0.000 A 
ATOM     14  C   UNL     1       2.769   0.523  -2.342  0.00  0.00    +0.000 A 
ATOM     15  C   UNL     1       3.473   0.357  -3.544  0.00  0.00    +0.000 A 
ATOM     16  C   UNL     1       4.504  -0.585  -3.617  0.00  0.00    +0.000 A 
ATOM     17  C   UNL     1       4.820  -1.280  -2.463  0.00  0.00    +0.000 A 
ATOM     18  N   UNL     1       4.160  -1.120  -1.283  0.00  0.00    +0.000 NA
BRANCH  13  20
ATOM     19  C   UNL     1       1.124  -0.094  -0.010  0.00  0.00    +0.000 C 
ATOM     20  O   UNL     1       2.551  -0.098  -0.009  0.00  0.00    +0.000 OA
ENDBRANCH  13  20
ENDBRANCH   1  16
BRANCH  10  21
ATOM     21  O   UNL     1       6.355   5.027  -4.246  0.00  0.00    +0.000 OA
BRANCH  21  22
ATOM     22  C   UNL     1       5.935   6.174  -4.908  0.00  0.00    +0.000 A 
ATOM     23  C   UNL     1       6.142   7.392  -4.219  0.00  0.00    +0.000 A 
ATOM     24  C   UNL     1       5.581   8.588  -4.695  0.00  0.00    +0.000 A 
ATOM     25  F   UNL     1       5.744   9.730  -4.010  0.00  0.00    +0.000 F 
ATOM     26  C   UNL     1       4.830   8.623  -5.849  0.00  0.00    +0.000 A 
ATOM     27  C   UNL     1       4.622   7.443  -6.524  0.00  0.00    +0.000 A 
ATOM     28  F   UNL     1       3.858   7.483  -7.626  0.00  0.00    +0.000 F 
ATOM     29  C   UNL     1       5.106   6.207  -6.063  0.00  0.00    +0.000 A 
ATOM     30  C   UNL     1       4.509   5.065  -6.835  0.00  0.00    +0.000 C 
ENDBRANCH  21  22
ENDBRANCH  10  21
TORSDOF 4
