REMARK  Name = CHEMBL3142790
REMARK  43 active torsions:
REMARK  status: ('A' for Active; 'I' for Inactive)
REMARK    1  A    between atoms: C_1  and  C_2
REMARK    2  A    between atoms: C_2  and  C_3
REMARK    3  A    between atoms: C_3  and  C_4
REMARK    4  A    between atoms: C_3  and  C_5
REMARK    5  A    between atoms: C_5  and  N_6
REMARK    6  A    between atoms: C_5  and  C_35
REMARK    7  A    between atoms: C_7  and  C_9
REMARK    8  A    between atoms: C_9  and  C_10
REMARK    9  A    between atoms: C_9  and  N_19
REMARK   10  A    between atoms: C_10  and  C_11
REMARK   11  A    between atoms: C_14  and  O_15
REMARK   12  A    between atoms: O_15  and  C_16
REMARK   13  A    between atoms: C_20  and  C_22
REMARK   14  A    between atoms: C_22  and  C_23
REMARK   15  A    between atoms: C_23  and  S_24
REMARK   16  A    between atoms: S_24  and  C_25
REMARK   17  A    between atoms: C_25  and  C_26
REMARK   18  A    between atoms: C_26  and  C_27
REMARK   19  A    between atoms: N_37  and  C_38
REMARK   20  A    between atoms: C_38  and  C_39
REMARK   21  A    between atoms: C_38  and  C_86
REMARK   22  A    between atoms: N_41  and  C_42
REMARK   23  A    between atoms: C_42  and  C_43
REMARK   24  A    between atoms: C_42  and  C_47
REMARK   25  A    between atoms: C_43  and  C_44
REMARK   26  A    between atoms: N_49  and  C_50
REMARK   27  A    between atoms: C_50  and  C_51
REMARK   28  A    between atoms: C_50  and  C_53
REMARK   29  A    between atoms: C_51  and  S_52
REMARK   30  A    between atoms: C_59  and  C_60
REMARK   31  A    between atoms: N_62  and  C_63
REMARK   32  A    between atoms: C_63  and  C_64
REMARK   33  A    between atoms: C_63  and  C_68
REMARK   34  A    between atoms: C_64  and  C_65
REMARK   35  A    between atoms: C_65  and  C_66
REMARK   36  A    between atoms: C_66  and  N_67
REMARK   37  A    between atoms: N_70  and  C_71
REMARK   38  A    between atoms: C_71  and  C_72
REMARK   39  A    between atoms: C_71  and  C_83
REMARK   40  A    between atoms: C_72  and  C_73
REMARK   41  A    between atoms: C_76  and  N_77
REMARK   42  A    between atoms: C_86  and  C_87
REMARK   43  A    between atoms: C_86  and  O_88
REMARK                            x       y       z     vdW  Elec       q    Type
REMARK                         _______ _______ _______ _____ _____    ______ ____
ROOT
ATOM      1  C   UNL     1       0.349  -1.152  -6.382  0.00  0.00    +0.000 C 
ENDROOT
BRANCH   1   4
ATOM      2  C   UNL     1       1.768  -1.200  -9.016  0.00  0.00    +0.000 C 
ATOM      3  O   UNL     1       1.854  -0.023  -9.489  0.00  0.00    +0.000 OA
ATOM      4  N   UNL     1       1.251  -1.833  -7.748  0.00  0.00    +0.000 N 
ATOM      5  H   UNL     1       1.852  -2.566  -7.373  0.00  0.00    +0.000 HD
BRANCH   2   6
ATOM      6  C   UNL     1       2.443  -1.795 -10.110  0.00  0.00    +0.000 C 
BRANCH   6   9
ATOM      7  C   UNL     1       4.050  -0.164  -8.728  0.00  0.00    +0.000 C 
ATOM      8  O   UNL     1       5.147   0.407  -8.767  0.00  0.00    +0.000 OA
ATOM      9  N   UNL     1       3.784  -1.153  -9.780  0.00  0.00    +0.000 N 
ATOM     10  H   UNL     1       4.176  -0.748 -10.633  0.00  0.00    +0.000 HD
BRANCH   7  11
ATOM     11  C   UNL     1       2.980   0.187  -7.404  0.00  0.00    +0.000 C 
BRANCH  11  12
ATOM     12  N   UNL     1       3.663   0.818  -6.302  0.00  0.00    +0.000 N 
ATOM     13  C   UNL     1       3.024   1.123  -5.115  0.00  0.00    +0.000 C 
ATOM     14  O   UNL     1       1.972   0.676  -4.672  0.00  0.00    +0.000 OA
ATOM     15  H   UNL     1       4.629   0.515  -6.219  0.00  0.00    +0.000 HD
BRANCH  13  16
ATOM     16  C   UNL     1       3.795   1.999  -4.218  0.00  0.00    +0.000 C 
BRANCH  16  17
ATOM     17  N   UNL     1       2.898   2.790  -3.332  0.00  0.00    +0.000 N 
ATOM     18  C   UNL     1       2.170   3.808  -3.895  0.00  0.00    +0.000 C 
ATOM     19  O   UNL     1       2.390   4.117  -5.062  0.00  0.00    +0.000 OA
ATOM     20  H   UNL     1       2.592   2.397  -2.451  0.00  0.00    +0.000 HD
BRANCH  18  21
ATOM     21  C   UNL     1       1.165   4.553  -3.012  0.00  0.00    +0.000 C 
BRANCH  21  22
ATOM     22  C   UNL     1       0.437   5.731  -3.769  0.00  0.00    +0.000 C 
ATOM     23  C   UNL     1      -0.434   6.533  -2.765  0.00  0.00    +0.000 C 
ATOM     24  C   UNL     1      -0.995   7.840  -3.312  0.00  0.00    +0.000 C 
ATOM     25  C   UNL     1       0.061   8.708  -3.984  0.00  0.00    +0.000 C 
ATOM     26  C   UNL     1       1.021   7.978  -4.905  0.00  0.00    +0.000 C 
ATOM     27  C   UNL     1       1.528   6.686  -4.314  0.00  0.00    +0.000 C 
BRANCH  22  28
ATOM     28  S   UNL     1      -0.687   4.892  -5.056  0.00  0.00    +0.000 S 
BRANCH  28  29
ATOM     29  C   UNL     1      -1.413   6.217  -6.059  0.00  0.00    +0.000 C 
BRANCH  29  30
ATOM     30  C   UNL     1      -2.267   5.761  -7.206  0.00  0.00    +0.000 C 
BRANCH  30  31
ATOM     31  C   UNL     1      -2.891   6.951  -7.936  0.00  0.00    +0.000 C 
ATOM     32  N   UNL     1      -2.639   8.229  -7.514  0.00  0.00    +0.000 N 
ATOM     33  O   UNL     1      -3.628   6.784  -8.906  0.00  0.00    +0.000 OA
ATOM     34  H   UNL     1      -2.044   8.508  -6.747  0.00  0.00    +0.000 HD
ATOM     35  H   UNL     1      -3.075   8.981  -8.034  0.00  0.00    +0.000 HD
ENDBRANCH  30  31
ENDBRANCH  29  30
ENDBRANCH  28  29
ENDBRANCH  22  28
ENDBRANCH  21  22
ENDBRANCH  18  21
ENDBRANCH  16  17
BRANCH  16  36
ATOM     36  C   UNL     1       4.533   0.902  -3.495  0.00  0.00    +0.000 C 
BRANCH  36  37
ATOM     37  C   UNL     1       5.660   1.328  -2.683  0.00  0.00    +0.000 A 
ATOM     38  C   UNL     1       6.042   2.655  -2.748  0.00  0.00    +0.000 A 
ATOM     39  C   UNL     1       7.187   3.038  -2.131  0.00  0.00    +0.000 A 
ATOM     40  C   UNL     1       7.847   2.133  -1.314  0.00  0.00    +0.000 A 
ATOM     41  C   UNL     1       7.417   0.803  -1.197  0.00  0.00    +0.000 A 
ATOM     42  C   UNL     1       6.311   0.384  -1.896  0.00  0.00    +0.000 A 
BRANCH  40  43
ATOM     43  O   UNL     1       8.892   2.693  -0.648  0.00  0.00    +0.000 OA
ATOM     44  C   UNL     1       9.506   1.846   0.301  0.00  0.00    +0.000 C 
ENDBRANCH  40  43
ENDBRANCH  36  37
ENDBRANCH  16  36
ENDBRANCH  13  16
ENDBRANCH  11  12
BRANCH  11  45
ATOM     45  C   UNL     1       1.516   1.069  -7.731  0.00  0.00    +0.000 C 
ATOM     46  C   UNL     1       0.824   1.915  -6.577  0.00  0.00    +0.000 C 
BRANCH  45  48
ATOM     47  C   UNL     1      -0.341  -0.294 -10.038  0.00  0.00    +0.000 C 
ATOM     48  C   UNL     1       0.158   0.325  -8.503  0.00  0.00    +0.000 C 
ENDBRANCH  45  48
ENDBRANCH  11  45
ENDBRANCH   7  11
ENDBRANCH   6   9
BRANCH   6  49
ATOM     49  C   UNL     1       1.961  -3.202 -10.229  0.00  0.00    +0.000 C 
ATOM     50  C   UNL     1       0.413  -3.480 -10.231  0.00  0.00    +0.000 C 
BRANCH  49  51
ATOM     51  O   UNL     1       2.418  -3.621 -11.508  0.00  0.00    +0.000 OA
ATOM     52  H   UNL     1       2.011  -3.012 -12.160  0.00  0.00    +0.000 HD
ENDBRANCH  49  51
ENDBRANCH   6  49
ENDBRANCH   2   6
ENDBRANCH   1   4
BRANCH   1  53
ATOM     53  C   UNL     1       0.663  -1.710  -4.954  0.00  0.00    +0.000 C 
ATOM     54  O   UNL     1       1.350  -2.732  -4.898  0.00  0.00    +0.000 OA
ATOM     55  N   UNL     1       0.277  -1.002  -3.798  0.00  0.00    +0.000 N 
ATOM     56  H   UNL     1      -0.031  -0.026  -3.860  0.00  0.00    +0.000 HD
BRANCH  55  57
ATOM     57  C   UNL     1       0.799  -1.385  -2.452  0.00  0.00    +0.000 C 
BRANCH  57  58
ATOM     58  C   UNL     1       0.137  -0.589  -1.222  0.00  0.00    +0.000 C 
ATOM     59  O   UNL     1      -0.714   0.277  -1.441  0.00  0.00    +0.000 OA
ATOM     60  N   UNL     1       0.412  -1.018   0.085  0.00  0.00    +0.000 N 
ATOM     61  C   UNL     1       1.697  -1.239   0.734  0.00  0.00    +0.000 C 
ATOM     62  C   UNL     1       1.377  -2.365   1.680  0.00  0.00    +0.000 C 
ATOM     63  C   UNL     1       0.060  -1.905   2.279  0.00  0.00    +0.000 C 
ATOM     64  C   UNL     1      -0.618  -1.065   1.165  0.00  0.00    +0.000 C 
BRANCH  64  65
ATOM     65  C   UNL     1      -0.896   0.298   1.836  0.00  0.00    +0.000 C 
ATOM     66  O   UNL     1      -0.094   1.226   1.716  0.00  0.00    +0.000 OA
ATOM     67  N   UNL     1      -2.012   0.389   2.665  0.00  0.00    +0.000 N 
ATOM     68  H   UNL     1      -2.544  -0.439   2.917  0.00  0.00    +0.000 HD
BRANCH  67  69
ATOM     69  C   UNL     1      -2.530   1.679   3.190  0.00  0.00    +0.000 C 
BRANCH  69  70
ATOM     70  C   UNL     1      -3.745   1.488   4.125  0.00  0.00    +0.000 C 
ATOM     71  O   UNL     1      -4.436   0.474   4.042  0.00  0.00    +0.000 OA
ATOM     72  N   UNL     1      -4.057   2.541   4.972  0.00  0.00    +0.000 N 
ATOM     73  H   UNL     1      -3.711   3.456   4.737  0.00  0.00    +0.000 HD
BRANCH  72  74
ATOM     74  C   UNL     1      -5.064   2.413   6.053  0.00  0.00    +0.000 C 
BRANCH  74  75
ATOM     75  C   UNL     1      -5.589   3.771   6.602  0.00  0.00    +0.000 C 
ATOM     76  N   UNL     1      -5.067   4.930   6.096  0.00  0.00    +0.000 N 
ATOM     77  O   UNL     1      -6.438   3.848   7.488  0.00  0.00    +0.000 OA
ATOM     78  H   UNL     1      -4.397   5.011   5.353  0.00  0.00    +0.000 HD
ATOM     79  H   UNL     1      -5.426   5.799   6.475  0.00  0.00    +0.000 HD
ENDBRANCH  74  75
BRANCH  74  80
ATOM     80  C   UNL     1      -4.505   1.595   7.262  0.00  0.00    +0.000 C 
BRANCH  80  81
ATOM     81  C   UNL     1      -4.045   0.197   6.886  0.00  0.00    +0.000 A 
ATOM     82  C   UNL     1      -2.773  -0.033   6.356  0.00  0.00    +0.000 A 
ATOM     83  C   UNL     1      -2.540  -1.191   5.594  0.00  0.00    +0.000 A 
ATOM     84  C   UNL     1      -3.503  -2.219   5.448  0.00  0.00    +0.000 A 
ATOM     85  C   UNL     1      -4.746  -2.010   6.084  0.00  0.00    +0.000 A 
ATOM     86  I   UNL     1      -6.466  -3.235   5.970  0.00  0.00    +0.000 I 
ATOM     87  C   UNL     1      -4.998  -0.821   6.795  0.00  0.00    +0.000 A 
BRANCH  84  88
ATOM     88  N   UNL     1      -3.086  -3.271   4.607  0.00  0.00    +0.000 NA
ATOM     89  N   UNL     1      -3.725  -4.376   4.661  0.00  0.00    +0.000 NA
ATOM     90  N   UNL     1      -4.247  -5.353   4.659  0.00  0.00    +0.000 NA
ENDBRANCH  84  88
ENDBRANCH  80  81
ENDBRANCH  74  80
ENDBRANCH  72  74
ENDBRANCH  69  70
BRANCH  69  91
ATOM     91  C   UNL     1      -3.147   2.531   2.084  0.00  0.00    +0.000 C 
BRANCH  91  92
ATOM     92  C   UNL     1      -2.183   2.792   0.963  0.00  0.00    +0.000 C 
BRANCH  92  93
ATOM     93  C   UNL     1      -2.779   3.606  -0.142  0.00  0.00    +0.000 C 
BRANCH  93  94
ATOM     94  N   UNL     1      -1.747   3.726  -1.144  0.00  0.00    +0.000 NA
ATOM     95  H   UNL     1      -0.925   4.190  -0.767  0.00  0.00    +0.000 HD
ATOM     96  H   UNL     1      -2.093   4.221  -1.955  0.00  0.00    +0.000 HD
ENDBRANCH  93  94
ENDBRANCH  92  93
ENDBRANCH  91  92
ENDBRANCH  69  91
ENDBRANCH  67  69
ENDBRANCH  64  65
ENDBRANCH  57  58
BRANCH  57  97
ATOM     97  C   UNL     1       2.311  -1.261  -2.337  0.00  0.00    +0.000 C 
BRANCH  97  98
ATOM     98  S   UNL     1       3.553  -2.174  -3.317  0.00  0.00    +0.000 S 
ATOM     99  H   UNL     1       2.739  -3.186  -3.653  0.00  0.00    +0.000 HD
ENDBRANCH  97  98
ENDBRANCH  57  97
ENDBRANCH  55  57
ENDBRANCH   1  53
BRANCH   1 100
ATOM    100  C   UNL     1      -1.299  -0.602  -6.554  0.00  0.00    +0.000 C 
BRANCH 100 101
ATOM    101  C   UNL     1      -2.288   0.190  -7.878  0.00  0.00    +0.000 C 
ATOM    102  N   UNL     1      -1.993   1.232  -8.863  0.00  0.00    +0.000 N 
ATOM    103  O   UNL     1      -3.442  -0.240  -8.006  0.00  0.00    +0.000 OA
ATOM    104  H   UNL     1      -1.092   1.679  -9.139  0.00  0.00    +0.000 HD
ATOM    105  H   UNL     1      -2.337   1.046  -9.804  0.00  0.00    +0.000 HD
ENDBRANCH 100 101
ENDBRANCH   1 100
TORSDOF 39
