REMARK  Name = CHEMBL2369425
REMARK  24 active torsions:
REMARK  status: ('A' for Active; 'I' for Inactive)
REMARK    1  A    between atoms: CD1_1  and  CG1_2
REMARK    2  A    between atoms: CG1_2  and  CB_3
REMARK    3  A    between atoms: CB_3  and  CG2_4
REMARK    4  A    between atoms: CB_3  and  CA_5
REMARK    5  A    between atoms: CA_9  and  CB_10
REMARK    6  A    between atoms: CB_10  and  CG_11
REMARK    7  A    between atoms: CZ_14  and  OH_15
REMARK    8  A    between atoms: CA_21  and  N_22
REMARK    9  A    between atoms: CA_27  and  C_28
REMARK   10  A    between atoms: CA_34  and  C_35
REMARK   11  A    between atoms: N_37  and  CA_38
REMARK   12  A    between atoms: CA_38  and  CB_39
REMARK   13  A    between atoms: CA_38  and  C_43
REMARK   14  A    between atoms: CB_39  and  CG_40
REMARK   15  A    between atoms: CG_40  and  CD1_41
REMARK   16  A    between atoms: CG_40  and  CD2_42
REMARK   17  A    between atoms: N_45  and  CA_46
REMARK   18  A    between atoms: CA_46  and  C_47
REMARK   19  A    between atoms: C_47  and  OXT_49
REMARK   20  A    between atoms: CA_53  and  CB_54
REMARK   21  A    between atoms: CB_54  and  CG_55
REMARK   22  A    between atoms: CA_61  and  CB_62
REMARK   23  A    between atoms: CB_62  and  CG_63
REMARK   24  A    between atoms: CG_63  and  CD_64
REMARK                            x       y       z     vdW  Elec       q    Type
REMARK                         _______ _______ _______ _____ _____    ______ ____
ROOT
ATOM      1  CA  ILE A   3       4.732  -2.041  -4.253  0.00  0.00    +0.000 C 
ATOM      2  N   ILE A   3       5.055  -2.501  -6.320  0.00  0.00    +0.000 N 
ATOM      3  C   TYR A   2       4.961  -3.330  -8.109  0.00  0.00    +0.000 C 
ATOM      4  O   TYR A   2       5.430  -4.503  -8.532  0.00  0.00    +0.000 OA
ATOM      5  CA  TYR A   2       4.405  -2.921 -10.072  0.00  0.00    +0.000 C 
ATOM      6  N   TYR A   2       2.997  -3.125 -10.825  0.00  0.00    +0.000 N 
ATOM      7  C   MET A   1       2.074  -3.890 -10.204  0.00  0.00    +0.000 C 
ATOM      8  O   MET A   1       0.907  -3.993 -10.543  0.00  0.00    +0.000 OA
ATOM      9  CA  MET A   1       2.585  -4.480  -8.963  0.00  0.00    +0.000 C 
ATOM     10  CB  MET A   1       2.095  -3.779  -7.786  0.00  0.00    +0.000 C 
ATOM     11  CG  MET A   1       0.662  -4.183  -7.711  0.00  0.00    +0.000 C 
ATOM     12  SG  CYS A   6      -0.352  -3.054  -6.895  0.00  0.00    +0.000 S 
ATOM     13  CB  CYS A   6      -1.667  -3.889  -6.022  0.00  0.00    +0.000 C 
ATOM     14  CA  CYS A   6      -2.284  -3.176  -4.825  0.00  0.00    +0.000 C 
ATOM     15  N   CYS A   6      -1.621  -3.629  -3.596  0.00  0.00    +0.000 N 
ATOM     16  C   ASN A   5      -0.318  -3.531  -3.366  0.00  0.00    +0.000 C 
ATOM     17  O   ASN A   5       0.145  -3.981  -2.334  0.00  0.00    +0.000 OA
ATOM     18  CA  ASN A   5       0.413  -2.743  -4.377  0.00  0.00    +0.000 C 
ATOM     19  N   ASN A   5       0.583  -1.568  -3.715  0.00  0.00    +0.000 N 
ATOM     20  C   GLN A   4       1.810  -1.784  -3.473  0.00  0.00    +0.000 C 
ATOM     21  O   GLN A   4       2.221  -0.673  -4.012  0.00  0.00    +0.000 OA
ATOM     22  CA  GLN A   4       2.550  -3.177  -2.360  0.00  0.00    +0.000 C 
ATOM     23  N   GLN A   4       4.138  -3.676  -2.449  0.00  0.00    +0.000 N 
ATOM     24  C   ILE A   3       5.215  -2.882  -2.916  0.00  0.00    +0.000 C 
ATOM     25  O   ILE A   3       6.135  -2.544  -2.153  0.00  0.00    +0.000 OA
ATOM     26  H   ILE A   3       5.947  -3.093  -6.781  0.00  0.00    +0.000 HD
ATOM     27  H   TYR A   2       2.643  -2.793 -11.761  0.00  0.00    +0.000 HD
ATOM     28  H   CYS A   6      -2.118  -4.121  -2.863  0.00  0.00    +0.000 HD
ATOM     29  H   ASN A   5       0.638  -0.623  -4.168  0.00  0.00    +0.000 HD
ATOM     30  H   GLN A   4       4.208  -4.359  -3.145  0.00  0.00    +0.000 HD
ENDROOT
BRANCH  14  31
ATOM     31  C   CYS A   6      -3.778  -3.474  -4.715  0.00  0.00    +0.000 C 
ATOM     32  O   CYS A   6      -4.079  -3.935  -3.613  0.00  0.00    +0.000 OA
ATOM     33  N   PRO A   7      -4.646  -3.062  -5.752  0.00  0.00    +0.000 N 
ATOM     34  CD  PRO A   7      -4.439  -3.229  -7.177  0.00  0.00    +0.000 C 
ATOM     35  CG  PRO A   7      -5.101  -2.018  -7.770  0.00  0.00    +0.000 C 
ATOM     36  CB  PRO A   7      -6.392  -1.949  -7.005  0.00  0.00    +0.000 C 
ATOM     37  CA  PRO A   7      -6.070  -2.563  -5.641  0.00  0.00    +0.000 C 
BRANCH  37  38
ATOM     38  C   PRO A   7      -7.173  -3.680  -5.686  0.00  0.00    +0.000 C 
ATOM     39  O   PRO A   7      -6.830  -4.844  -5.922  0.00  0.00    +0.000 OA
ATOM     40  N   LEU A   8      -8.450  -3.332  -5.169  0.00  0.00    +0.000 N 
ATOM     41  H   LEU A   8      -8.752  -2.363  -5.075  0.00  0.00    +0.000 HD
BRANCH  40  42
ATOM     42  CA  LEU A   8      -9.390  -4.355  -4.579  0.00  0.00    +0.000 C 
BRANCH  42  43
ATOM     43  C   LEU A   8     -10.820  -3.737  -4.409  0.00  0.00    +0.000 C 
ATOM     44  O   LEU A   8     -11.002  -2.534  -4.618  0.00  0.00    +0.000 OA
ATOM     45  N   GLY A   9     -11.866  -4.559  -4.017  0.00  0.00    +0.000 N 
ATOM     46  H   GLY A   9     -11.735  -5.552  -3.829  0.00  0.00    +0.000 HD
BRANCH  45  47
ATOM     47  CA  GLY A   9     -13.249  -4.051  -3.852  0.00  0.00    +0.000 C 
BRANCH  47  48
ATOM     48  C   GLY A   9     -14.213  -5.165  -3.425  0.00  0.00    +0.000 C 
ATOM     49  O   GLY A   9     -13.832  -6.319  -3.251  0.00  0.00    +0.000 OA
BRANCH  48  50
ATOM     50  OXT GLY A   9     -15.512  -4.831  -3.244  0.00  0.00    +0.000 OA
ATOM     51  HXT GLY A   9     -15.816  -3.914  -3.381  0.00  0.00    +0.000 HD
ENDBRANCH  48  50
ENDBRANCH  47  48
ENDBRANCH  45  47
ENDBRANCH  42  43
BRANCH  42  52
ATOM     52  CB  LEU A   8      -8.951  -4.941  -3.204  0.00  0.00    +0.000 C 
BRANCH  52  53
ATOM     53  CG  LEU A   8      -7.579  -5.597  -3.215  0.00  0.00    +0.000 C 
ATOM     54  CD1 LEU A   8      -6.506  -4.576  -3.276  0.00  0.00    +0.000 C 
ATOM     55  CD2 LEU A   8      -7.149  -6.209  -1.931  0.00  0.00    +0.000 C 
ENDBRANCH  52  53
ENDBRANCH  42  52
ENDBRANCH  40  42
ENDBRANCH  37  38
ENDBRANCH  14  31
BRANCH   9  56
ATOM     56  N   MET A   1       2.683  -5.909  -8.879  0.00  0.00    +0.000 NA
ATOM     57  H1  MET A   1       1.732  -6.211  -8.775  0.00  0.00    +0.000 HD
ATOM     58  H2  MET A   1       3.212  -6.149  -8.029  0.00  0.00    +0.000 HD
ENDBRANCH   9  56
BRANCH   1  59
ATOM     59  CB  ILE A   3       4.037  -1.285  -2.235  0.00  0.00    +0.000 C 
ATOM     60  CG2 ILE A   3       3.054  -0.307  -0.609  0.00  0.00    +0.000 C 
BRANCH  59  62
ATOM     61  CD1 ILE A   3       3.867   0.592  -2.251  0.00  0.00    +0.000 C 
ATOM     62  CG1 ILE A   3       2.887  -0.473  -2.172  0.00  0.00    +0.000 C 
ENDBRANCH  59  62
ENDBRANCH   1  59
BRANCH  18  63
ATOM     63  CB  ASN A   5       1.593  -3.495  -4.962  0.00  0.00    +0.000 C 
BRANCH  63  64
ATOM     64  CG  ASN A   5       2.671  -2.655  -5.529  0.00  0.00    +0.000 C 
ATOM     65  ND2 ASN A   5       2.664  -1.290  -5.868  0.00  0.00    +0.000 N 
ATOM     66  OD1 ASN A   5       3.572  -3.494  -5.495  0.00  0.00    +0.000 OA
ATOM     67 HD21 ASN A   5       1.968  -0.763  -5.320  0.00  0.00    +0.000 HD
ATOM     68 HD22 ASN A   5       3.438  -0.667  -5.528  0.00  0.00    +0.000 HD
ENDBRANCH  63  64
ENDBRANCH  18  63
BRANCH   5  69
ATOM     69  CB  TYR A   2       4.605  -1.611  -9.622  0.00  0.00    +0.000 C 
BRANCH  69  70
ATOM     70  CG  TYR A   2       6.114  -1.569  -9.600  0.00  0.00    +0.000 A 
ATOM     71  CD1 TYR A   2       7.026  -2.089 -10.563  0.00  0.00    +0.000 A 
ATOM     72  CE1 TYR A   2       8.397  -1.923 -10.389  0.00  0.00    +0.000 A 
ATOM     73  CZ  TYR A   2       8.844  -1.312  -9.227  0.00  0.00    +0.000 A 
ATOM     74  CE2 TYR A   2       7.959  -0.944  -8.228  0.00  0.00    +0.000 A 
ATOM     75  CD2 TYR A   2       6.609  -1.072  -8.418  0.00  0.00    +0.000 A 
BRANCH  73  76
ATOM     76  OH  TYR A   2      10.149  -1.023  -8.982  0.00  0.00    +0.000 OA
ATOM     77  HH  TYR A   2      10.705  -1.278  -9.733  0.00  0.00    +0.000 HD
ENDBRANCH  73  76
ENDBRANCH  69  70
ENDBRANCH   5  69
BRANCH  22  78
ATOM     78  CB  GLN A   4       2.165  -3.312  -0.724  0.00  0.00    +0.000 C 
BRANCH  78  79
ATOM     79  CG  GLN A   4       2.600  -2.293   0.299  0.00  0.00    +0.000 C 
BRANCH  79  80
ATOM     80  CD  GLN A   4       2.271  -2.068   1.726  0.00  0.00    +0.000 C 
ATOM     81  NE2 GLN A   4       1.548  -3.118   2.110  0.00  0.00    +0.000 N 
ATOM     82  OE1 GLN A   4       2.499  -1.079   2.408  0.00  0.00    +0.000 OA
ATOM     83 HE21 GLN A   4       1.364  -3.847   1.437  0.00  0.00    +0.000 HD
ATOM     84 HE22 GLN A   4       1.299  -3.153   3.070  0.00  0.00    +0.000 HD
ENDBRANCH  79  80
ENDBRANCH  78  79
ENDBRANCH  22  78
TORSDOF 20
