REMARK  Name = CHEMBL2037486
REMARK  12 active torsions:
REMARK  status: ('A' for Active; 'I' for Inactive)
REMARK    1  A    between atoms: C_1  and  O_2
REMARK    2  A    between atoms: O_2  and  C_3
REMARK    3  A    between atoms: C_6  and  C_7
REMARK    4  A    between atoms: C_7  and  C_8
REMARK    5  A    between atoms: C_7  and  N_13
REMARK    6  A    between atoms: N_10  and  C_11
REMARK    7  A    between atoms: N_10  and  C_12
REMARK    8  A    between atoms: C_16  and  C_17
REMARK    9  A    between atoms: CA_29  and  CB_30
REMARK   10  A    between atoms: CB_30  and  CG_31
REMARK   11  A    between atoms: CG_31  and  CD1_32
REMARK   12  A    between atoms: CG_31  and  CD2_33
REMARK                            x       y       z     vdW  Elec       q    Type
REMARK                         _______ _______ _______ _____ _____    ______ ____
ROOT
ATOM      1  N   LEU A   1       4.289   3.294  -5.226  0.00  0.00    +0.000 N 
ATOM      2  C   UNK A   2       4.477   4.318  -4.288  0.00  0.00    +0.000 C 
ATOM      3  O   UNK A   2       5.084   4.120  -3.240  0.00  0.00    +0.000 OA
ATOM      4  C   UNK A   2       3.838   5.689  -4.657  0.00  0.00    +0.000 C 
ATOM      5  N   UNK A   2       4.160   5.976  -6.028  0.00  0.00    +0.000 N 
ATOM      6  C   LEU A   1       3.739   5.113  -6.987  0.00  0.00    +0.000 C 
ATOM      7  O   LEU A   1       3.575   5.543  -8.102  0.00  0.00    +0.000 OA
ATOM      8  CA  LEU A   1       3.481   3.660  -6.479  0.00  0.00    +0.000 C 
ATOM      9  H   UNK A   2       4.309   6.916  -6.376  0.00  0.00    +0.000 HD
ENDROOT
BRANCH   4  10
ATOM     10  C   UNK A   2       4.381   6.818  -3.819  0.00  0.00    +0.000 C 
ATOM     11  C   UNK A   2       4.049   6.660  -2.328  0.00  0.00    +0.000 C 
ATOM     12  C   UNK A   2       5.248   7.302  -1.720  0.00  0.00    +0.000 A 
ATOM     13  C   UNK A   2       5.404   7.683  -0.406  0.00  0.00    +0.000 A 
ATOM     14  C   UNK A   2       6.608   8.278  -0.038  0.00  0.00    +0.000 A 
ATOM     15  C   UNK A   2       7.645   8.450  -0.971  0.00  0.00    +0.000 A 
ATOM     16  C   UNK A   2       7.496   8.023  -2.287  0.00  0.00    +0.000 A 
ATOM     17  C   UNK A   2       6.287   7.464  -2.646  0.00  0.00    +0.000 A 
ATOM     18  C   UNK A   2       5.918   6.916  -3.974  0.00  0.00    +0.000 C 
ENDBRANCH   4  10
BRANCH   1  19
ATOM     19  C   UNK A   0       4.823   1.912  -4.753  0.00  0.00    +0.000 C 
BRANCH  19  23
ATOM     20  C   UNK A   0       4.358  -1.222  -7.650  0.00  0.00    +0.000 A 
ATOM     21  C   UNK A   0       5.328  -0.267  -7.806  0.00  0.00    +0.000 A 
ATOM     22  C   UNK A   0       5.648   0.599  -6.778  0.00  0.00    +0.000 A 
ATOM     23  C   UNK A   0       4.752   0.716  -5.718  0.00  0.00    +0.000 A 
ATOM     24  C   UNK A   0       3.784  -0.291  -5.637  0.00  0.00    +0.000 A 
ATOM     25  N   UNK A   0       3.605  -1.286  -6.545  0.00  0.00    +0.000 NA
BRANCH  20  27
ATOM     26  C   UNK A   0       5.305  -2.426  -9.410  0.00  0.00    +0.000 C 
ATOM     27  O   UNK A   0       4.120  -2.134  -8.653  0.00  0.00    +0.000 OA
ENDBRANCH  20  27
ENDBRANCH  19  23
BRANCH  19  28
ATOM     28  C   UNK A   0       4.213   1.458  -3.370  0.00  0.00    +0.000 C 
ATOM     29  O   UNK A   0       3.262   2.067  -2.866  0.00  0.00    +0.000 OA
ATOM     30  N   UNK A   0       4.722   0.280  -2.784  0.00  0.00    +0.000 N 
ATOM     31  C   UNK A   0       5.738  -0.612  -3.359  0.00  0.00    +0.000 C 
ATOM     32  C   UNK A   0       4.026  -0.249  -1.626  0.00  0.00    +0.000 C 
ENDBRANCH  19  28
ENDBRANCH   1  19
BRANCH   8  33
ATOM     33  CB  LEU A   1       3.796   2.784  -7.678  0.00  0.00    +0.000 C 
BRANCH  33  34
ATOM     34  CG  LEU A   1       4.789   3.209  -8.789  0.00  0.00    +0.000 C 
ATOM     35  CD1 LEU A   1       6.135   3.780  -8.268  0.00  0.00    +0.000 C 
ATOM     36  CD2 LEU A   1       5.133   2.098  -9.772  0.00  0.00    +0.000 C 
ENDBRANCH  33  34
ENDBRANCH   8  33
TORSDOF 7
