REMARK  Name = CHEMBL3814165
REMARK  24 active torsions:
REMARK  status: ('A' for Active; 'I' for Inactive)
REMARK    1  A    between atoms: C_1  and  C_2
REMARK    2  A    between atoms: C_2  and  C_3
REMARK    3  A    between atoms: C_3  and  C_4
REMARK    4  A    between atoms: C_3  and  C_5
REMARK    5  A    between atoms: C_9  and  C_10
REMARK    6  A    between atoms: C_10  and  C_11
REMARK    7  A    between atoms: C_14  and  O_15
REMARK    8  A    between atoms: N_18  and  C_19
REMARK    9  A    between atoms: C_22  and  N_23
REMARK   10  A    between atoms: C_28  and  C_29
REMARK   11  A    between atoms: C_35  and  C_36
REMARK   12  A    between atoms: N_38  and  C_39
REMARK   13  A    between atoms: C_39  and  C_40
REMARK   14  A    between atoms: C_39  and  C_44
REMARK   15  A    between atoms: C_40  and  C_41
REMARK   16  A    between atoms: C_41  and  C_42
REMARK   17  A    between atoms: C_41  and  C_43
REMARK   18  A    between atoms: N_46  and  C_47
REMARK   19  A    between atoms: C_47  and  C_48
REMARK   20  A    between atoms: C_54  and  C_55
REMARK   21  A    between atoms: C_55  and  C_56
REMARK   22  A    between atoms: C_62  and  C_63
REMARK   23  A    between atoms: C_63  and  C_64
REMARK   24  A    between atoms: C_64  and  C_65
REMARK                            x       y       z     vdW  Elec       q    Type
REMARK                         _______ _______ _______ _____ _____    ______ ____
ROOT
ATOM      1  C   UNL     1       3.754   4.726  -3.795  0.00  0.00    +0.000 C 
ATOM      2  N   UNL     1       3.761   6.903  -4.598  0.00  0.00    +0.000 N 
ATOM      3  C   UNL     1       3.514   8.909  -5.419  0.00  0.00    +0.000 C 
ATOM      4  O   UNL     1       3.905  10.417  -6.159  0.00  0.00    +0.000 OA
ATOM      5  C   UNL     1       2.525  10.417  -6.233  0.00  0.00    +0.000 C 
ATOM      6  N   UNL     1       3.471   9.098  -6.979  0.00  0.00    +0.000 N 
ATOM      7  C   UNL     1       5.338   9.509  -6.433  0.00  0.00    +0.000 C 
ATOM      8  C   UNL     1       2.609   8.235  -7.500  0.00  0.00    +0.000 C 
ATOM      9  O   UNL     1       1.421   8.542  -7.383  0.00  0.00    +0.000 OA
ATOM     10  C   UNL     1       3.383   6.975  -7.263  0.00  0.00    +0.000 C 
ATOM     11  C   UNL     1       2.623   6.072  -6.304  0.00  0.00    +0.000 C 
ATOM     12  S   UNL     1       0.830   6.250  -6.589  0.00  0.00    +0.000 S 
ATOM     13  S   UNL     1      -0.155   5.545  -5.010  0.00  0.00    +0.000 S 
ATOM     14  C   UNL     1      -1.786   4.519  -5.495  0.00  0.00    +0.000 C 
ATOM     15  C   UNL     1      -2.239   3.453  -4.547  0.00  0.00    +0.000 C 
ATOM     16  N   UNL     1      -1.464   2.170  -4.664  0.00  0.00    +0.000 N 
ATOM     17  C   UNL     1      -0.145   1.990  -4.420  0.00  0.00    +0.000 C 
ATOM     18  O   UNL     1       0.337   0.883  -4.570  0.00  0.00    +0.000 OA
ATOM     19  C   UNL     1       0.695   3.201  -4.035  0.00  0.00    +0.000 C 
ATOM     20  N   UNL     1       1.207   3.594  -2.838  0.00  0.00    +0.000 N 
ATOM     21  C   UNL     1       1.982   2.748  -2.525  0.00  0.00    +0.000 C 
ATOM     22  O   UNL     1       2.944   3.143  -1.212  0.00  0.00    +0.000 OA
ATOM     23  C   UNL     1       2.561   1.151  -3.761  0.00  0.00    +0.000 C 
ATOM     24  N   UNL     1       4.079   1.377  -4.100  0.00  0.00    +0.000 N 
ATOM     25  C   UNL     1       4.755   2.854  -3.809  0.00  0.00    +0.000 C 
ATOM     26  O   UNL     1       5.700   2.067  -3.217  0.00  0.00    +0.000 OA
ATOM     27  H   UNL     1       3.018   7.854  -5.471  0.00  0.00    +0.000 HD
ATOM     28  H   UNL     1      -1.984   1.313  -4.921  0.00  0.00    +0.000 HD
ATOM     29  H   UNL     1       0.993   3.854  -1.902  0.00  0.00    +0.000 HD
ATOM     30  H   UNL     1       4.437   1.341  -4.981  0.00  0.00    +0.000 HD
ENDROOT
BRANCH  15  31
ATOM     31  C   UNL     1      -3.702   3.246  -4.885  0.00  0.00    +0.000 C 
ATOM     32  O   UNL     1      -3.963   2.059  -5.061  0.00  0.00    +0.000 OA
ATOM     33  N   UNL     1      -4.583   4.351  -4.826  0.00  0.00    +0.000 N 
ATOM     34  C   UNL     1      -4.431   5.690  -5.390  0.00  0.00    +0.000 C 
ATOM     35  C   UNL     1      -5.153   6.563  -4.400  0.00  0.00    +0.000 C 
ATOM     36  C   UNL     1      -6.402   5.771  -4.115  0.00  0.00    +0.000 C 
ATOM     37  C   UNL     1      -5.977   4.327  -4.264  0.00  0.00    +0.000 C 
BRANCH  37  38
ATOM     38  C   UNL     1      -7.048   3.964  -5.340  0.00  0.00    +0.000 C 
ATOM     39  O   UNL     1      -6.627   3.719  -6.490  0.00  0.00    +0.000 OA
ATOM     40  N   UNL     1      -8.307   3.441  -4.828  0.00  0.00    +0.000 N 
ATOM     41  H   UNL     1      -8.668   3.684  -3.908  0.00  0.00    +0.000 HD
BRANCH  40  42
ATOM     42  C   UNL     1      -9.217   2.571  -5.664  0.00  0.00    +0.000 C 
BRANCH  42  43
ATOM     43  C   UNL     1     -10.638   2.504  -5.026  0.00  0.00    +0.000 C 
ATOM     44  O   UNL     1     -10.831   3.053  -3.939  0.00  0.00    +0.000 OA
ATOM     45  N   UNL     1     -11.647   1.835  -5.704  0.00  0.00    +0.000 N 
ATOM     46  H   UNL     1     -11.484   1.388  -6.589  0.00  0.00    +0.000 HD
BRANCH  45  47
ATOM     47  C   UNL     1     -13.008   1.737  -5.165  0.00  0.00    +0.000 C 
BRANCH  47  48
ATOM     48  C   UNL     1     -13.982   0.952  -6.070  0.00  0.00    +0.000 C 
ATOM     49  N   UNL     1     -13.485   0.437  -7.255  0.00  0.00    +0.000 N 
ATOM     50  O   UNL     1     -15.157   0.792  -5.744  0.00  0.00    +0.000 OA
ATOM     51  H   UNL     1     -12.539   0.529  -7.583  0.00  0.00    +0.000 HD
ATOM     52  H   UNL     1     -14.089  -0.087  -7.882  0.00  0.00    +0.000 HD
ENDBRANCH  47  48
ENDBRANCH  45  47
ENDBRANCH  42  43
BRANCH  42  53
ATOM     53  C   UNL     1      -8.690   1.144  -5.853  0.00  0.00    +0.000 C 
BRANCH  53  54
ATOM     54  C   UNL     1      -7.323   1.099  -6.497  0.00  0.00    +0.000 C 
ATOM     55  C   UNL     1      -6.273   1.520  -5.565  0.00  0.00    +0.000 C 
ATOM     56  C   UNL     1      -6.788  -0.259  -6.684  0.00  0.00    +0.000 C 
ENDBRANCH  53  54
ENDBRANCH  42  53
ENDBRANCH  40  42
ENDBRANCH  37  38
ENDBRANCH  15  31
BRANCH  10  57
ATOM     57  N   UNL     1       4.854   7.171  -6.921  0.00  0.00    +0.000 NA
ATOM     58  H   UNL     1       4.890   7.540  -5.946  0.00  0.00    +0.000 HD
ATOM     59  H   UNL     1       5.186   7.905  -7.549  0.00  0.00    +0.000 HD
ENDBRANCH  10  57
BRANCH   1  60
ATOM     60  C   UNL     1       3.692   2.620  -2.549  0.00  0.00    +0.000 C 
ATOM     61  C   UNL     1       3.137   1.025  -1.035  0.00  0.00    +0.000 C 
BRANCH  60  63
ATOM     62  C   UNL     1       0.692   1.228  -1.657  0.00  0.00    +0.000 C 
ATOM     63  C   UNL     1       2.335   1.504  -1.429  0.00  0.00    +0.000 C 
ENDBRANCH  60  63
ENDBRANCH   1  60
BRANCH  19  64
ATOM     64  C   UNL     1       1.736   3.454  -5.140  0.00  0.00    +0.000 C 
BRANCH  64  65
ATOM     65  C   UNL     1       1.254   3.621  -6.581  0.00  0.00    +0.000 C 
ATOM     66  N   UNL     1      -0.072   3.528  -6.798  0.00  0.00    +0.000 N 
ATOM     67  O   UNL     1       1.967   4.011  -7.494  0.00  0.00    +0.000 OA
ATOM     68  H   UNL     1      -0.478   3.489  -5.885  0.00  0.00    +0.000 HD
ATOM     69  H   UNL     1      -0.573   4.199  -7.436  0.00  0.00    +0.000 HD
ENDBRANCH  64  65
ENDBRANCH  19  64
BRANCH   5  70
ATOM     70  C   UNL     1       2.800  11.564  -5.063  0.00  0.00    +0.000 C 
BRANCH  70  71
ATOM     71  C   UNL     1       2.114  12.888  -4.995  0.00  0.00    +0.000 A 
ATOM     72  C   UNL     1       1.393  13.436  -6.047  0.00  0.00    +0.000 A 
ATOM     73  C   UNL     1       0.725  14.654  -5.915  0.00  0.00    +0.000 A 
ATOM     74  C   UNL     1       0.786  15.329  -4.713  0.00  0.00    +0.000 A 
ATOM     75  C   UNL     1       1.531  14.812  -3.669  0.00  0.00    +0.000 A 
ATOM     76  C   UNL     1       2.189  13.602  -3.806  0.00  0.00    +0.000 A 
BRANCH  74  77
ATOM     77  O   UNL     1       0.156  16.509  -4.466  0.00  0.00    +0.000 OA
ATOM     78  H   UNL     1      -0.362  16.842  -5.215  0.00  0.00    +0.000 HD
ENDBRANCH  74  77
ENDBRANCH  70  71
ENDBRANCH   5  70
BRANCH  23  79
ATOM     79  C   UNL     1       2.354  -0.425  -3.363  0.00  0.00    +0.000 C 
BRANCH  79  80
ATOM     80  C   UNL     1       2.235  -1.345  -4.487  0.00  0.00    +0.000 C 
BRANCH  80  81
ATOM     81  C   UNL     1       1.339  -2.517  -4.120  0.00  0.00    +0.000 C 
ATOM     82  N   UNL     1       0.738  -2.587  -2.871  0.00  0.00    +0.000 N 
ATOM     83  O   UNL     1       1.167  -3.394  -4.961  0.00  0.00    +0.000 OA
ATOM     84  H   UNL     1       0.838  -1.907  -2.125  0.00  0.00    +0.000 HD
ATOM     85  H   UNL     1       0.138  -3.364  -2.624  0.00  0.00    +0.000 HD
ENDBRANCH  80  81
ENDBRANCH  79  80
ENDBRANCH  23  79
TORSDOF 19
