REMARK  Name = CHEMBL2369847
REMARK  19 active torsions:
REMARK  status: ('A' for Active; 'I' for Inactive)
REMARK    1  A    between atoms: C_2  and  C_4
REMARK    2  A    between atoms: C_4  and  N_5
REMARK    3  A    between atoms: C_6  and  C_8
REMARK    4  A    between atoms: C_8  and  C_9
REMARK    5  A    between atoms: C_8  and  N_16
REMARK    6  A    between atoms: C_9  and  C_10
REMARK    7  A    between atoms: C_10  and  C_11
REMARK    8  A    between atoms: C_11  and  N_12
REMARK    9  A    between atoms: C_17  and  C_19
REMARK   10  A    between atoms: C_24  and  C_26
REMARK   11  A    between atoms: C_35  and  C_36
REMARK   12  A    between atoms: C_36  and  C_37
REMARK   13  A    between atoms: C_40  and  O_41
REMARK   14  A    between atoms: C_47  and  C_48
REMARK   15  A    between atoms: C_48  and  C_49
REMARK   16  A    between atoms: C_58  and  C_59
REMARK   17  A    between atoms: C_59  and  C_60
REMARK   18  A    between atoms: C_69  and  C_70
REMARK   19  A    between atoms: C_70  and  C_71
REMARK                            x       y       z     vdW  Elec       q    Type
REMARK                         _______ _______ _______ _____ _____    ______ ____
ROOT
ATOM      1  C   UNL     1      12.707   1.476   2.327  0.00  0.00    +0.000 C 
ATOM      2  C   UNL     1      13.490   3.714   2.993  0.00  0.00    +0.000 C 
ATOM      3  S   UNL     1      13.822   6.482   3.290  0.00  0.00    +0.000 S 
ATOM      4  S   UNL     1      14.362   9.271   3.114  0.00  0.00    +0.000 S 
ATOM      5  C   UNL     1      13.425  10.439   1.662  0.00  0.00    +0.000 C 
ATOM      6  C   UNL     1      13.602  11.450   0.531  0.00  0.00    +0.000 C 
ATOM      7  C   UNL     1      12.730  11.269  -0.734  0.00  0.00    +0.000 C 
ATOM      8  O   UNL     1      12.692  12.143  -1.603  0.00  0.00    +0.000 OA
ATOM      9  N   UNL     1      12.042  10.096  -0.893  0.00  0.00    +0.000 N 
ATOM     10  C   UNL     1      11.986   9.015   0.066  0.00  0.00    +0.000 C 
ATOM     11  C   UNL     1      13.537   8.385   0.083  0.00  0.00    +0.000 C 
ATOM     12  O   UNL     1      14.625   8.987   0.221  0.00  0.00    +0.000 OA
ATOM     13  N   UNL     1      13.723   7.137   0.214  0.00  0.00    +0.000 N 
ATOM     14  C   UNL     1      12.749   6.325  -0.109  0.00  0.00    +0.000 C 
ATOM     15  C   UNL     1      11.609   6.170   1.074  0.00  0.00    +0.000 C 
ATOM     16  O   UNL     1      10.957   7.043   1.648  0.00  0.00    +0.000 OA
ATOM     17  N   UNL     1      10.973   5.168   1.401  0.00  0.00    +0.000 N 
ATOM     18  C   UNL     1      11.625   4.207   1.120  0.00  0.00    +0.000 C 
ATOM     19  C   UNL     1      11.066   3.891  -0.339  0.00  0.00    +0.000 C 
ATOM     20  O   UNL     1      11.834   4.540  -1.040  0.00  0.00    +0.000 OA
ATOM     21  N   UNL     1      10.438   2.254  -0.901  0.00  0.00    +0.000 N 
ATOM     22  C   UNL     1      10.606   1.021   0.057  0.00  0.00    +0.000 C 
ATOM     23  C   UNL     1      12.706   0.909   0.660  0.00  0.00    +0.000 C 
ATOM     24  O   UNL     1      13.679   1.795   0.940  0.00  0.00    +0.000 OA
ATOM     25  N   UNL     1      12.818  -0.042   1.545  0.00  0.00    +0.000 N 
ATOM     26  H   UNL     1      11.393   9.986  -1.667  0.00  0.00    +0.000 HD
ATOM     27  H   UNL     1      14.644   6.764   0.175  0.00  0.00    +0.000 HD
ATOM     28  H   UNL     1      10.405   4.941   2.138  0.00  0.00    +0.000 HD
ATOM     29  H   UNL     1      10.595   1.845  -1.776  0.00  0.00    +0.000 HD
ATOM     30  H   UNL     1      13.115  -1.087   1.541  0.00  0.00    +0.000 HD
ENDROOT
BRANCH   1  36
ATOM     31  C   UNL     1      11.129  -0.641  -2.528  0.00  0.00    +0.000 C 
ATOM     32  C   UNL     1      10.015   0.039  -3.459  0.00  0.00    +0.000 C 
ATOM     33  C   UNL     1       9.263  -1.080  -4.028  0.00  0.00    +0.000 C 
ATOM     34  C   UNL     1       9.577  -2.061  -2.356  0.00  0.00    +0.000 C 
ATOM     35  N   UNL     1      10.877  -1.342  -0.800  0.00  0.00    +0.000 N 
ATOM     36  C   UNL     1      11.481  -0.290   0.957  0.00  0.00    +0.000 C 
ATOM     37  O   UNL     1      10.849  -1.624   0.796  0.00  0.00    +0.000 OA
BRANCH  31  39
ATOM     38  N   UNL     1      12.079   1.382  -1.828  0.00  0.00    +0.000 N 
ATOM     39  C   UNL     1      11.969   0.112  -1.762  0.00  0.00    +0.000 C 
ATOM     40  O   UNL     1      12.510  -0.461  -0.849  0.00  0.00    +0.000 OA
ATOM     41  H   UNL     1      11.647   1.952  -2.587  0.00  0.00    +0.000 HD
BRANCH  38  42
ATOM     42  C   UNL     1      12.455   2.095  -0.667  0.00  0.00    +0.000 C 
BRANCH  42  44
ATOM     43  N   UNL     1       9.725   2.894   0.744  0.00  0.00    +0.000 N 
ATOM     44  C   UNL     1      11.559   2.458   0.771  0.00  0.00    +0.000 C 
ATOM     45  O   UNL     1      12.284   2.871   1.821  0.00  0.00    +0.000 OA
ATOM     46  H   UNL     1       9.564   2.492  -0.135  0.00  0.00    +0.000 HD
BRANCH  43  47
ATOM     47  C   UNL     1       8.795   2.314   1.967  0.00  0.00    +0.000 C 
BRANCH  47  49
ATOM     48  N   UNL     1       6.655   2.441   2.527  0.00  0.00    +0.000 N 
ATOM     49  C   UNL     1       7.513   2.476   1.510  0.00  0.00    +0.000 C 
ATOM     50  O   UNL     1       7.291   2.663   0.339  0.00  0.00    +0.000 OA
ATOM     51  H   UNL     1       5.693   2.568   2.295  0.00  0.00    +0.000 HD
ATOM     52  H   UNL     1       6.902   2.314   3.502  0.00  0.00    +0.000 HD
ENDBRANCH  47  49
ENDBRANCH  43  47
ENDBRANCH  42  44
BRANCH  42  53
ATOM     53  C   UNL     1      12.480   3.032  -1.534  0.00  0.00    +0.000 C 
BRANCH  53  54
ATOM     54  C   UNL     1      10.855   3.964  -2.342  0.00  0.00    +0.000 C 
BRANCH  54  55
ATOM     55  C   UNL     1      11.185   5.696  -2.291  0.00  0.00    +0.000 C 
BRANCH  55  56
ATOM     56  N   UNL     1      10.225   6.237  -3.070  0.00  0.00    +0.000 NA
ATOM     57  C   UNL     1      10.242   7.479  -3.334  0.00  0.00    +0.000 C 
ATOM     58  N   UNL     1      11.146   8.420  -2.907  0.00  0.00    +0.000 N 
ATOM     59  N   UNL     1       9.261   7.889  -4.184  0.00  0.00    +0.000 N 
ATOM     60  H   UNL     1      11.938   8.214  -2.284  0.00  0.00    +0.000 HD
ATOM     61  H   UNL     1      11.091   9.396  -3.086  0.00  0.00    +0.000 HD
ATOM     62  H   UNL     1       8.583   7.225  -4.579  0.00  0.00    +0.000 HD
ATOM     63  H   UNL     1       9.134   8.840  -4.485  0.00  0.00    +0.000 HD
ENDBRANCH  55  56
ENDBRANCH  54  55
ENDBRANCH  53  54
ENDBRANCH  42  53
ENDBRANCH  38  42
ENDBRANCH  31  39
ENDBRANCH   1  36
BRANCH  10  64
ATOM     64  C   UNL     1      10.933   8.137  -0.358  0.00  0.00    +0.000 C 
BRANCH  64  65
ATOM     65  C   UNL     1       9.558   8.436  -0.422  0.00  0.00    +0.000 A 
ATOM     66  C   UNL     1       9.314   9.767  -0.440  0.00  0.00    +0.000 A 
ATOM     67  C   UNL     1       8.055  10.235  -0.603  0.00  0.00    +0.000 A 
ATOM     68  C   UNL     1       7.031   9.333  -0.745  0.00  0.00    +0.000 A 
ATOM     69  C   UNL     1       7.279   7.975  -0.697  0.00  0.00    +0.000 A 
ATOM     70  C   UNL     1       8.557   7.509  -0.540  0.00  0.00    +0.000 A 
BRANCH  68  71
ATOM     71  O   UNL     1       5.735   9.694  -0.926  0.00  0.00    +0.000 OA
ATOM     72  H   UNL     1       5.578  10.650  -0.959  0.00  0.00    +0.000 HD
ENDBRANCH  68  71
ENDBRANCH  64  65
ENDBRANCH  10  64
BRANCH  14  73
ATOM     73  C   UNL     1      13.639   5.203  -0.419  0.00  0.00    +0.000 C 
BRANCH  73  74
ATOM     74  C   UNL     1      14.390   4.864  -1.635  0.00  0.00    +0.000 A 
ATOM     75  C   UNL     1      14.829   3.639  -2.188  0.00  0.00    +0.000 A 
ATOM     76  C   UNL     1      15.895   3.687  -2.953  0.00  0.00    +0.000 A 
ATOM     77  C   UNL     1      16.307   4.877  -3.439  0.00  0.00    +0.000 A 
ATOM     78  C   UNL     1      15.765   6.029  -2.976  0.00  0.00    +0.000 A 
ATOM     79  C   UNL     1      14.750   6.017  -2.141  0.00  0.00    +0.000 A 
ENDBRANCH  73  74
ENDBRANCH  14  73
BRANCH  18  80
ATOM     80  C   UNL     1      10.729   2.999   2.460  0.00  0.00    +0.000 C 
BRANCH  80  81
ATOM     81  C   UNL     1      11.296   2.859   3.718  0.00  0.00    +0.000 A 
ATOM     82  C   UNL     1      11.665   1.735   4.388  0.00  0.00    +0.000 A 
ATOM     83  C   UNL     1      11.596   2.056   5.654  0.00  0.00    +0.000 A 
ATOM     84  C   UNL     1      11.693   3.356   6.076  0.00  0.00    +0.000 A 
ATOM     85  C   UNL     1      11.663   4.384   5.207  0.00  0.00    +0.000 A 
ATOM     86  C   UNL     1      11.556   4.138   3.959  0.00  0.00    +0.000 A 
ENDBRANCH  80  81
ENDBRANCH  18  80
BRANCH  22  87
ATOM     87  C   UNL     1       9.562   0.088  -0.354  0.00  0.00    +0.000 C 
BRANCH  87  88
ATOM     88  C   UNL     1       8.521   0.383  -1.221  0.00  0.00    +0.000 C 
ATOM     89  N   UNL     1       8.297   1.672  -1.401  0.00  0.00    +0.000 N 
ATOM     90  O   UNL     1       7.941  -0.459  -1.861  0.00  0.00    +0.000 OA
ATOM     91  H   UNL     1       8.644   2.478  -0.961  0.00  0.00    +0.000 HD
ATOM     92  H   UNL     1       7.507   2.047  -1.831  0.00  0.00    +0.000 HD
ENDBRANCH  87  88
ENDBRANCH  22  87
TORSDOF 19
