REMARK  Name = CHEMBL66985
REMARK  12 active torsions:
REMARK  status: ('A' for Active; 'I' for Inactive)
REMARK    1  A    between atoms: C_1  and  C_2
REMARK    2  A    between atoms: C_2  and  C_3
REMARK    3  A    between atoms: C_4  and  C_5
REMARK    4  A    between atoms: C_5  and  N_6
REMARK    5  A    between atoms: C_9  and  O_10
REMARK    6  A    between atoms: O_10  and  C_11
REMARK    7  A    between atoms: C_13  and  O_14
REMARK    8  A    between atoms: O_14  and  C_15
REMARK    9  A    between atoms: C_16  and  C_17
REMARK   10  A    between atoms: C_22  and  N_23
REMARK   11  A    between atoms: C_41  and  C_42
REMARK   12  A    between atoms: C_44  and  C_45
REMARK                            x       y       z     vdW  Elec       q    Type
REMARK                         _______ _______ _______ _____ _____    ______ ____
ROOT
ATOM      1  C   UNL     1       4.695  -2.321   7.309  0.00  0.00    +0.000 A 
ATOM      2  C   UNL     1       3.356  -1.938   7.389  0.00  0.00    +0.000 A 
ATOM      3  C   UNL     1       2.518  -2.374   8.422  0.00  0.00    +0.000 A 
ATOM      4  C   UNL     1       2.941  -3.466   9.218  0.00  0.00    +0.000 A 
ATOM      5  C   UNL     1       4.140  -4.094   8.853  0.00  0.00    +0.000 A 
ATOM      6  C   UNL     1       5.035  -3.484   7.975  0.00  0.00    +0.000 A 
ATOM      7  F   UNL     1       6.249  -4.027   7.799  0.00  0.00    +0.000 F 
ENDROOT
BRANCH   4   8
ATOM      8  C   UNL     1       2.123  -4.015  10.382  0.00  0.00    +0.000 C 
ATOM      9  O   UNL     1       1.030  -3.496  10.617  0.00  0.00    +0.000 OA
ATOM     10  N   UNL     1       2.582  -5.142  11.154  0.00  0.00    +0.000 N 
ATOM     11  C   UNL     1       1.792  -6.372  11.226  0.00  0.00    +0.000 C 
ATOM     12  C   UNL     1       1.663  -6.999  12.659  0.00  0.00    +0.000 C 
ATOM     13  C   UNL     1       3.210  -7.670  13.478  0.00  0.00    +0.000 C 
ATOM     14  C   UNL     1       3.822  -5.935  13.267  0.00  0.00    +0.000 C 
ATOM     15  C   UNL     1       3.884  -5.274  11.817  0.00  0.00    +0.000 C 
BRANCH  13  16
ATOM     16  N   UNL     1       3.873  -9.404  13.394  0.00  0.00    +0.000 N 
ATOM     17  C   UNL     1       2.455  -9.667  13.407  0.00  0.00    +0.000 C 
ATOM     18  O   UNL     1       1.555  -9.272  14.170  0.00  0.00    +0.000 OA
ATOM     19  O   UNL     1       2.145 -10.241  12.264  0.00  0.00    +0.000 OA
ATOM     20  C   UNL     1       2.404 -11.535  12.660  0.00  0.00    +0.000 C 
ATOM     21  C   UNL     1       3.868 -11.634  12.387  0.00  0.00    +0.000 A 
ATOM     22  C   UNL     1       5.099 -11.588  11.605  0.00  0.00    +0.000 A 
ATOM     23  C   UNL     1       5.865 -12.782  11.430  0.00  0.00    +0.000 A 
ATOM     24  C   UNL     1       5.439 -13.718  12.277  0.00  0.00    +0.000 A 
ATOM     25  C   UNL     1       4.720 -12.933  13.436  0.00  0.00    +0.000 A 
ATOM     26  C   UNL     1       4.152 -11.342  13.600  0.00  0.00    +0.000 A 
ENDBRANCH  13  16
ENDBRANCH   4   8
BRANCH   3  27
ATOM     27  O   UNL     1       1.317  -1.754   8.663  0.00  0.00    +0.000 OA
ATOM     28  C   UNL     1       0.942  -0.605   7.896  0.00  0.00    +0.000 C 
ENDBRANCH   3  27
BRANCH   1  29
ATOM     29  O   UNL     1       5.656  -1.751   6.511  0.00  0.00    +0.000 OA
BRANCH  29  33
ATOM     30  N   UNL     1       4.784   0.861   3.736  0.00  0.00    +0.000 NA
ATOM     31  C   UNL     1       3.821   0.599   4.849  0.00  0.00    +0.000 C 
ATOM     32  C   UNL     1       4.522   0.571   6.220  0.00  0.00    +0.000 C 
ATOM     33  C   UNL     1       5.796  -0.303   6.347  0.00  0.00    +0.000 C 
ATOM     34  C   UNL     1       6.754   0.064   5.144  0.00  0.00    +0.000 C 
ATOM     35  C   UNL     1       6.121   0.178   3.733  0.00  0.00    +0.000 C 
BRANCH  30  36
ATOM     36  C   UNL     1       4.109   0.593   2.457  0.00  0.00    +0.000 C 
BRANCH  36  38
ATOM     37  C   UNL     1       3.040  -1.141   0.952  0.00  0.00    +0.000 A 
ATOM     38  C   UNL     1       3.715  -0.861   2.154  0.00  0.00    +0.000 A 
ATOM     39  C   UNL     1       3.964  -1.983   2.974  0.00  0.00    +0.000 A 
ATOM     40  C   UNL     1       4.594  -2.111   4.284  0.00  0.00    +0.000 C 
ATOM     41  C   UNL     1       3.573  -3.255   2.679  0.00  0.00    +0.000 A 
ATOM     42  C   UNL     1       2.959  -3.492   1.500  0.00  0.00    +0.000 A 
ATOM     43  C   UNL     1       2.571  -4.882   1.206  0.00  0.00    +0.000 C 
ATOM     44  N   UNL     1       2.705  -2.467   0.608  0.00  0.00    +0.000 N 
ATOM     45  O   UNL     1       2.158  -2.745  -0.507  0.00  0.00    +0.000 OA
BRANCH  37  47
ATOM     46  C   UNL     1       1.036  -0.037   0.022  0.00  0.00    +0.000 C 
ATOM     47  C   UNL     1       2.558  -0.078   0.005  0.00  0.00    +0.000 C 
ENDBRANCH  37  47
ENDBRANCH  36  38
ENDBRANCH  30  36
ENDBRANCH  29  33
ENDBRANCH   1  29
TORSDOF 8
