REMARK  Name = CHEMBL270013
REMARK  11 active torsions:
REMARK  status: ('A' for Active; 'I' for Inactive)
REMARK    1  A    between atoms: CD1_1  and  CG_2
REMARK    2  A    between atoms: CG_2  and  CD2_3
REMARK    3  A    between atoms: CG_2  and  CB_4
REMARK    4  A    between atoms: CB_4  and  CA_5
REMARK    5  A    between atoms: C_9  and  C_10
REMARK    6  A    between atoms: N_21  and  C_22
REMARK    7  A    between atoms: C_22  and  C_23
REMARK    8  A    between atoms: C_22  and  C_29
REMARK    9  A    between atoms: N_25  and  C_26
REMARK   10  A    between atoms: C_26  and  C_27
REMARK   11  A    between atoms: C_26  and  C_28
REMARK                            x       y       z     vdW  Elec       q    Type
REMARK                         _______ _______ _______ _____ _____    ______ ____
ROOT
ATOM      1  CA  LEU A   2       4.665   1.193   0.487  0.00  0.00    +0.000 C 
ATOM      2  C   LEU A   2       5.156  -0.092   1.181  0.00  0.00    +0.000 C 
ATOM      3  O   LEU A   2       4.587  -1.142   1.339  0.00  0.00    +0.000 OA
ATOM      4  N   UNK A   1       6.431  -0.022   1.583  0.00  0.00    +0.000 N 
ATOM      5  C   UNK A   1       7.252   1.134   1.399  0.00  0.00    +0.000 C 
ATOM      6  C   UNK A   1       6.446   2.407   1.690  0.00  0.00    +0.000 C 
ATOM      7  O   UNK A   1       7.065   3.350   2.166  0.00  0.00    +0.000 OA
ATOM      8  N   LEU A   2       5.089   2.391   1.314  0.00  0.00    +0.000 N 
ATOM      9  H   UNK A   1       6.734  -0.886   2.010  0.00  0.00    +0.000 HD
ENDROOT
BRANCH   5  10
ATOM     10  C   UNK A   1       8.443   1.113   2.381  0.00  0.00    +0.000 C 
ATOM     11  C   UNK A   1       9.310  -0.137   2.169  0.00  0.00    +0.000 C 
ATOM     12  C   UNK A   1       8.675  -1.103   3.127  0.00  0.00    +0.000 A 
ATOM     13  C   UNK A   1       8.676  -2.483   3.053  0.00  0.00    +0.000 A 
ATOM     14  C   UNK A   1       7.888  -3.193   3.961  0.00  0.00    +0.000 A 
ATOM     15  C   UNK A   1       7.104  -2.522   4.914  0.00  0.00    +0.000 A 
ATOM     16  C   UNK A   1       7.091  -1.127   4.972  0.00  0.00    +0.000 A 
ATOM     17  C   UNK A   1       7.889  -0.432   4.079  0.00  0.00    +0.000 A 
ATOM     18  C   UNK A   1       7.947   1.049   3.859  0.00  0.00    +0.000 C 
ENDBRANCH   5  10
BRANCH   1  19
ATOM     19  CB  LEU A   2       3.179   1.004   0.344  0.00  0.00    +0.000 C 
BRANCH  19  21
ATOM     20  CD1 LEU A   2       1.073  -0.175  -0.455  0.00  0.00    +0.000 C 
ATOM     21  CG  LEU A   2       2.579  -0.228  -0.319  0.00  0.00    +0.000 C 
ATOM     22  CD2 LEU A   2       3.163  -0.430  -1.677  0.00  0.00    +0.000 C 
ENDBRANCH  19  21
ENDBRANCH   1  19
BRANCH   8  23
ATOM     23  C   UNK A   0       4.118   3.528   1.682  0.00  0.00    +0.000 C 
BRANCH  23  24
ATOM     24  C   UNK A   0       4.860   4.796   2.221  0.00  0.00    +0.000 A 
ATOM     25  C   UNK A   0       5.878   5.511   1.591  0.00  0.00    +0.000 A 
ATOM     26  C   UNK A   0       6.537   6.445   2.451  0.00  0.00    +0.000 A 
ATOM     27  C   UNK A   0       5.908   6.556   3.664  0.00  0.00    +0.000 A 
ATOM     28  S   UNK A   0       4.600   5.484   3.787  0.00  0.00    +0.000 S 
ENDBRANCH  23  24
BRANCH  23  29
ATOM     29  C   UNK A   0       2.940   3.083   2.676  0.00  0.00    +0.000 C 
ATOM     30  O   UNK A   0       2.969   3.238   3.897  0.00  0.00    +0.000 OA
ATOM     31  N   UNK A   0       1.849   2.384   2.167  0.00  0.00    +0.000 N 
ATOM     32  H   UNK A   0       1.583   2.430   1.194  0.00  0.00    +0.000 HD
BRANCH  31  33
ATOM     33  C   UNK A   0       0.905   1.737   3.073  0.00  0.00    +0.000 C 
ATOM     34  C   UNK A   0      -0.096   2.808   3.395  0.00  0.00    +0.000 C 
ATOM     35  C   UNK A   0       0.139   0.558   2.499  0.00  0.00    +0.000 C 
ENDBRANCH  31  33
ENDBRANCH  23  29
ENDBRANCH   8  23
TORSDOF 7
