REMARK  Name = CHEMBL1790711
REMARK  24 active torsions:
REMARK  status: ('A' for Active; 'I' for Inactive)
REMARK    1  A    between atoms: C_1  and  C_2
REMARK    2  A    between atoms: C_2  and  C_3
REMARK    3  A    between atoms: C_3  and  C_4
REMARK    4  A    between atoms: C_3  and  C_5
REMARK    5  A    between atoms: C_9  and  C_10
REMARK    6  A    between atoms: C_13  and  O_14
REMARK    7  A    between atoms: C_25  and  C_26
REMARK    8  A    between atoms: C_32  and  C_33
REMARK    9  A    between atoms: N_35  and  C_36
REMARK   10  A    between atoms: C_36  and  C_37
REMARK   11  A    between atoms: C_36  and  C_68
REMARK   12  A    between atoms: C_37  and  C_38
REMARK   13  A    between atoms: C_38  and  C_39
REMARK   14  A    between atoms: C_39  and  N_40
REMARK   15  A    between atoms: C_41  and  C_43
REMARK   16  A    between atoms: C_56  and  O_57
REMARK   17  A    between atoms: C_63  and  O_64
REMARK   18  A    between atoms: N_70  and  C_71
REMARK   19  A    between atoms: C_71  and  N_72
REMARK   20  A    between atoms: C_76  and  C_77
REMARK   21  A    between atoms: C_77  and  C_78
REMARK   22  A    between atoms: C_84  and  C_85
REMARK   23  A    between atoms: C_85  and  C_86
REMARK   24  A    between atoms: C_85  and  O_87
REMARK                            x       y       z     vdW  Elec       q    Type
REMARK                         _______ _______ _______ _____ _____    ______ ____
ROOT
ATOM      1  C   UNL     1       0.575  -2.918   9.017  0.00  0.00    +0.000 C 
ATOM      2  O   UNL     1      -0.577  -2.777   9.472  0.00  0.00    +0.000 OA
ATOM      3  N   UNL     1       1.633  -2.686   9.828  0.00  0.00    +0.000 N 
ATOM      4  C   UNL     1       2.988  -2.393   9.455  0.00  0.00    +0.000 C 
ATOM      5  C   UNL     1       3.731  -3.366  10.304  0.00  0.00    +0.000 C 
ATOM      6  C   UNL     1       2.935  -3.319  11.623  0.00  0.00    +0.000 C 
ATOM      7  C   UNL     1       1.487  -2.997  11.244  0.00  0.00    +0.000 C 
ENDROOT
BRANCH   1  21
ATOM      8  C   UNL     1       1.759   4.109   6.442  0.00  0.00    +0.000 C 
ATOM      9  N   UNL     1       0.347   3.334   5.310  0.00  0.00    +0.000 N 
ATOM     10  C   UNL     1      -1.087   2.707   4.881  0.00  0.00    +0.000 C 
ATOM     11  O   UNL     1      -1.097   1.996   3.832  0.00  0.00    +0.000 OA
ATOM     12  C   UNL     1      -2.669   3.017   5.472  0.00  0.00    +0.000 C 
ATOM     13  N   UNL     1      -3.891   3.081   4.531  0.00  0.00    +0.000 N 
ATOM     14  C   UNL     1      -4.808   2.168   4.027  0.00  0.00    +0.000 C 
ATOM     15  O   UNL     1      -5.826   2.579   3.452  0.00  0.00    +0.000 OA
ATOM     16  C   UNL     1      -4.669   0.669   4.146  0.00  0.00    +0.000 C 
ATOM     17  C   UNL     1      -3.503   0.243   4.910  0.00  0.00    +0.000 C 
ATOM     18  S   UNL     1      -3.155  -1.416   4.674  0.00  0.00    +0.000 S 
ATOM     19  S   UNL     1      -0.859  -1.135   5.270  0.00  0.00    +0.000 S 
ATOM     20  C   UNL     1      -0.088  -3.125   6.498  0.00  0.00    +0.000 C 
ATOM     21  C   UNL     1       0.945  -3.317   7.548  0.00  0.00    +0.000 C 
ATOM     22  N   UNL     1       1.957  -2.738   6.814  0.00  0.00    +0.000 N 
ATOM     23  C   UNL     1       1.996  -1.409   6.704  0.00  0.00    +0.000 C 
ATOM     24  O   UNL     1       3.104  -1.022   6.317  0.00  0.00    +0.000 OA
ATOM     25  C   UNL     1       0.627  -0.467   7.040  0.00  0.00    +0.000 C 
ATOM     26  N   UNL     1       1.104   0.597   7.788  0.00  0.00    +0.000 N 
ATOM     27  C   UNL     1       1.838   1.562   7.226  0.00  0.00    +0.000 C 
ATOM     28  O   UNL     1       2.099   2.357   8.131  0.00  0.00    +0.000 OA
ATOM     29  C   UNL     1       2.431   1.623   5.611  0.00  0.00    +0.000 C 
ATOM     30  N   UNL     1       2.578   2.865   4.676  0.00  0.00    +0.000 N 
ATOM     31  C   UNL     1       2.337   4.185   5.087  0.00  0.00    +0.000 C 
ATOM     32  O   UNL     1       2.232   5.190   4.400  0.00  0.00    +0.000 OA
ATOM     33  H   UNL     1       0.530   3.225   4.287  0.00  0.00    +0.000 HD
ATOM     34  H   UNL     1      -4.242   4.025   4.399  0.00  0.00    +0.000 HD
ATOM     35  H   UNL     1       2.663  -3.293   6.359  0.00  0.00    +0.000 HD
ATOM     36  H   UNL     1       0.687   0.857   8.667  0.00  0.00    +0.000 HD
ATOM     37  H   UNL     1       1.876   2.730   3.985  0.00  0.00    +0.000 HD
BRANCH  12  38
ATOM     38  C   UNL     1      -3.074   2.292   6.767  0.00  0.00    +0.000 A 
ATOM     39  C   UNL     1      -1.969   1.870   7.461  0.00  0.00    +0.000 A 
ATOM     40  C   UNL     1      -2.093   1.099   8.596  0.00  0.00    +0.000 A 
ATOM     41  C   UNL     1      -3.293   0.509   8.953  0.00  0.00    +0.000 A 
ATOM     42  C   UNL     1      -4.436   0.828   8.258  0.00  0.00    +0.000 A 
ATOM     43  C   UNL     1      -4.357   1.790   7.217  0.00  0.00    +0.000 A 
BRANCH  41  44
ATOM     44  O   UNL     1      -3.355  -0.411   9.954  0.00  0.00    +0.000 OA
ATOM     45  H   UNL     1      -2.471  -0.601  10.315  0.00  0.00    +0.000 HD
ENDBRANCH  41  44
ENDBRANCH  12  38
BRANCH  29  46
ATOM     46  C   UNL     1       1.904   0.535   4.664  0.00  0.00    +0.000 C 
ATOM     47  C   UNL     1       2.807   0.264   3.541  0.00  0.00    +0.000 C 
BRANCH  46  48
ATOM     48  O   UNL     1       0.689   0.506   3.995  0.00  0.00    +0.000 OA
ATOM     49  H   UNL     1       0.204   1.321   3.988  0.00  0.00    +0.000 HD
ENDBRANCH  46  48
ENDBRANCH  29  46
BRANCH   8  50
ATOM     50  C   UNL     1       3.357   5.063   7.093  0.00  0.00    +0.000 C 
ATOM     51  C   UNL     1       3.224   6.586   7.243  0.00  0.00    +0.000 C 
BRANCH  50  53
ATOM     52  C   UNL     1       2.857   4.749   9.639  0.00  0.00    +0.000 C 
ATOM     53  C   UNL     1       4.016   4.725   8.691  0.00  0.00    +0.000 C 
ENDBRANCH  50  53
ENDBRANCH   8  50
BRANCH  25  54
ATOM     54  C   UNL     1      -0.731  -1.289   7.553  0.00  0.00    +0.000 C 
BRANCH  54  55
ATOM     55  C   UNL     1      -1.906  -2.555   6.570  0.00  0.00    +0.000 C 
ATOM     56  N   UNL     1      -1.207  -3.107   5.001  0.00  0.00    +0.000 N 
ATOM     57  O   UNL     1      -2.872  -3.185   7.112  0.00  0.00    +0.000 OA
ATOM     58  H   UNL     1      -0.315  -2.388   4.732  0.00  0.00    +0.000 HD
ATOM     59  H   UNL     1      -1.315  -3.510   4.063  0.00  0.00    +0.000 HD
ENDBRANCH  54  55
ENDBRANCH  25  54
ENDBRANCH   1  21
BRANCH   7  60
ATOM     60  C   UNL     1       0.477  -4.146  11.425  0.00  0.00    +0.000 C 
ATOM     61  O   UNL     1       0.082  -4.750  10.425  0.00  0.00    +0.000 OA
ATOM     62  N   UNL     1       0.017  -4.450  12.684  0.00  0.00    +0.000 N 
ATOM     63  H   UNL     1       0.272  -3.871  13.477  0.00  0.00    +0.000 HD
BRANCH  62  64
ATOM     64  C   UNL     1      -1.035  -5.483  12.927  0.00  0.00    +0.000 C 
BRANCH  64  65
ATOM     65  C   UNL     1      -1.519  -5.438  14.427  0.00  0.00    +0.000 C 
ATOM     66  O   UNL     1      -1.018  -4.627  15.212  0.00  0.00    +0.000 OA
ATOM     67  N   UNL     1      -2.521  -6.318  14.832  0.00  0.00    +0.000 N 
ATOM     68  H   UNL     1      -2.919  -7.004  14.207  0.00  0.00    +0.000 HD
BRANCH  67  69
ATOM     69  C   UNL     1      -2.968  -6.341  16.201  0.00  0.00    +0.000 C 
BRANCH  69  70
ATOM     70  N   UNL     1      -3.970  -7.376  16.346  0.00  0.00    +0.000 NA
ATOM     71  H   UNL     1      -4.805  -7.141  15.815  0.00  0.00    +0.000 HD
ATOM     72  H   UNL     1      -4.288  -7.371  17.322  0.00  0.00    +0.000 HD
ENDBRANCH  69  70
ENDBRANCH  67  69
ENDBRANCH  64  65
BRANCH  64  73
ATOM     73  C   UNL     1      -0.490  -6.889  12.591  0.00  0.00    +0.000 C 
BRANCH  73  74
ATOM     74  C   UNL     1      -0.015  -7.028  11.137  0.00  0.00    +0.000 C 
BRANCH  74  75
ATOM     75  C   UNL     1       0.567  -8.344  10.673  0.00  0.00    +0.000 C 
BRANCH  75  76
ATOM     76  N   UNL     1       1.000  -8.338   9.162  0.00  0.00    +0.000 N 
ATOM     77  C   UNL     1       1.521  -9.535   8.511  0.00  0.00    +0.000 C 
ATOM     78  O   UNL     1       1.746 -10.418   9.367  0.00  0.00    +0.000 OA
ATOM     79  H   UNL     1       0.881  -7.441   8.719  0.00  0.00    +0.000 HD
BRANCH  77  80
ATOM     80  C   UNL     1       1.947 -10.020   6.842  0.00  0.00    +0.000 A 
ATOM     81  C   UNL     1       3.068 -10.741   6.954  0.00  0.00    +0.000 A 
ATOM     82  C   UNL     1       3.949 -10.717   5.827  0.00  0.00    +0.000 A 
ATOM     83  C   UNL     1       3.665 -11.674   4.921  0.00  0.00    +0.000 A 
ATOM     84  C   UNL     1       2.722 -11.223   4.031  0.00  0.00    +0.000 A 
ATOM     85  C   UNL     1       1.823 -10.159   5.234  0.00  0.00    +0.000 A 
ATOM     86  C   UNL     1       3.328 -12.822   3.029  0.00  0.00    +0.000 C 
ATOM     87  O   UNL     1       3.847 -13.658   4.124  0.00  0.00    +0.000 OA
ATOM     88  C   UNL     1       3.625 -13.083   5.292  0.00  0.00    +0.000 C 
ATOM     89  O   UNL     1       3.545 -13.589   6.392  0.00  0.00    +0.000 OA
ATOM     90  C   UNL     1       4.623 -12.679   1.722  0.00  0.00    +0.000 A 
ATOM     91  C   UNL     1       5.030 -11.481   1.132  0.00  0.00    +0.000 A 
ATOM     92  C   UNL     1       5.519 -11.365  -0.254  0.00  0.00    +0.000 A 
ATOM     93  C   UNL     1       5.705 -12.451  -1.111  0.00  0.00    +0.000 A 
ATOM     94  C   UNL     1       5.497 -13.694  -0.564  0.00  0.00    +0.000 A 
ATOM     95  C   UNL     1       5.004 -13.792   0.819  0.00  0.00    +0.000 A 
ATOM     96  O   UNL     1       4.940 -15.093   1.230  0.00  0.00    +0.000 OA
ATOM     97  C   UNL     1       3.796 -15.403   1.927  0.00  0.00    +0.000 A 
ATOM     98  C   UNL     1       3.717 -16.854   2.100  0.00  0.00    +0.000 A 
ATOM     99  C   UNL     1       2.571 -17.387   2.618  0.00  0.00    +0.000 A 
ATOM    100  C   UNL     1       1.497 -16.502   2.726  0.00  0.00    +0.000 A 
ATOM    101  C   UNL     1       1.575 -15.048   2.526  0.00  0.00    +0.000 A 
ATOM    102  C   UNL     1       2.772 -14.379   2.319  0.00  0.00    +0.000 A 
BRANCH  99 103
ATOM    103  O   UNL     1       2.422 -18.688   3.018  0.00  0.00    +0.000 OA
ATOM    104  H   UNL     1       3.250 -19.203   2.984  0.00  0.00    +0.000 HD
ENDBRANCH  99 103
BRANCH  93 105
ATOM    105  O   UNL     1       6.064 -12.355  -2.429  0.00  0.00    +0.000 OA
ATOM    106  H   UNL     1       6.195 -11.433  -2.713  0.00  0.00    +0.000 HD
ENDBRANCH  93 105
ENDBRANCH  77  80
ENDBRANCH  75  76
ENDBRANCH  74  75
ENDBRANCH  73  74
ENDBRANCH  64  73
ENDBRANCH  62  64
ENDBRANCH   7  60
TORSDOF 21
