REMARK  Name = CHEMBL1089272
REMARK  8 active torsions:
REMARK  status: ('A' for Active; 'I' for Inactive)
REMARK    1  A    between atoms: C_1  and  C_2
REMARK    2  A    between atoms: C_2  and  N_3
REMARK    3  A    between atoms: N_3  and  C_18
REMARK    4  A    between atoms: C_4  and  C_6
REMARK    5  A    between atoms: C_6  and  O_7
REMARK    6  A    between atoms: O_7  and  C_8
REMARK    7  A    between atoms: C_21  and  O_22
REMARK    8  A    between atoms: O_22  and  C_23
REMARK                            x       y       z     vdW  Elec       q    Type
REMARK                         _______ _______ _______ _____ _____    ______ ____
ROOT
ATOM      1  N   UNL     1       2.983   1.033  -1.119  0.00  0.00    +0.000 N 
ATOM      2  C   UNL     1       2.161   1.818  -1.966  0.00  0.00    +0.000 C 
ATOM      3  O   UNL     1       2.641   2.564  -2.834  0.00  0.00    +0.000 OA
ENDROOT
BRANCH   1   4
ATOM      4  C   UNL     1       4.428   1.182  -1.261  0.00  0.00    +0.000 A 
ATOM      5  C   UNL     1       5.294   0.086  -1.240  0.00  0.00    +0.000 A 
ATOM      6  C   UNL     1       6.670   0.259  -1.456  0.00  0.00    +0.000 A 
ATOM      7  C   UNL     1       7.177   1.535  -1.650  0.00  0.00    +0.000 A 
ATOM      8  N   UNL     1       6.381   2.620  -1.622  0.00  0.00    +0.000 NA
ATOM      9  C   UNL     1       5.042   2.422  -1.449  0.00  0.00    +0.000 A 
BRANCH   7  10
ATOM     10  O   UNL     1       8.492   1.829  -1.887  0.00  0.00    +0.000 OA
ATOM     11  C   UNL     1       9.391   0.729  -1.967  0.00  0.00    +0.000 C 
ENDBRANCH   7  10
ENDBRANCH   1   4
BRANCH   1  13
ATOM     12  C   UNL     1       1.098  -0.139   0.230  0.00  0.00    +0.000 C 
ATOM     13  C   UNL     1       2.572   0.074  -0.047  0.00  0.00    +0.000 C 
ENDBRANCH   1  13
BRANCH   2  14
ATOM     14  C   UNL     1       0.624   1.734  -1.854  0.00  0.00    +0.000 C 
BRANCH  14  15
ATOM     15  O   UNL     1      -0.127   2.524  -2.769  0.00  0.00    +0.000 OA
BRANCH  15  16
ATOM     16  C   UNL     1      -1.489   2.395  -2.628  0.00  0.00    +0.000 A 
ATOM     17  C   UNL     1      -2.175   2.439  -1.412  0.00  0.00    +0.000 A 
ATOM     18  C   UNL     1      -3.576   2.437  -1.395  0.00  0.00    +0.000 A 
ATOM     19  C   UNL     1      -4.308   2.411  -2.592  0.00  0.00    +0.000 A 
ATOM     20  C   UNL     1      -5.711   2.481  -2.597  0.00  0.00    +0.000 A 
ATOM     21  C   UNL     1      -6.420   2.465  -3.799  0.00  0.00    +0.000 A 
ATOM     22  C   UNL     1      -5.737   2.371  -5.008  0.00  0.00    +0.000 A 
ATOM     23  C   UNL     1      -4.343   2.301  -5.019  0.00  0.00    +0.000 A 
ATOM     24  C   UNL     1      -3.614   2.333  -3.821  0.00  0.00    +0.000 A 
ATOM     25  C   UNL     1      -2.210   2.318  -3.820  0.00  0.00    +0.000 A 
ENDBRANCH  15  16
ENDBRANCH  14  15
ENDBRANCH   2  14
TORSDOF 6
