REMARK  Name = CHEMBL69539
REMARK  8 active torsions:
REMARK  status: ('A' for Active; 'I' for Inactive)
REMARK    1  A    between atoms: C_1  and  O_2
REMARK    2  A    between atoms: O_2  and  C_3
REMARK    3  A    between atoms: C_5  and  O_6
REMARK    4  A    between atoms: O_6  and  C_7
REMARK    5  A    between atoms: N_10  and  C_11
REMARK    6  A    between atoms: C_11  and  C_12
REMARK    7  A    between atoms: C_23  and  C_24
REMARK    8  A    between atoms: C_29  and  N_30
REMARK                            x       y       z     vdW  Elec       q    Type
REMARK                         _______ _______ _______ _____ _____    ______ ____
ROOT
ATOM      1  C   UNL     1       3.090   0.909   0.377  0.00  0.00    +0.000 A 
ATOM      2  C   UNL     1       4.367   1.468  -0.022  0.00  0.00    +0.000 A 
ATOM      3  C   UNL     1       5.142   2.110   0.874  0.00  0.00    +0.000 A 
ATOM      4  C   UNL     1       4.438   2.220   2.018  0.00  0.00    +0.000 A 
ATOM      5  C   UNL     1       3.250   1.730   2.501  0.00  0.00    +0.000 A 
ATOM      6  C   UNL     1       2.500   1.038   1.656  0.00  0.00    +0.000 A 
ENDROOT
BRANCH   6   7
ATOM      7  C   UNL     1       1.234   0.636   2.350  0.00  0.00    +0.000 C 
ATOM      8  O   UNL     1       0.896   1.145   3.424  0.00  0.00    +0.000 OA
ATOM      9  N   UNL     1       0.413  -0.239   1.692  0.00  0.00    +0.000 N 
ATOM     10  C   UNL     1      -0.847   0.366   1.165  0.00  0.00    +0.000 C 
ATOM     11  C   UNL     1      -1.912  -0.669   1.070  0.00  0.00    +0.000 C 
ATOM     12  C   UNL     1      -1.477  -1.797  -0.217  0.00  0.00    +0.000 C 
ATOM     13  C   UNL     1      -0.147  -2.460   0.802  0.00  0.00    +0.000 C 
ATOM     14  C   UNL     1       0.973  -1.510   1.130  0.00  0.00    +0.000 C 
BRANCH  12  15
ATOM     15  N   UNL     1      -2.047  -1.268  -1.934  0.00  0.00    +0.000 N 
ATOM     16  C   UNL     1      -3.339  -1.661  -1.358  0.00  0.00    +0.000 C 
ATOM     17  O   UNL     1      -3.882  -1.334  -0.384  0.00  0.00    +0.000 OA
ATOM     18  O   UNL     1      -3.844  -2.747  -1.984  0.00  0.00    +0.000 OA
ATOM     19  C   UNL     1      -4.647  -2.041  -2.841  0.00  0.00    +0.000 C 
ATOM     20  C   UNL     1      -3.679  -2.284  -3.907  0.00  0.00    +0.000 A 
ATOM     21  C   UNL     1      -4.142  -3.145  -4.996  0.00  0.00    +0.000 A 
ATOM     22  C   UNL     1      -3.715  -3.094  -6.296  0.00  0.00    +0.000 A 
ATOM     23  C   UNL     1      -3.122  -1.889  -6.521  0.00  0.00    +0.000 A 
ATOM     24  C   UNL     1      -2.533  -1.085  -5.252  0.00  0.00    +0.000 A 
ATOM     25  C   UNL     1      -2.469  -1.593  -3.724  0.00  0.00    +0.000 A 
ENDBRANCH  12  15
ENDBRANCH   6   7
BRANCH   1  27
ATOM     26  C   UNL     1       1.311   0.481  -0.967  0.00  0.00    +0.000 C 
ATOM     27  O   UNL     1       2.619   0.136  -0.631  0.00  0.00    +0.000 OA
ENDBRANCH   1  27
BRANCH   3  28
ATOM     28  O   UNL     1       6.423   2.538   0.710  0.00  0.00    +0.000 OA
BRANCH  28  29
ATOM     29  C   UNL     1       7.245   3.205   1.755  0.00  0.00    +0.000 C 
ATOM     30  C   UNL     1       7.543   2.439   3.072  0.00  0.00    +0.000 C 
ATOM     31  C   UNL     1       6.363   2.375   4.023  0.00  0.00    +0.000 C 
ATOM     32  N   UNL     1       5.741   3.772   4.209  0.00  0.00    +0.000 NA
ATOM     33  C   UNL     1       5.610   4.655   2.954  0.00  0.00    +0.000 C 
ATOM     34  C   UNL     1       6.797   4.633   2.041  0.00  0.00    +0.000 C 
BRANCH  32  35
ATOM     35  C   UNL     1       4.428   3.617   4.887  0.00  0.00    +0.000 C 
BRANCH  35  36
ATOM     36  C   UNL     1       3.649   4.864   5.103  0.00  0.00    +0.000 A 
ATOM     37  C   UNL     1       3.143   5.625   4.035  0.00  0.00    +0.000 A 
ATOM     38  C   UNL     1       2.666   6.891   4.248  0.00  0.00    +0.000 A 
ATOM     39  C   UNL     1       2.481   7.280   5.561  0.00  0.00    +0.000 A 
ATOM     40  N   UNL     1       2.773   6.447   6.638  0.00  0.00    +0.000 N 
ATOM     41  O   UNL     1       2.521   6.804   7.825  0.00  0.00    +0.000 OA
ATOM     42  C   UNL     1       3.371   5.242   6.396  0.00  0.00    +0.000 A 
ENDBRANCH  35  36
ENDBRANCH  32  35
ENDBRANCH  28  29
ENDBRANCH   3  28
TORSDOF 7
