REMARK  Name = CHEMBL105039
REMARK  8 active torsions:
REMARK  status: ('A' for Active; 'I' for Inactive)
REMARK    1  A    between atoms: C_1  and  O_2
REMARK    2  A    between atoms: O_2  and  C_3
REMARK    3  A    between atoms: C_5  and  O_6
REMARK    4  A    between atoms: O_6  and  C_7
REMARK    5  A    between atoms: C_7  and  C_8
REMARK    6  A    between atoms: C_7  and  C_9
REMARK    7  A    between atoms: C_12  and  C_13
REMARK    8  A    between atoms: C_18  and  N_19
REMARK                            x       y       z     vdW  Elec       q    Type
REMARK                         _______ _______ _______ _____ _____    ______ ____
ROOT
ATOM      1  C   UNL     1       1.306   0.439   2.450  0.00  0.00    +0.000 C 
ATOM      2  O   UNL     1       0.924   0.799   3.570  0.00  0.00    +0.000 OA
ATOM      3  N   UNL     1       0.464  -0.361   1.631  0.00  0.00    +0.000 N 
ATOM      4  C   UNL     1      -0.825   0.280   1.134  0.00  0.00    +0.000 C 
ATOM      5  C   UNL     1      -1.920  -0.722   0.891  0.00  0.00    +0.000 C 
ATOM      6  C   UNL     1      -1.504  -1.697  -0.508  0.00  0.00    +0.000 C 
ATOM      7  C   UNL     1      -0.186  -2.488   0.459  0.00  0.00    +0.000 C 
ATOM      8  C   UNL     1       0.969  -1.609   0.928  0.00  0.00    +0.000 C 
ENDROOT
BRANCH   6   9
ATOM      9  N   UNL     1      -2.018  -0.975  -2.178  0.00  0.00    +0.000 N 
ATOM     10  C   UNL     1      -3.319  -1.477  -1.683  0.00  0.00    +0.000 C 
ATOM     11  O   UNL     1      -3.891  -1.256  -0.691  0.00  0.00    +0.000 OA
ATOM     12  O   UNL     1      -3.816  -2.475  -2.456  0.00  0.00    +0.000 OA
ATOM     13  C   UNL     1      -4.639  -1.673  -3.211  0.00  0.00    +0.000 C 
ATOM     14  C   UNL     1      -3.657  -1.693  -4.281  0.00  0.00    +0.000 A 
ATOM     15  C   UNL     1      -3.841  -2.536  -5.439  0.00  0.00    +0.000 A 
ATOM     16  C   UNL     1      -3.354  -2.292  -6.706  0.00  0.00    +0.000 A 
ATOM     17  C   UNL     1      -2.939  -1.003  -6.804  0.00  0.00    +0.000 A 
ATOM     18  C   UNL     1      -2.497  -0.298  -5.442  0.00  0.00    +0.000 A 
ATOM     19  C   UNL     1      -2.498  -0.997  -3.984  0.00  0.00    +0.000 A 
ENDBRANCH   6   9
BRANCH   1  25
ATOM     20  C   UNL     1       3.156   0.956   0.648  0.00  0.00    +0.000 A 
ATOM     21  C   UNL     1       4.407   1.542   0.352  0.00  0.00    +0.000 A 
ATOM     22  C   UNL     1       5.176   2.168   1.323  0.00  0.00    +0.000 A 
ATOM     23  C   UNL     1       4.596   2.370   2.563  0.00  0.00    +0.000 A 
ATOM     24  C   UNL     1       3.389   1.740   2.901  0.00  0.00    +0.000 A 
ATOM     25  C   UNL     1       2.633   0.997   1.954  0.00  0.00    +0.000 A 
BRANCH  20  27
ATOM     26  C   UNL     1       1.394   0.616  -0.878  0.00  0.00    +0.000 C 
ATOM     27  O   UNL     1       2.692   0.287  -0.452  0.00  0.00    +0.000 OA
ENDBRANCH  20  27
BRANCH  22  28
ATOM     28  O   UNL     1       6.474   2.467   1.002  0.00  0.00    +0.000 OA
BRANCH  28  29
ATOM     29  C   UNL     1       7.334   2.934   2.061  0.00  0.00    +0.000 C 
ATOM     30  C   UNL     1       7.508   1.941   3.224  0.00  0.00    +0.000 C 
ATOM     31  C   UNL     1       8.725   3.182   1.474  0.00  0.00    +0.000 C 
ENDBRANCH  28  29
ENDBRANCH  22  28
ENDBRANCH   1  25
TORSDOF 5
