REMARK  Name = CHEMBL318174
REMARK  9 active torsions:
REMARK  status: ('A' for Active; 'I' for Inactive)
REMARK    1  A    between atoms: C_1  and  O_2
REMARK    2  A    between atoms: O_2  and  C_3
REMARK    3  A    between atoms: C_5  and  O_6
REMARK    4  A    between atoms: O_6  and  C_7
REMARK    5  A    between atoms: C_7  and  C_8
REMARK    6  A    between atoms: C_7  and  C_9
REMARK    7  A    between atoms: C_13  and  C_14
REMARK    8  A    between atoms: C_20  and  C_21
REMARK    9  A    between atoms: C_26  and  N_27
REMARK                            x       y       z     vdW  Elec       q    Type
REMARK                         _______ _______ _______ _____ _____    ______ ____
ROOT
ATOM      1  C   UNL     1       3.048  -0.842   0.589  0.00  0.00    +0.000 A 
ATOM      2  C   UNL     1       4.262  -0.644   1.265  0.00  0.00    +0.000 A 
ATOM      3  C   UNL     1       5.042  -1.702   1.660  0.00  0.00    +0.000 A 
ATOM      4  C   UNL     1       4.503  -2.974   1.549  0.00  0.00    +0.000 A 
ATOM      5  C   UNL     1       3.362  -3.208   0.770  0.00  0.00    +0.000 A 
ATOM      6  C   UNL     1       2.575  -2.138   0.270  0.00  0.00    +0.000 A 
ENDROOT
BRANCH   6   7
ATOM      7  C   UNL     1       1.267  -2.539  -0.436  0.00  0.00    +0.000 C 
ATOM      8  O   UNL     1       0.941  -3.730  -0.358  0.00  0.00    +0.000 OA
ATOM      9  N   UNL     1       0.419  -1.590  -1.117  0.00  0.00    +0.000 N 
ATOM     10  C   UNL     1      -0.933  -1.232  -0.518  0.00  0.00    +0.000 C 
ATOM     11  C   UNL     1      -1.914  -0.686  -1.563  0.00  0.00    +0.000 C 
ATOM     12  C   UNL     1      -1.358   0.826  -2.389  0.00  0.00    +0.000 C 
ATOM     13  C   UNL     1       0.032  -0.015  -3.088  0.00  0.00    +0.000 C 
ATOM     14  C   UNL     1       1.010  -0.587  -2.046  0.00  0.00    +0.000 C 
BRANCH  12  15
ATOM     15  N   UNL     1      -2.073   2.552  -2.288  0.00  0.00    +0.000 N 
ATOM     16  C   UNL     1      -3.237   1.860  -1.898  0.00  0.00    +0.000 C 
ATOM     17  O   UNL     1      -3.858   0.932  -2.531  0.00  0.00    +0.000 OA
ATOM     18  O   UNL     1      -3.544   2.024  -0.632  0.00  0.00    +0.000 OA
ATOM     19  C   UNL     1      -4.553   2.934  -0.821  0.00  0.00    +0.000 C 
ATOM     20  C   UNL     1      -3.729   4.118  -0.593  0.00  0.00    +0.000 A 
ATOM     21  C   UNL     1      -4.570   5.087   0.266  0.00  0.00    +0.000 A 
ATOM     22  C   UNL     1      -4.524   6.445   0.259  0.00  0.00    +0.000 A 
ATOM     23  C   UNL     1      -3.592   6.817  -0.680  0.00  0.00    +0.000 A 
ATOM     24  C   UNL     1      -2.667   5.733  -1.569  0.00  0.00    +0.000 A 
ATOM     25  C   UNL     1      -2.585   4.155  -1.460  0.00  0.00    +0.000 A 
ENDBRANCH  12  15
ENDBRANCH   6   7
BRANCH   1  27
ATOM     26  C   UNL     1       1.245   0.634   0.639  0.00  0.00    +0.000 C 
ATOM     27  O   UNL     1       2.569   0.396   0.247  0.00  0.00    +0.000 OA
ENDBRANCH   1  27
BRANCH   3  28
ATOM     28  O   UNL     1       6.319  -1.389   2.034  0.00  0.00    +0.000 OA
BRANCH  28  29
ATOM     29  C   UNL     1       7.211  -2.492   2.191  0.00  0.00    +0.000 C 
ATOM     30  C   UNL     1       7.176  -3.519   1.040  0.00  0.00    +0.000 C 
BRANCH  29  31
ATOM     31  C   UNL     1       8.663  -1.973   2.473  0.00  0.00    +0.000 C 
ATOM     32  C   UNL     1       9.175  -0.886   1.507  0.00  0.00    +0.000 C 
ATOM     33  C   UNL     1       9.398  -1.431   0.113  0.00  0.00    +0.000 C 
ATOM     34  N   UNL     1      10.304  -2.606   0.169  0.00  0.00    +0.000 N 
ATOM     35  C   UNL     1      11.375  -2.854  -0.657  0.00  0.00    +0.000 C 
ATOM     36  C   UNL     1      11.795  -1.790  -1.619  0.00  0.00    +0.000 C 
ATOM     37  O   UNL     1      12.020  -3.904  -0.600  0.00  0.00    +0.000 OA
ATOM     38  C   UNL     1       9.954  -3.697   1.070  0.00  0.00    +0.000 C 
ATOM     39  C   UNL     1       9.636  -3.171   2.478  0.00  0.00    +0.000 C 
ENDBRANCH  29  31
ENDBRANCH  28  29
ENDBRANCH   3  28
TORSDOF 6
