REMARK  Name = CHEMBL278093
REMARK  13 active torsions:
REMARK  status: ('A' for Active; 'I' for Inactive)
REMARK    1  A    between atoms: C_1  and  C_2
REMARK    2  A    between atoms: C_2  and  C_4
REMARK    3  A    between atoms: C_4  and  C_5
REMARK    4  A    between atoms: C_5  and  C_6
REMARK    5  A    between atoms: C_6  and  C_7
REMARK    6  A    between atoms: N_9  and  C_10
REMARK    7  A    between atoms: C_12  and  C_13
REMARK    8  A    between atoms: N_25  and  C_26
REMARK    9  A    between atoms: C_26  and  C_27
REMARK   10  A    between atoms: N_29  and  C_30
REMARK   11  A    between atoms: C_30  and  C_31
REMARK   12  A    between atoms: C_30  and  C_38
REMARK   13  A    between atoms: C_31  and  C_32
REMARK                            x       y       z     vdW  Elec       q    Type
REMARK                         _______ _______ _______ _____ _____    ______ ____
ROOT
ATOM      1  C   UNL     1       9.223   0.361   2.931  0.00  0.00    +0.000 C 
ATOM      2  N   UNL     1       9.686  -0.847   3.670  0.00  0.00    +0.000 NA
ATOM      3  C   UNL     1      10.903  -1.262   3.497  0.00  0.00    +0.000 C 
ATOM      4  C   UNL     1      11.842  -0.687   2.599  0.00  0.00    +0.000 A 
ATOM      5  C   UNL     1      12.643  -1.545   1.662  0.00  0.00    +0.000 A 
ATOM      6  C   UNL     1      13.270  -1.048   0.555  0.00  0.00    +0.000 A 
ATOM      7  C   UNL     1      12.832   0.226   0.330  0.00  0.00    +0.000 A 
ATOM      8  C   UNL     1      12.064   1.027   1.438  0.00  0.00    +0.000 A 
ATOM      9  C   UNL     1      11.845   0.665   2.707  0.00  0.00    +0.000 A 
ATOM     10  N   UNL     1      11.240   1.631   3.668  0.00  0.00    +0.000 N 
ATOM     11  C   UNL     1       9.823   1.644   3.617  0.00  0.00    +0.000 C 
ATOM     12  O   UNL     1       9.146   2.594   4.009  0.00  0.00    +0.000 OA
ENDROOT
BRANCH   3  13
ATOM     13  C   UNL     1      11.523  -2.345   4.219  0.00  0.00    +0.000 A 
ATOM     14  C   UNL     1      11.040  -3.609   3.963  0.00  0.00    +0.000 A 
ATOM     15  C   UNL     1      11.570  -4.640   4.704  0.00  0.00    +0.000 A 
ATOM     16  C   UNL     1      12.682  -4.418   5.526  0.00  0.00    +0.000 A 
ATOM     17  C   UNL     1      13.311  -3.173   5.571  0.00  0.00    +0.000 A 
ATOM     18  C   UNL     1      12.702  -2.104   4.947  0.00  0.00    +0.000 A 
ENDBRANCH   3  13
BRANCH   1  21
ATOM     19  C   UNL     1       6.990   0.318   1.946  0.00  0.00    +0.000 C 
ATOM     20  O   UNL     1       7.425   0.158   0.808  0.00  0.00    +0.000 OA
ATOM     21  N   UNL     1       7.796   0.423   3.045  0.00  0.00    +0.000 N 
ATOM     22  H   UNL     1       7.446   0.702   3.948  0.00  0.00    +0.000 HD
BRANCH  19  23
ATOM     23  C   UNL     1       5.508   0.396   2.258  0.00  0.00    +0.000 C 
BRANCH  23  24
ATOM     24  C   UNL     1       4.702   0.159   0.984  0.00  0.00    +0.000 C 
BRANCH  24  25
ATOM     25  C   UNL     1       3.196   0.201   1.209  0.00  0.00    +0.000 C 
BRANCH  25  27
ATOM     26  C   UNL     1       0.951  -0.035  -0.043  0.00  0.00    +0.000 C 
ATOM     27  C   UNL     1       2.454  -0.045  -0.096  0.00  0.00    +0.000 C 
ATOM     28  O   UNL     1       3.034  -0.245  -1.163  0.00  0.00    +0.000 OA
ENDBRANCH  25  27
ENDBRANCH  24  25
ENDBRANCH  23  24
ENDBRANCH  19  23
ENDBRANCH   1  21
BRANCH  10  29
ATOM     29  C   UNL     1      11.888   2.983   4.122  0.00  0.00    +0.000 C 
BRANCH  29  30
ATOM     30  C   UNL     1      13.465   3.132   4.413  0.00  0.00    +0.000 C 
ATOM     31  O   UNL     1      14.130   2.206   4.718  0.00  0.00    +0.000 OA
ATOM     32  N   UNL     1      14.055   4.421   4.248  0.00  0.00    +0.000 N 
ATOM     33  H   UNL     1      13.498   5.237   4.423  0.00  0.00    +0.000 HD
BRANCH  32  34
ATOM     34  C   UNL     1      15.538   4.591   3.903  0.00  0.00    +0.000 C 
BRANCH  34  35
ATOM     35  C   UNL     1      16.183   5.818   4.535  0.00  0.00    +0.000 C 
ATOM     36  N   UNL     1      15.354   6.676   5.186  0.00  0.00    +0.000 N 
ATOM     37  O   UNL     1      17.373   6.088   4.405  0.00  0.00    +0.000 OA
ATOM     38  H   UNL     1      14.393   6.481   5.400  0.00  0.00    +0.000 HD
ATOM     39  H   UNL     1      15.787   7.479   5.617  0.00  0.00    +0.000 HD
ENDBRANCH  34  35
BRANCH  34  40
ATOM     40  C   UNL     1      15.947   4.760   2.378  0.00  0.00    +0.000 C 
BRANCH  40  41
ATOM     41  C   UNL     1      15.649   3.598   1.503  0.00  0.00    +0.000 C 
ATOM     42  C   UNL     1      16.439   2.334   2.034  0.00  0.00    +0.000 C 
ATOM     43  C   UNL     1      15.941   1.019   1.561  0.00  0.00    +0.000 C 
ATOM     44  C   UNL     1      14.522   1.257   1.845  0.00  0.00    +0.000 C 
ATOM     45  C   UNL     1      13.854   2.490   0.733  0.00  0.00    +0.000 C 
ATOM     46  C   UNL     1      14.157   3.705   1.425  0.00  0.00    +0.000 C 
ENDBRANCH  40  41
ENDBRANCH  34  40
ENDBRANCH  32  34
ENDBRANCH  29  30
ENDBRANCH  10  29
TORSDOF 12
