REMARK  Name = CHEMBL2172288
REMARK  29 active torsions:
REMARK  status: ('A' for Active; 'I' for Inactive)
REMARK    1  A    between atoms: C_2  and  C_3
REMARK    2  A    between atoms: C_3  and  C_4
REMARK    3  A    between atoms: C_4  and  C_5
REMARK    4  A    between atoms: N_7  and  C_8
REMARK    5  A    between atoms: C_13  and  C_15
REMARK    6  A    between atoms: C_18  and  N_19
REMARK    7  A    between atoms: C_20  and  C_22
REMARK    8  A    between atoms: C_27  and  C_28
REMARK    9  A    between atoms: N_42  and  C_43
REMARK   10  A    between atoms: C_43  and  C_44
REMARK   11  A    between atoms: N_46  and  C_47
REMARK   12  A    between atoms: C_47  and  C_48
REMARK   13  A    between atoms: C_48  and  O_49
REMARK   14  A    between atoms: O_49  and  C_50
REMARK   15  A    between atoms: C_50  and  C_51
REMARK   16  A    between atoms: C_51  and  O_52
REMARK   17  A    between atoms: O_52  and  C_53
REMARK   18  A    between atoms: C_53  and  C_54
REMARK   19  A    between atoms: C_54  and  O_55
REMARK   20  A    between atoms: O_55  and  C_56
REMARK   21  A    between atoms: C_56  and  C_57
REMARK   22  A    between atoms: C_57  and  N_58
REMARK   23  A    between atoms: N_58  and  C_59
REMARK   24  A    between atoms: C_59  and  N_61
REMARK   25  A    between atoms: N_61  and  C_62
REMARK   26  A    between atoms: C_65  and  C_66
REMARK   27  A    between atoms: C_77  and  O_78
REMARK   28  A    between atoms: C_82  and  C_83
REMARK   29  A    between atoms: C_83  and  O_85
REMARK                            x       y       z     vdW  Elec       q    Type
REMARK                         _______ _______ _______ _____ _____    ______ ____
ROOT
ATOM      1  C   UNL     1       4.890  -2.705   0.564  0.00  0.00    +0.000 A 
ATOM      2  C   UNL     1       5.996  -3.002   1.316  0.00  0.00    +0.000 A 
ATOM      3  N   UNL     1       6.002  -4.365   1.373  0.00  0.00    +0.000 N 
ATOM      4  N   UNL     1       4.971  -4.882   0.686  0.00  0.00    +0.000 NA
ATOM      5  N   UNL     1       4.283  -3.869   0.180  0.00  0.00    +0.000 NA
ENDROOT
BRANCH   3   6
ATOM      6  C   UNL     1       6.945  -5.222   2.056  0.00  0.00    +0.000 C 
BRANCH   6   7
ATOM      7  C   UNL     1       8.009  -4.395   2.751  0.00  0.00    +0.000 C 
BRANCH   7   8
ATOM      8  O   UNL     1       8.944  -5.217   3.426  0.00  0.00    +0.000 OA
BRANCH   8   9
ATOM      9  C   UNL     1       9.921  -4.392   4.061  0.00  0.00    +0.000 C 
BRANCH   9  10
ATOM     10  C   UNL     1      10.916  -5.273   4.778  0.00  0.00    +0.000 C 
BRANCH  10  11
ATOM     11  O   UNL     1      11.893  -4.456   5.414  0.00  0.00    +0.000 OA
BRANCH  11  12
ATOM     12  C   UNL     1      12.835  -5.282   6.092  0.00  0.00    +0.000 C 
BRANCH  12  13
ATOM     13  C   UNL     1      13.866  -4.404   6.763  0.00  0.00    +0.000 C 
BRANCH  13  14
ATOM     14  O   UNL     1      14.811  -5.218   7.443  0.00  0.00    +0.000 OA
BRANCH  14  15
ATOM     15  C   UNL     1      15.776  -4.389   8.072  0.00  0.00    +0.000 C 
BRANCH  15  16
ATOM     16  C   UNL     1      16.767  -5.248   8.791  0.00  0.00    +0.000 C 
BRANCH  16  17
ATOM     17  N   UNL     1      17.770  -4.459   9.477  0.00  0.00    +0.000 N 
ATOM     18  H   UNL     1      17.787  -3.454   9.387  0.00  0.00    +0.000 HD
BRANCH  17  19
ATOM     19  C   UNL     1      18.783  -5.075  10.148  0.00  0.00    +0.000 C 
ATOM     20  S   UNL     1      18.765  -6.777  10.332  0.00  0.00    +0.000 S 
BRANCH  19  21
ATOM     21  N   UNL     1      19.747  -4.148  10.570  0.00  0.00    +0.000 N 
ATOM     22  H   UNL     1      19.556  -3.171  10.757  0.00  0.00    +0.000 HD
BRANCH  21  23
ATOM     23  C   UNL     1      21.018  -4.575  10.900  0.00  0.00    +0.000 A 
ATOM     24  C   UNL     1      21.523  -5.614  10.325  0.00  0.00    +0.000 A 
ATOM     25  C   UNL     1      22.136  -6.278  11.278  0.00  0.00    +0.000 A 
ATOM     26  C   UNL     1      22.146  -6.330  13.132  0.00  0.00    +0.000 A 
ATOM     27  C   UNL     1      22.217  -5.227  13.737  0.00  0.00    +0.000 A 
ATOM     28  C   UNL     1      21.531  -4.346  12.193  0.00  0.00    +0.000 A 
BRANCH  26  29
ATOM     29  C   UNL     1      23.043  -7.436  14.235  0.00  0.00    +0.000 A 
ATOM     30  C   UNL     1      24.192  -8.270  13.946  0.00  0.00    +0.000 A 
ATOM     31  C   UNL     1      25.347  -8.699  14.771  0.00  0.00    +0.000 A 
ATOM     32  C   UNL     1      26.344  -9.444  14.207  0.00  0.00    +0.000 A 
ATOM     33  C   UNL     1      26.352  -9.903  12.773  0.00  0.00    +0.000 A 
ATOM     34  O   UNL     1      27.239 -10.578  12.268  0.00  0.00    +0.000 OA
ATOM     35  C   UNL     1      25.234  -9.482  11.961  0.00  0.00    +0.000 A 
ATOM     36  C   UNL     1      24.432  -8.598  12.522  0.00  0.00    +0.000 A 
ATOM     37  O   UNL     1      24.127  -7.574  11.714  0.00  0.00    +0.000 OA
ATOM     38  C   UNL     1      23.732  -6.558  12.589  0.00  0.00    +0.000 A 
ATOM     39  C   UNL     1      23.953  -4.748  12.829  0.00  0.00    +0.000 A 
ATOM     40  C   UNL     1      22.698  -3.481  13.597  0.00  0.00    +0.000 A 
ATOM     41  C   UNL     1      20.833  -4.034  14.015  0.00  0.00    +0.000 A 
ATOM     42  C   UNL     1      20.366  -5.874  13.658  0.00  0.00    +0.000 A 
ATOM     43  C   UNL     1      21.906  -7.122  13.123  0.00  0.00    +0.000 A 
BRANCH  40  44
ATOM     44  O   UNL     1      23.399  -2.643  14.421  0.00  0.00    +0.000 OA
ATOM     45  H   UNL     1      24.202  -3.196  14.590  0.00  0.00    +0.000 HD
ENDBRANCH  40  44
ENDBRANCH  26  29
BRANCH  27  46
ATOM     46  C   UNL     1      22.351  -4.819  15.533  0.00  0.00    +0.000 C 
ATOM     47  O   UNL     1      23.163  -5.366  16.266  0.00  0.00    +0.000 OA
BRANCH  46  48
ATOM     48  O   UNL     1      21.690  -3.699  16.111  0.00  0.00    +0.000 OA
ATOM     49  H   UNL     1      21.349  -2.965  15.542  0.00  0.00    +0.000 HD
ENDBRANCH  46  48
ENDBRANCH  27  46
ENDBRANCH  21  23
ENDBRANCH  19  21
ENDBRANCH  17  19
ENDBRANCH  16  17
ENDBRANCH  15  16
ENDBRANCH  14  15
ENDBRANCH  13  14
ENDBRANCH  12  13
ENDBRANCH  11  12
ENDBRANCH  10  11
ENDBRANCH   9  10
ENDBRANCH   8   9
ENDBRANCH   7   8
ENDBRANCH   6   7
ENDBRANCH   3   6
BRANCH   1  50
ATOM     50  C   UNL     1       4.348  -1.388   0.197  0.00  0.00    +0.000 C 
BRANCH  50  53
ATOM     51  O   UNL     1       0.700  -0.645  -0.250  0.00  0.00    +0.000 OA
ATOM     52  C   UNL     1       1.912  -0.603  -0.292  0.00  0.00    +0.000 C 
ATOM     53  N   UNL     1       2.865  -1.513   0.090  0.00  0.00    +0.000 N 
ATOM     54  H   UNL     1       2.441  -2.336   0.476  0.00  0.00    +0.000 HD
BRANCH  52  55
ATOM     55  C   UNL     1       2.469   0.658  -0.548  0.00  0.00    +0.000 C 
BRANCH  55  56
ATOM     56  C   UNL     1       1.190   2.217  -0.847  0.00  0.00    +0.000 C 
BRANCH  56  57
ATOM     57  C   UNL     1       1.812   3.941  -1.236  0.00  0.00    +0.000 C 
ATOM     58  O   UNL     1       2.876   4.151  -1.738  0.00  0.00    +0.000 OA
ATOM     59  N   UNL     1       1.564   5.230  -1.103  0.00  0.00    +0.000 N 
ATOM     60  H   UNL     1       0.622   5.297  -1.390  0.00  0.00    +0.000 HD
BRANCH  59  61
ATOM     61  C   UNL     1       2.863   6.130  -1.476  0.00  0.00    +0.000 C 
ATOM     62  C   UNL     1       3.448   5.862  -3.091  0.00  0.00    +0.000 C 
ATOM     63  C   UNL     1       3.302   4.364  -3.704  0.00  0.00    +0.000 C 
ATOM     64  C   UNL     1       4.377   3.238  -2.968  0.00  0.00    +0.000 C 
ATOM     65  N   UNL     1       4.490   2.979  -1.374  0.00  0.00    +0.000 N 
ATOM     66  C   UNL     1       3.343   2.341  -1.047  0.00  0.00    +0.000 C 
ATOM     67  O   UNL     1       2.776   1.845  -2.134  0.00  0.00    +0.000 OA
ATOM     68  C   UNL     1       4.612   4.068  -0.336  0.00  0.00    +0.000 A 
ATOM     69  C   UNL     1       5.374   3.534   0.681  0.00  0.00    +0.000 A 
ATOM     70  C   UNL     1       6.001   4.479   1.429  0.00  0.00    +0.000 A 
ATOM     71  C   UNL     1       5.701   5.880   1.316  0.00  0.00    +0.000 A 
ATOM     72  C   UNL     1       4.711   6.444   0.480  0.00  0.00    +0.000 A 
ATOM     73  C   UNL     1       4.084   5.550  -0.368  0.00  0.00    +0.000 A 
BRANCH  66  74
ATOM     74  C   UNL     1       2.682   2.530   0.809  0.00  0.00    +0.000 A 
ATOM     75  C   UNL     1       1.895   3.565   1.391  0.00  0.00    +0.000 A 
ATOM     76  C   UNL     1       1.400   3.515   2.728  0.00  0.00    +0.000 A 
ATOM     77  C   UNL     1       1.344   2.324   3.443  0.00  0.00    +0.000 A 
ATOM     78  C   UNL     1       1.543   1.187   2.772  0.00  0.00    +0.000 A 
ATOM     79  C   UNL     1       2.336   1.350   1.676  0.00  0.00    +0.000 A 
BRANCH  77  80
ATOM     80  N   UNL     1       1.195   2.264   4.823  0.00  0.00    +0.000 N 
ATOM     81  C   UNL     1       1.331   1.067   5.530  0.00  0.00    +0.000 C 
ATOM     82  O   UNL     1       1.501  -0.060   5.075  0.00  0.00    +0.000 OA
ATOM     83  H   UNL     1       1.160   3.155   5.292  0.00  0.00    +0.000 HD
BRANCH  81  84
ATOM     84  C   UNL     1       1.288   1.156   6.988  0.00  0.00    +0.000 A 
ATOM     85  C   UNL     1       0.285   1.919   7.586  0.00  0.00    +0.000 A 
ATOM     86  C   UNL     1       0.325   2.126   8.957  0.00  0.00    +0.000 A 
ATOM     87  C   UNL     1       1.212   1.396   9.739  0.00  0.00    +0.000 A 
ATOM     88  C   UNL     1       2.054   0.455   9.148  0.00  0.00    +0.000 A 
ATOM     89  C   UNL     1       2.201   0.405   7.758  0.00  0.00    +0.000 A 
BRANCH  89  90
ATOM     90  C   UNL     1       3.269  -0.411   7.148  0.00  0.00    +0.000 A 
ATOM     91  C   UNL     1       4.237   0.159   6.297  0.00  0.00    +0.000 A 
ATOM     92  C   UNL     1       5.030  -0.648   5.479  0.00  0.00    +0.000 A 
ATOM     93  C   UNL     1       5.025  -2.022   5.665  0.00  0.00    +0.000 A 
ATOM     94  C   UNL     1       4.232  -2.579   6.665  0.00  0.00    +0.000 A 
ATOM     95  C   UNL     1       3.287  -1.796   7.325  0.00  0.00    +0.000 A 
ENDBRANCH  89  90
ENDBRANCH  81  84
ENDBRANCH  77  80
ENDBRANCH  66  74
ENDBRANCH  59  61
ENDBRANCH  56  57
ENDBRANCH  55  56
ENDBRANCH  52  55
ENDBRANCH  50  53
ENDBRANCH   1  50
TORSDOF 29
