REMARK  Name = CHEMBL114302
REMARK  9 active torsions:
REMARK  status: ('A' for Active; 'I' for Inactive)
REMARK    1  A    between atoms: C_1  and  O_2
REMARK    2  A    between atoms: O_2  and  C_3
REMARK    3  A    between atoms: C_6  and  N_7
REMARK    4  A    between atoms: N_7  and  C_8
REMARK    5  A    between atoms: N_7  and  S_20
REMARK    6  A    between atoms: C_8  and  C_9
REMARK    7  A    between atoms: N_11  and  C_12
REMARK    8  A    between atoms: C_18  and  C_19
REMARK    9  A    between atoms: S_20  and  C_23
REMARK                            x       y       z     vdW  Elec       q    Type
REMARK                         _______ _______ _______ _____ _____    ______ ____
ROOT
ATOM      1  N   UNL     1       5.840  -3.188   3.203  0.00  0.00    +0.000 N 
ENDROOT
BRANCH   1   5
ATOM      2  C   UNL     1       3.001  -0.746   0.953  0.00  0.00    +0.000 A 
ATOM      3  C   UNL     1       4.245  -0.325   1.283  0.00  0.00    +0.000 A 
ATOM      4  C   UNL     1       5.128  -1.325   1.651  0.00  0.00    +0.000 A 
ATOM      5  C   UNL     1       4.805  -2.440   2.401  0.00  0.00    +0.000 A 
ATOM      6  C   UNL     1       3.517  -2.860   2.089  0.00  0.00    +0.000 A 
ATOM      7  C   UNL     1       2.644  -2.046   1.307  0.00  0.00    +0.000 A 
BRANCH   2   9
ATOM      8  C   UNL     1       0.987   0.033   0.063  0.00  0.00    +0.000 C 
ATOM      9  O   UNL     1       2.390   0.103   0.088  0.00  0.00    +0.000 OA
ENDBRANCH   2   9
ENDBRANCH   1   5
BRANCH   1  10
ATOM     10  S   UNL     1       5.279  -4.684   3.889  0.00  0.00    +0.000 S 
ATOM     11  O   UNL     1       4.097  -4.437   4.692  0.00  0.00    +0.000 OA
ATOM     12  O   UNL     1       5.210  -5.604   2.767  0.00  0.00    +0.000 OA
BRANCH  10  13
ATOM     13  C   UNL     1       6.457  -5.404   5.038  0.00  0.00    +0.000 A 
ATOM     14  C   UNL     1       6.488  -6.797   5.179  0.00  0.00    +0.000 A 
ATOM     15  C   UNL     1       7.249  -7.374   6.209  0.00  0.00    +0.000 A 
ATOM     16  C   UNL     1       8.067  -6.586   7.020  0.00  0.00    +0.000 A 
ATOM     17  C   UNL     1       8.061  -5.215   6.865  0.00  0.00    +0.000 A 
ATOM     18  C   UNL     1       7.208  -4.642   5.932  0.00  0.00    +0.000 A 
ENDBRANCH  10  13
ENDBRANCH   1  10
BRANCH   1  19
ATOM     19  C   UNL     1       7.051  -2.499   3.877  0.00  0.00    +0.000 C 
BRANCH  19  20
ATOM     20  C   UNL     1       7.514  -1.114   3.544  0.00  0.00    +0.000 C 
ATOM     21  O   UNL     1       6.746  -0.444   2.878  0.00  0.00    +0.000 OA
ATOM     22  N   UNL     1       8.594  -0.382   3.914  0.00  0.00    +0.000 N 
ATOM     23  H   UNL     1       9.451  -0.805   4.249  0.00  0.00    +0.000 HD
BRANCH  22  24
ATOM     24  C   UNL     1       8.628   1.009   3.422  0.00  0.00    +0.000 A 
ATOM     25  C   UNL     1       9.829   1.452   2.851  0.00  0.00    +0.000 A 
ATOM     26  C   UNL     1       9.945   2.765   2.373  0.00  0.00    +0.000 A 
ATOM     27  C   UNL     1       8.849   3.624   2.367  0.00  0.00    +0.000 A 
ATOM     28  C   UNL     1       7.624   3.202   2.864  0.00  0.00    +0.000 A 
ATOM     29 CL   UNL     1       6.337   4.366   2.825  0.00  0.00    +0.000 Cl
ATOM     30  C   UNL     1       7.480   1.916   3.421  0.00  0.00    +0.000 A 
ATOM     31  C   UNL     1       6.088   1.568   3.947  0.00  0.00    +0.000 C 
ENDBRANCH  22  24
ENDBRANCH  19  20
ENDBRANCH   1  19
TORSDOF 7
