REMARK  Name = CHEMBL306010
REMARK  11 active torsions:
REMARK  status: ('A' for Active; 'I' for Inactive)
REMARK    1  A    between atoms: C_1  and  O_2
REMARK    2  A    between atoms: O_2  and  C_3
REMARK    3  A    between atoms: C_5  and  O_6
REMARK    4  A    between atoms: O_6  and  C_7
REMARK    5  A    between atoms: N_10  and  C_11
REMARK    6  A    between atoms: C_11  and  C_12
REMARK    7  A    between atoms: C_13  and  C_14
REMARK    8  A    between atoms: C_16  and  C_17
REMARK    9  A    between atoms: C_20  and  C_21
REMARK   10  A    between atoms: C_26  and  C_27
REMARK   11  A    between atoms: C_32  and  N_33
REMARK                            x       y       z     vdW  Elec       q    Type
REMARK                         _______ _______ _______ _____ _____    ______ ____
ROOT
ATOM      1  C   UNL     1       3.152  -0.972   0.349  0.00  0.00    +0.000 A 
ATOM      2  C   UNL     1       4.319  -1.033   1.143  0.00  0.00    +0.000 A 
ATOM      3  C   UNL     1       5.010  -2.209   1.307  0.00  0.00    +0.000 A 
ATOM      4  C   UNL     1       4.431  -3.331   0.775  0.00  0.00    +0.000 A 
ATOM      5  C   UNL     1       3.367  -3.293  -0.142  0.00  0.00    +0.000 A 
ATOM      6  C   UNL     1       2.648  -2.095  -0.365  0.00  0.00    +0.000 A 
ENDROOT
BRANCH   6   7
ATOM      7  C   UNL     1       1.344  -2.206  -1.219  0.00  0.00    +0.000 C 
ATOM      8  O   UNL     1       0.987  -3.351  -1.526  0.00  0.00    +0.000 OA
ATOM      9  N   UNL     1       0.572  -1.028  -1.645  0.00  0.00    +0.000 N 
ATOM     10  C   UNL     1      -0.771  -0.662  -1.002  0.00  0.00    +0.000 C 
ATOM     11  C   UNL     1      -1.606   0.330  -1.856  0.00  0.00    +0.000 C 
ATOM     12  C   UNL     1      -0.887   2.006  -2.320  0.00  0.00    +0.000 C 
ATOM     13  C   UNL     1       0.485   1.116  -3.031  0.00  0.00    +0.000 C 
ATOM     14  C   UNL     1       1.314   0.131  -2.173  0.00  0.00    +0.000 C 
BRANCH  12  15
ATOM     15  N   UNL     1      -1.165   3.495  -1.226  0.00  0.00    +0.000 N 
ATOM     16  C   UNL     1      -2.408   2.919  -1.024  0.00  0.00    +0.000 C 
ATOM     17  O   UNL     1      -3.217   2.414  -1.886  0.00  0.00    +0.000 OA
ATOM     18  O   UNL     1      -2.716   2.885   0.222  0.00  0.00    +0.000 OA
ATOM     19  C   UNL     1      -3.533   3.988   0.206  0.00  0.00    +0.000 C 
ATOM     20  C   UNL     1      -2.416   4.901   0.531  0.00  0.00    +0.000 A 
ATOM     21  C   UNL     1      -2.661   5.360   2.035  0.00  0.00    +0.000 A 
ATOM     22  C   UNL     1      -2.602   6.601   2.573  0.00  0.00    +0.000 A 
ATOM     23  C   UNL     1      -2.226   7.388   1.541  0.00  0.00    +0.000 A 
ATOM     24  C   UNL     1      -1.780   6.707   0.028  0.00  0.00    +0.000 A 
ATOM     25  C   UNL     1      -1.786   5.239  -0.730  0.00  0.00    +0.000 A 
ENDBRANCH  12  15
ENDBRANCH   6   7
BRANCH   1  27
ATOM     26  C   UNL     1       1.331   0.402   0.745  0.00  0.00    +0.000 C 
ATOM     27  O   UNL     1       2.690   0.322   0.423  0.00  0.00    +0.000 OA
ENDBRANCH   1  27
BRANCH   3  28
ATOM     28  O   UNL     1       6.133  -2.290   2.071  0.00  0.00    +0.000 OA
BRANCH  28  29
ATOM     29  C   UNL     1       7.283  -3.041   1.588  0.00  0.00    +0.000 C 
ATOM     30  C   UNL     1       7.357  -3.357   0.061  0.00  0.00    +0.000 C 
ATOM     31  C   UNL     1       6.809  -4.743  -0.409  0.00  0.00    +0.000 C 
ATOM     32  N   UNL     1       7.428  -5.820   0.349  0.00  0.00    +0.000 NA
ATOM     33  C   UNL     1       7.296  -5.499   1.752  0.00  0.00    +0.000 C 
ATOM     34  C   UNL     1       7.809  -4.241   2.345  0.00  0.00    +0.000 C 
BRANCH  32  35
ATOM     35  C   UNL     1       6.728  -7.108   0.095  0.00  0.00    +0.000 C 
BRANCH  35  36
ATOM     36  C   UNL     1       7.374  -8.333   0.749  0.00  0.00    +0.000 A 
ATOM     37  C   UNL     1       7.392  -8.572   2.155  0.00  0.00    +0.000 A 
ATOM     38  C   UNL     1       6.757  -7.729   3.231  0.00  0.00    +0.000 C 
ATOM     39  C   UNL     1       8.088  -9.658   2.653  0.00  0.00    +0.000 A 
ATOM     40  C   UNL     1       8.639 -10.596   1.793  0.00  0.00    +0.000 A 
ATOM     41  C   UNL     1       9.279 -11.818   2.347  0.00  0.00    +0.000 C 
ATOM     42  N   UNL     1       8.563 -10.447   0.409  0.00  0.00    +0.000 N 
ATOM     43  O   UNL     1       9.039 -11.350  -0.355  0.00  0.00    +0.000 OA
ATOM     44  C   UNL     1       7.951  -9.306  -0.114  0.00  0.00    +0.000 A 
ATOM     45  C   UNL     1       7.892  -9.173  -1.609  0.00  0.00    +0.000 C 
ENDBRANCH  35  36
ENDBRANCH  32  35
ENDBRANCH  28  29
ENDBRANCH   3  28
TORSDOF 7
