REMARK  Name = CHEMBL338308
REMARK  13 active torsions:
REMARK  status: ('A' for Active; 'I' for Inactive)
REMARK    1  A    between atoms: C_1  and  C_2
REMARK    2  A    between atoms: C_2  and  C_3
REMARK    3  A    between atoms: C_3  and  C_4
REMARK    4  A    between atoms: C_3  and  C_5
REMARK    5  A    between atoms: C_9  and  C_10
REMARK    6  A    between atoms: C_10  and  C_11
REMARK    7  A    between atoms: C_27  and  C_28
REMARK    8  A    between atoms: C_28  and  C_29
REMARK    9  A    between atoms: N_35  and  C_36
REMARK   10  A    between atoms: C_39  and  C_40
REMARK   11  A    between atoms: C_40  and  C_41
REMARK   12  A    between atoms: C_41  and  C_42
REMARK   13  A    between atoms: C_42  and  N_43
REMARK                            x       y       z     vdW  Elec       q    Type
REMARK                         _______ _______ _______ _____ _____    ______ ____
ROOT
ATOM      1  C   UNL     1       4.511  -0.197   1.842  0.00  0.00    +0.000 C 
ATOM      2  N   UNL     1       5.323  -0.158   0.602  0.00  0.00    +0.000 N 
ATOM      3  C   UNL     1       5.500   0.897  -0.290  0.00  0.00    +0.000 C 
ATOM      4  O   UNL     1       4.977   2.003  -0.156  0.00  0.00    +0.000 OA
ATOM      5  C   UNL     1       6.607   0.694  -1.388  0.00  0.00    +0.000 C 
ATOM      6  N   UNL     1       7.102   2.089  -1.825  0.00  0.00    +0.000 N 
ATOM      7  C   UNL     1       8.438   2.485  -1.729  0.00  0.00    +0.000 C 
ATOM      8  O   UNL     1       9.056   1.872  -2.717  0.00  0.00    +0.000 OA
ATOM      9  C   UNL     1       9.194   3.030  -0.003  0.00  0.00    +0.000 C 
ATOM     10  C   UNL     1       9.168   1.839   1.219  0.00  0.00    +0.000 C 
ATOM     11  C   UNL     1       8.633   1.349   0.054  0.00  0.00    +0.000 C 
ATOM     12  C   UNL     1      10.337   1.848  -0.697  0.00  0.00    +0.000 C 
ATOM     13  N   UNL     1      10.595   2.983   0.060  0.00  0.00    +0.000 N 
ATOM     14  C   UNL     1      11.436   2.776   1.242  0.00  0.00    +0.000 C 
ATOM     15  O   UNL     1      12.232   3.690   1.498  0.00  0.00    +0.000 OA
ATOM     16  C   UNL     1      11.486   1.348   2.211  0.00  0.00    +0.000 C 
ATOM     17  N   UNL     1      11.703   1.484   3.673  0.00  0.00    +0.000 N 
ATOM     18  C   UNL     1      11.947   2.788   4.260  0.00  0.00    +0.000 C 
ATOM     19  C   UNL     1      11.162   0.433   4.441  0.00  0.00    +0.000 C 
ATOM     20  O   UNL     1      11.763  -0.634   4.592  0.00  0.00    +0.000 OA
ATOM     21  C   UNL     1       9.680   0.566   4.866  0.00  0.00    +0.000 C 
ATOM     22  N   UNL     1       9.041  -0.735   4.922  0.00  0.00    +0.000 N 
ATOM     23  C   UNL     1       7.679  -0.833   4.802  0.00  0.00    +0.000 C 
ATOM     24  O   UNL     1       6.945  -0.387   5.683  0.00  0.00    +0.000 OA
ATOM     25  C   UNL     1       7.086  -1.530   3.517  0.00  0.00    +0.000 C 
ATOM     26  C   UNL     1       7.095  -3.095   3.293  0.00  0.00    +0.000 C 
ATOM     27  C   UNL     1       8.019  -3.577   4.336  0.00  0.00    +0.000 C 
ATOM     28  C   UNL     1       6.721  -3.341   5.257  0.00  0.00    +0.000 C 
ATOM     29  N   UNL     1       5.638  -2.518   5.082  0.00  0.00    +0.000 NA
ATOM     30  N   UNL     1       5.722  -1.386   3.897  0.00  0.00    +0.000 N 
ATOM     31  C   UNL     1       4.971  -1.483   2.681  0.00  0.00    +0.000 C 
ATOM     32  O   UNL     1       4.918  -2.550   2.048  0.00  0.00    +0.000 OA
ATOM     33  H   UNL     1       5.509  -1.095   0.269  0.00  0.00    +0.000 HD
ATOM     34  H   UNL     1       6.525   2.833  -1.481  0.00  0.00    +0.000 HD
ATOM     35  H   UNL     1       9.650  -1.537   4.848  0.00  0.00    +0.000 HD
ENDROOT
BRANCH   1  36
ATOM     36  C   UNL     1       2.966  -0.349   1.534  0.00  0.00    +0.000 C 
ATOM     37  C   UNL     1       2.425  -0.016   0.135  0.00  0.00    +0.000 C 
BRANCH  36  39
ATOM     38  C   UNL     1       2.056  -2.931   1.339  0.00  0.00    +0.000 C 
ATOM     39  C   UNL     1       2.290  -1.636   2.117  0.00  0.00    +0.000 C 
ENDBRANCH  36  39
ENDBRANCH   1  36
BRANCH   5  40
ATOM     40  C   UNL     1       6.714  -0.388  -2.438  0.00  0.00    +0.000 C 
BRANCH  40  41
ATOM     41  C   UNL     1       6.151  -1.703  -1.980  0.00  0.00    +0.000 A 
ATOM     42  C   UNL     1       6.882  -2.873  -1.765  0.00  0.00    +0.000 A 
ATOM     43  C   UNL     1       6.207  -4.043  -1.403  0.00  0.00    +0.000 A 
ATOM     44  C   UNL     1       4.879  -3.989  -1.005  0.00  0.00    +0.000 A 
ATOM     45  C   UNL     1       4.185  -2.808  -1.169  0.00  0.00    +0.000 A 
ATOM     46  C   UNL     1       4.788  -1.711  -1.740  0.00  0.00    +0.000 A 
ENDBRANCH  40  41
ENDBRANCH   5  40
BRANCH  16  47
ATOM     47  C   UNL     1      12.151   0.041   1.645  0.00  0.00    +0.000 C 
BRANCH  47  48
ATOM     48  C   UNL     1      11.986  -0.413   0.206  0.00  0.00    +0.000 A 
ATOM     49  C   UNL     1      11.161  -1.465  -0.218  0.00  0.00    +0.000 A 
ATOM     50  C   UNL     1      10.979  -1.702  -1.593  0.00  0.00    +0.000 A 
ATOM     51  C   UNL     1      11.398  -0.768  -2.534  0.00  0.00    +0.000 A 
ATOM     52  C   UNL     1      12.241   0.249  -2.123  0.00  0.00    +0.000 A 
ATOM     53  C   UNL     1      12.677   0.306  -0.782  0.00  0.00    +0.000 A 
ENDBRANCH  47  48
ENDBRANCH  16  47
BRANCH  21  54
ATOM     54  C   UNL     1       9.659   1.255   6.205  0.00  0.00    +0.000 C 
BRANCH  54  55
ATOM     55  C   UNL     1       8.276   1.712   6.579  0.00  0.00    +0.000 C 
BRANCH  55  56
ATOM     56  C   UNL     1       8.231   2.423   7.890  0.00  0.00    +0.000 C 
BRANCH  56  57
ATOM     57  N   UNL     1       6.835   2.689   8.180  0.00  0.00    +0.000 NA
ATOM     58  H   UNL     1       6.404   3.237   7.440  0.00  0.00    +0.000 HD
ATOM     59  H   UNL     1       6.743   3.176   9.061  0.00  0.00    +0.000 HD
ENDBRANCH  56  57
ENDBRANCH  55  56
ENDBRANCH  54  55
ENDBRANCH  21  54
TORSDOF 10
