REMARK  Name = CHEMBL198328
REMARK  12 active torsions:
REMARK  status: ('A' for Active; 'I' for Inactive)
REMARK    1  A    between atoms: CD1_1  and  CG_2
REMARK    2  A    between atoms: CG_2  and  CD2_3
REMARK    3  A    between atoms: CG_2  and  CB_4
REMARK    4  A    between atoms: CB_4  and  CA_5
REMARK    5  A    between atoms: C_9  and  C_10
REMARK    6  A    between atoms: N_21  and  C_22
REMARK    7  A    between atoms: C_22  and  C_23
REMARK    8  A    between atoms: C_22  and  C_30
REMARK    9  A    between atoms: N_25  and  C_26
REMARK   10  A    between atoms: C_26  and  C_27
REMARK   11  A    between atoms: C_26  and  C_28
REMARK   12  A    between atoms: C_26  and  C_29
REMARK                            x       y       z     vdW  Elec       q    Type
REMARK                         _______ _______ _______ _____ _____    ______ ____
ROOT
ATOM      1  CA  LEU A   2       2.825   1.429   3.122  0.00  0.00    +0.000 C 
ATOM      2  C   LEU A   2       1.380   0.961   2.921  0.00  0.00    +0.000 C 
ATOM      3  O   LEU A   2       0.994  -0.093   2.461  0.00  0.00    +0.000 OA
ATOM      4  N   UNK A   1       0.457   1.830   3.374  0.00  0.00    +0.000 N 
ATOM      5  C   UNK A   1       0.768   3.146   3.869  0.00  0.00    +0.000 C 
ATOM      6  C   UNK A   1       1.938   3.742   3.043  0.00  0.00    +0.000 C 
ATOM      7  O   UNK A   1       1.988   4.952   2.831  0.00  0.00    +0.000 OA
ATOM      8  N   LEU A   2       2.936   2.835   2.634  0.00  0.00    +0.000 N 
ATOM      9  H   UNK A   1      -0.484   1.476   3.264  0.00  0.00    +0.000 HD
ENDROOT
BRANCH   5  10
ATOM     10  C   UNK A   1      -0.438   4.102   3.707  0.00  0.00    +0.000 C 
ATOM     11  C   UNK A   1      -1.706   3.610   4.434  0.00  0.00    +0.000 C 
ATOM     12  C   UNK A   1      -2.357   2.778   3.368  0.00  0.00    +0.000 A 
ATOM     13  C   UNK A   1      -3.237   1.724   3.533  0.00  0.00    +0.000 A 
ATOM     14  C   UNK A   1      -3.590   0.977   2.407  0.00  0.00    +0.000 A 
ATOM     15  C   UNK A   1      -3.054   1.279   1.144  0.00  0.00    +0.000 A 
ATOM     16  C   UNK A   1      -2.166   2.343   0.984  0.00  0.00    +0.000 A 
ATOM     17  C   UNK A   1      -1.842   3.095   2.101  0.00  0.00    +0.000 A 
ATOM     18  C   UNK A   1      -0.832   4.196   2.203  0.00  0.00    +0.000 C 
ENDBRANCH   5  10
BRANCH   1  19
ATOM     19  CB  LEU A   2       3.672   0.369   2.436  0.00  0.00    +0.000 C 
BRANCH  19  21
ATOM     20  CD1 LEU A   2       4.432  -2.079   2.240  0.00  0.00    +0.000 C 
ATOM     21  CG  LEU A   2       3.612  -1.055   3.012  0.00  0.00    +0.000 C 
ATOM     22  CD2 LEU A   2       4.141  -0.998   4.433  0.00  0.00    +0.000 C 
ENDBRANCH  19  21
ENDBRANCH   1  19
BRANCH   8  23
ATOM     23  C   UNK A   0       4.113   3.387   1.890  0.00  0.00    +0.000 C 
BRANCH  23  24
ATOM     24  C   UNK A   0       4.841   4.552   2.599  0.00  0.00    +0.000 A 
ATOM     25  C   UNK A   0       4.530   5.035   3.876  0.00  0.00    +0.000 A 
ATOM     26  C   UNK A   0       5.100   6.216   4.340  0.00  0.00    +0.000 A 
ATOM     27  C   UNK A   0       6.137   6.812   3.630  0.00  0.00    +0.000 A 
ATOM     28  C   UNK A   0       6.567   6.261   2.429  0.00  0.00    +0.000 A 
ATOM     29  C   UNK A   0       5.901   5.165   1.902  0.00  0.00    +0.000 A 
ENDBRANCH  23  24
BRANCH  23  30
ATOM     30  C   UNK A   0       5.271   2.427   1.460  0.00  0.00    +0.000 C 
ATOM     31  O   UNK A   0       6.202   2.222   2.248  0.00  0.00    +0.000 OA
ATOM     32  N   UNK A   0       5.203   1.774   0.233  0.00  0.00    +0.000 N 
ATOM     33  H   UNK A   0       4.322   1.772  -0.270  0.00  0.00    +0.000 HD
BRANCH  32  34
ATOM     34  C   UNK A   0       6.237   0.774  -0.146  0.00  0.00    +0.000 C 
ATOM     35  C   UNK A   0       7.617   1.400  -0.182  0.00  0.00    +0.000 C 
ATOM     36  C   UNK A   0       6.336  -0.345   0.858  0.00  0.00    +0.000 C 
ATOM     37  C   UNK A   0       5.871   0.057  -1.461  0.00  0.00    +0.000 C 
ENDBRANCH  32  34
ENDBRANCH  23  30
ENDBRANCH   8  23
TORSDOF 7
