REMARK  Name = CHEMBL512257
REMARK  8 active torsions:
REMARK  status: ('A' for Active; 'I' for Inactive)
REMARK    1  A    between atoms: C_1  and  O_2
REMARK    2  A    between atoms: O_2  and  C_3
REMARK    3  A    between atoms: C_3  and  C_4
REMARK    4  A    between atoms: C_7  and  C_8
REMARK    5  A    between atoms: C_11  and  C_12
REMARK    6  A    between atoms: N_20  and  C_21
REMARK    7  A    between atoms: C_24  and  O_25
REMARK    8  A    between atoms: O_25  and  C_26
REMARK                            x       y       z     vdW  Elec       q    Type
REMARK                         _______ _______ _______ _____ _____    ______ ____
ROOT
ATOM      1  C   UNL     1       4.455  -1.171   0.705  0.00  0.00    +0.000 A 
ATOM      2  N   UNL     1       5.310  -2.180   0.729  0.00  0.00    +0.000 NA
ATOM      3  N   UNL     1       6.594  -1.668   0.690  0.00  0.00    +0.000 NA
ATOM      4  C   UNL     1       6.518  -0.347   0.657  0.00  0.00    +0.000 A 
ATOM      5  N   UNL     1       5.179  -0.001   0.638  0.00  0.00    +0.000 N 
ENDROOT
BRANCH   4   6
ATOM      6  C   UNL     1       7.600   0.636   0.765  0.00  0.00    +0.000 A 
ATOM      7  C   UNL     1       7.650   1.560   1.812  0.00  0.00    +0.000 A 
ATOM      8  N   UNL     1       8.524   2.601   1.864  0.00  0.00    +0.000 NA
ATOM      9  C   UNL     1       9.364   2.711   0.807  0.00  0.00    +0.000 A 
ATOM     10  C   UNL     1       9.320   1.778  -0.232  0.00  0.00    +0.000 A 
ATOM     11  N   UNL     1       8.445   0.734  -0.286  0.00  0.00    +0.000 NA
BRANCH   9  12
ATOM     12  C   UNL     1      10.358   3.791   0.836  0.00  0.00    +0.000 A 
ATOM     13  C   UNL     1      10.487   4.697  -0.232  0.00  0.00    +0.000 A 
ATOM     14  C   UNL     1      11.546   5.608  -0.279  0.00  0.00    +0.000 A 
ATOM     15  C   UNL     1      12.458   5.673   0.772  0.00  0.00    +0.000 A 
ATOM     16  C   UNL     1      12.316   4.822   1.865  0.00  0.00    +0.000 A 
ATOM     17  C   UNL     1      11.274   3.890   1.897  0.00  0.00    +0.000 A 
ENDBRANCH   9  12
ENDBRANCH   4   6
BRANCH   5  18
ATOM     18  C   UNL     1       4.688   1.310   0.646  0.00  0.00    +0.000 A 
ATOM     19  C   UNL     1       3.891   1.746   1.694  0.00  0.00    +0.000 A 
ATOM     20  C   UNL     1       3.475   3.069   1.680  0.00  0.00    +0.000 A 
ATOM     21  C   UNL     1       3.868   3.893   0.627  0.00  0.00    +0.000 A 
ATOM     22  N   UNL     1       4.647   3.465  -0.390  0.00  0.00    +0.000 NA
ATOM     23  C   UNL     1       5.048   2.180  -0.368  0.00  0.00    +0.000 A 
BRANCH  21  24
ATOM     24  O   UNL     1       3.518   5.208   0.505  0.00  0.00    +0.000 OA
ATOM     25  C   UNL     1       2.719   5.738   1.550  0.00  0.00    +0.000 C 
ENDBRANCH  21  24
ENDBRANCH   5  18
BRANCH   1  26
ATOM     26  C   UNL     1       2.958  -1.267   0.707  0.00  0.00    +0.000 C 
BRANCH  26  28
ATOM     27  C   UNL     1       1.001  -0.134  -0.029  0.00  0.00    +0.000 C 
ATOM     28  O   UNL     1       2.420  -0.198  -0.076  0.00  0.00    +0.000 OA
ENDBRANCH  26  28
ENDBRANCH   1  26
TORSDOF 6
