REMARK  Name = CHEMBL66240
REMARK  10 active torsions:
REMARK  status: ('A' for Active; 'I' for Inactive)
REMARK    1  A    between atoms: C_1  and  C_2
REMARK    2  A    between atoms: C_2  and  C_3
REMARK    3  A    between atoms: C_4  and  C_5
REMARK    4  A    between atoms: C_5  and  N_6
REMARK    5  A    between atoms: C_9  and  O_10
REMARK    6  A    between atoms: O_10  and  C_11
REMARK    7  A    between atoms: C_14  and  C_15
REMARK    8  A    between atoms: C_20  and  N_21
REMARK    9  A    between atoms: C_34  and  O_35
REMARK   10  A    between atoms: O_35  and  C_36
REMARK                            x       y       z     vdW  Elec       q    Type
REMARK                         _______ _______ _______ _____ _____    ______ ____
ROOT
ATOM      1  C   UNL     1       3.158  -7.882  -0.049  0.00  0.00    +0.000 A 
ATOM      2  C   UNL     1       3.329  -9.010   0.736  0.00  0.00    +0.000 A 
ATOM      3  C   UNL     1       4.587  -9.671   0.759  0.00  0.00    +0.000 A 
ATOM      4  C   UNL     1       5.655  -9.282  -0.096  0.00  0.00    +0.000 A 
ATOM      5  C   UNL     1       5.441  -8.149  -0.870  0.00  0.00    +0.000 A 
ATOM      6  C   UNL     1       4.252  -7.450  -0.767  0.00  0.00    +0.000 A 
ENDROOT
BRANCH   4   7
ATOM      7  C   UNL     1       6.898 -10.151  -0.236  0.00  0.00    +0.000 C 
ATOM      8  O   UNL     1       6.912 -11.215   0.390  0.00  0.00    +0.000 OA
ATOM      9  N   UNL     1       7.940  -9.826  -1.147  0.00  0.00    +0.000 N 
ATOM     10  C   UNL     1       8.223 -10.706  -2.283  0.00  0.00    +0.000 C 
ATOM     11  C   UNL     1       9.717 -10.887  -2.499  0.00  0.00    +0.000 C 
ATOM     12  C   UNL     1      10.378  -9.389  -3.103  0.00  0.00    +0.000 C 
ATOM     13  C   UNL     1      10.101  -8.656  -1.544  0.00  0.00    +0.000 C 
ATOM     14  C   UNL     1       8.636  -8.536  -1.200  0.00  0.00    +0.000 C 
BRANCH  12  15
ATOM     15  N   UNL     1      10.192  -9.202  -4.942  0.00  0.00    +0.000 N 
ATOM     16  C   UNL     1      11.311 -10.099  -4.941  0.00  0.00    +0.000 C 
ATOM     17  O   UNL     1      11.408 -11.242  -4.390  0.00  0.00    +0.000 OA
ATOM     18  O   UNL     1      12.454  -9.612  -5.377  0.00  0.00    +0.000 OA
ATOM     19  C   UNL     1      12.312 -10.067  -6.667  0.00  0.00    +0.000 C 
ATOM     20  C   UNL     1      11.834  -8.753  -7.076  0.00  0.00    +0.000 A 
ATOM     21  C   UNL     1      12.711  -7.908  -7.844  0.00  0.00    +0.000 A 
ATOM     22  C   UNL     1      12.300  -6.959  -8.747  0.00  0.00    +0.000 A 
ATOM     23  C   UNL     1      10.988  -7.146  -9.060  0.00  0.00    +0.000 A 
ATOM     24  C   UNL     1      10.098  -7.903  -7.994  0.00  0.00    +0.000 A 
ATOM     25  C   UNL     1      10.594  -8.393  -6.568  0.00  0.00    +0.000 A 
ENDBRANCH  12  15
ENDBRANCH   4   7
BRANCH   5  26
ATOM     26  O   UNL     1       6.379  -7.732  -1.740  0.00  0.00    +0.000 OA
ATOM     27  C   UNL     1       6.281  -6.518  -2.458  0.00  0.00    +0.000 C 
ENDBRANCH   5  26
BRANCH   1  28
ATOM     28  O   UNL     1       2.029  -7.114   0.038  0.00  0.00    +0.000 OA
BRANCH  28  32
ATOM     29  N   UNL     1       1.395  -3.990  -1.513  0.00  0.00    +0.000 NA
ATOM     30  C   UNL     1       2.537  -4.787  -1.917  0.00  0.00    +0.000 C 
ATOM     31  C   UNL     1       2.058  -6.157  -2.332  0.00  0.00    +0.000 C 
ATOM     32  C   UNL     1       1.293  -6.850  -1.190  0.00  0.00    +0.000 C 
ATOM     33  C   UNL     1       0.078  -5.966  -0.837  0.00  0.00    +0.000 C 
ATOM     34  C   UNL     1       0.492  -4.552  -0.493  0.00  0.00    +0.000 C 
BRANCH  29  35
ATOM     35  C   UNL     1       1.827  -2.655  -1.147  0.00  0.00    +0.000 C 
BRANCH  35  37
ATOM     36  C   UNL     1       3.040  -1.293   0.626  0.00  0.00    +0.000 A 
ATOM     37  C   UNL     1       2.637  -2.543   0.137  0.00  0.00    +0.000 A 
ATOM     38  C   UNL     1       3.023  -3.672   0.885  0.00  0.00    +0.000 A 
ATOM     39  C   UNL     1       3.782  -3.634   2.023  0.00  0.00    +0.000 A 
ATOM     40  C   UNL     1       4.214  -2.403   2.434  0.00  0.00    +0.000 A 
ATOM     41  N   UNL     1       3.866  -1.229   1.763  0.00  0.00    +0.000 N 
ATOM     42  O   UNL     1       4.315  -0.126   2.208  0.00  0.00    +0.000 OA
BRANCH  36  44
ATOM     43  C   UNL     1       1.053   0.150   0.038  0.00  0.00    +0.000 C 
ATOM     44  C   UNL     1       2.575  -0.008  -0.015  0.00  0.00    +0.000 C 
ENDBRANCH  36  44
ENDBRANCH  35  37
ENDBRANCH  29  35
ENDBRANCH  28  32
ENDBRANCH   1  28
TORSDOF 8
