REMARK  Name = CHEMBL69265
REMARK  9 active torsions:
REMARK  status: ('A' for Active; 'I' for Inactive)
REMARK    1  A    between atoms: C_1  and  O_2
REMARK    2  A    between atoms: O_2  and  C_3
REMARK    3  A    between atoms: C_5  and  O_6
REMARK    4  A    between atoms: O_6  and  C_7
REMARK    5  A    between atoms: N_10  and  C_11
REMARK    6  A    between atoms: C_11  and  C_12
REMARK    7  A    between atoms: C_18  and  C_19
REMARK    8  A    between atoms: C_27  and  C_28
REMARK    9  A    between atoms: C_33  and  N_34
REMARK                            x       y       z     vdW  Elec       q    Type
REMARK                         _______ _______ _______ _____ _____    ______ ____
ROOT
ATOM      1  C   UNL     1       2.975  -0.711   0.591  0.00  0.00    +0.000 A 
ATOM      2  C   UNL     1       4.173  -0.552   1.410  0.00  0.00    +0.000 A 
ATOM      3  C   UNL     1       4.802  -1.623   1.947  0.00  0.00    +0.000 A 
ATOM      4  C   UNL     1       4.005  -2.705   1.806  0.00  0.00    +0.000 A 
ATOM      5  C   UNL     1       2.975  -2.925   0.856  0.00  0.00    +0.000 A 
ATOM      6  C   UNL     1       2.373  -1.929   0.210  0.00  0.00    +0.000 A 
ENDROOT
BRANCH   6   7
ATOM      7  C   UNL     1       1.186  -2.464  -0.652  0.00  0.00    +0.000 C 
ATOM      8  O   UNL     1       0.944  -3.678  -0.700  0.00  0.00    +0.000 OA
ATOM      9  N   UNL     1       0.351  -1.551  -1.328  0.00  0.00    +0.000 N 
ATOM     10  C   UNL     1      -0.973  -1.210  -0.708  0.00  0.00    +0.000 C 
ATOM     11  C   UNL     1      -1.911  -0.568  -1.724  0.00  0.00    +0.000 C 
ATOM     12  C   UNL     1      -1.282   0.990  -2.430  0.00  0.00    +0.000 C 
ATOM     13  C   UNL     1       0.101   0.161  -3.154  0.00  0.00    +0.000 C 
ATOM     14  C   UNL     1       1.012  -0.511  -2.129  0.00  0.00    +0.000 C 
BRANCH  12  15
ATOM     15  N   UNL     1      -1.980   2.723  -2.235  0.00  0.00    +0.000 N 
ATOM     16  C   UNL     1      -3.143   2.010  -1.862  0.00  0.00    +0.000 C 
ATOM     17  O   UNL     1      -3.789   1.157  -2.523  0.00  0.00    +0.000 OA
ATOM     18  O   UNL     1      -3.391   2.096  -0.565  0.00  0.00    +0.000 OA
ATOM     19  C   UNL     1      -4.338   3.081  -0.661  0.00  0.00    +0.000 C 
ATOM     20  C   UNL     1      -3.419   4.165  -0.305  0.00  0.00    +0.000 A 
ATOM     21  C   UNL     1      -4.125   5.040   0.735  0.00  0.00    +0.000 A 
ATOM     22  C   UNL     1      -4.116   6.398   0.824  0.00  0.00    +0.000 A 
ATOM     23  C   UNL     1      -3.369   6.875  -0.224  0.00  0.00    +0.000 A 
ATOM     24  C   UNL     1      -2.558   5.877  -1.302  0.00  0.00    +0.000 A 
ATOM     25  C   UNL     1      -2.388   4.280  -1.281  0.00  0.00    +0.000 A 
ENDBRANCH  12  15
ENDBRANCH   6   7
BRANCH   1  27
ATOM     26  C   UNL     1       1.138   0.541   0.657  0.00  0.00    +0.000 C 
ATOM     27  O   UNL     1       2.488   0.524   0.277  0.00  0.00    +0.000 OA
ENDBRANCH   1  27
BRANCH   3  28
ATOM     28  O   UNL     1       6.086  -1.712   2.444  0.00  0.00    +0.000 OA
BRANCH  28  29
ATOM     29  C   UNL     1       7.085  -2.753   1.976  0.00  0.00    +0.000 C 
ATOM     30  C   UNL     1       7.061  -2.980   0.455  0.00  0.00    +0.000 C 
ATOM     31  C   UNL     1       5.842  -3.808   0.073  0.00  0.00    +0.000 C 
ATOM     32  N   UNL     1       5.603  -5.023   0.991  0.00  0.00    +0.000 NA
ATOM     33  C   UNL     1       5.952  -4.937   2.446  0.00  0.00    +0.000 C 
ATOM     34  C   UNL     1       7.161  -4.119   2.691  0.00  0.00    +0.000 C 
BRANCH  32  35
ATOM     35  C   UNL     1       4.217  -5.496   0.905  0.00  0.00    +0.000 C 
BRANCH  35  36
ATOM     36  C   UNL     1       3.904  -6.837   1.411  0.00  0.00    +0.000 A 
ATOM     37  C   UNL     1       3.911  -7.017   2.815  0.00  0.00    +0.000 A 
ATOM     38  N   UNL     1       3.946  -8.258   3.350  0.00  0.00    +0.000 N 
ATOM     39  O   UNL     1       4.188  -8.422   4.578  0.00  0.00    +0.000 OA
ATOM     40  C   UNL     1       3.742  -9.306   2.483  0.00  0.00    +0.000 A 
ATOM     41  C   UNL     1       3.483  -9.107   1.112  0.00  0.00    +0.000 A 
ATOM     42  C   UNL     1       3.548  -7.843   0.538  0.00  0.00    +0.000 A 
BRANCH  42  43
ATOM     43  C   UNL     1       3.255  -7.642  -0.948  0.00  0.00    +0.000 C 
ATOM     44  F   UNL     1       4.164  -8.298  -1.715  0.00  0.00    +0.000 F 
ATOM     45  F   UNL     1       2.032  -8.143  -1.275  0.00  0.00    +0.000 F 
ATOM     46  F   UNL     1       3.228  -6.378  -1.454  0.00  0.00    +0.000 F 
ENDBRANCH  42  43
ENDBRANCH  35  36
ENDBRANCH  32  35
ENDBRANCH  28  29
ENDBRANCH   3  28
TORSDOF 8
