REMARK  Name = CHEMBL2113189
REMARK  13 active torsions:
REMARK  status: ('A' for Active; 'I' for Inactive)
REMARK    1  A    between atoms: C_1  and  N_2
REMARK    2  A    between atoms: N_2  and  C_3
REMARK    3  A    between atoms: N_2  and  C_4
REMARK    4  A    between atoms: C_4  and  C_5
REMARK    5  A    between atoms: C_5  and  C_6
REMARK    6  A    between atoms: C_6  and  O_7
REMARK    7  A    between atoms: O_7  and  C_8
REMARK    8  A    between atoms: C_11  and  S_12
REMARK    9  A    between atoms: S_12  and  N_15
REMARK   10  A    between atoms: N_15  and  C_16
REMARK   11  A    between atoms: N_15  and  C_33
REMARK   12  A    between atoms: C_16  and  C_17
REMARK   13  A    between atoms: N_19  and  N_20
REMARK                            x       y       z     vdW  Elec       q    Type
REMARK                         _______ _______ _______ _____ _____    ______ ____
ROOT
ATOM      1  N   UNL     1       8.769   4.690   7.661  0.00  0.00    +0.000 N 
ENDROOT
BRANCH   1   2
ATOM      2  C   UNL     1       9.319   5.575   8.780  0.00  0.00    +0.000 A 
ATOM      3  C   UNL     1       9.191   5.137  10.111  0.00  0.00    +0.000 A 
ATOM      4  C   UNL     1       9.414   5.987  11.218  0.00  0.00    +0.000 A 
ATOM      5  C   UNL     1       9.920   7.266  11.023  0.00  0.00    +0.000 A 
ATOM      6 CL   UNL     1      10.349   8.238  12.380  0.00  0.00    +0.000 Cl
ATOM      7  C   UNL     1      10.116   7.729   9.727  0.00  0.00    +0.000 A 
ATOM      8  C   UNL     1       9.811   6.892   8.620  0.00  0.00    +0.000 A 
ENDBRANCH   1   2
BRANCH   1   9
ATOM      9  S   UNL     1       9.633   4.783   6.075  0.00  0.00    +0.000 S 
ATOM     10  O   UNL     1      10.954   4.221   6.317  0.00  0.00    +0.000 OA
ATOM     11  O   UNL     1       9.587   6.170   5.626  0.00  0.00    +0.000 OA
BRANCH   9  15
ATOM     12  C   UNL     1       7.224   2.840   2.604  0.00  0.00    +0.000 A 
ATOM     13  C   UNL     1       8.456   3.433   2.311  0.00  0.00    +0.000 A 
ATOM     14  C   UNL     1       9.288   3.971   3.352  0.00  0.00    +0.000 A 
ATOM     15  C   UNL     1       8.940   3.768   4.685  0.00  0.00    +0.000 A 
ATOM     16  C   UNL     1       7.943   2.839   4.841  0.00  0.00    +0.000 A 
ATOM     17  C   UNL     1       6.907   2.736   3.911  0.00  0.00    +0.000 A 
BRANCH  12  18
ATOM     18  O   UNL     1       6.496   2.130   1.696  0.00  0.00    +0.000 OA
BRANCH  18  19
ATOM     19  C   UNL     1       5.089   1.993   1.989  0.00  0.00    +0.000 C 
BRANCH  19  20
ATOM     20  C   UNL     1       4.552   0.958   1.039  0.00  0.00    +0.000 C 
BRANCH  20  21
ATOM     21  C   UNL     1       3.029   0.948   1.038  0.00  0.00    +0.000 C 
BRANCH  21  23
ATOM     22  C   UNL     1       1.059  -0.017   0.070  0.00  0.00    +0.000 C 
ATOM     23  N   UNL     1       2.521  -0.014   0.053  0.00  0.00    +0.000 NA
ATOM     24  C   UNL     1       2.985   0.335  -1.296  0.00  0.00    +0.000 C 
ENDBRANCH  21  23
ENDBRANCH  20  21
ENDBRANCH  19  20
ENDBRANCH  18  19
ENDBRANCH  12  18
ENDBRANCH   9  15
ENDBRANCH   1   9
BRANCH   1  25
ATOM     25  C   UNL     1       7.272   4.045   7.945  0.00  0.00    +0.000 C 
BRANCH  25  26
ATOM     26  C   UNL     1       6.337   3.586   6.682  0.00  0.00    +0.000 C 
ATOM     27  O   UNL     1       6.451   4.474   5.816  0.00  0.00    +0.000 OA
ATOM     28  N   UNL     1       5.385   2.242   6.692  0.00  0.00    +0.000 N 
ATOM     29  H   UNL     1       4.797   2.347   7.517  0.00  0.00    +0.000 HD
BRANCH  28  30
ATOM     30  N   UNL     1       4.643   0.877   5.740  0.00  0.00    +0.000 NA
ATOM     31  C   UNL     1       3.299   0.101   5.851  0.00  0.00    +0.000 C 
ATOM     32  C   UNL     1       2.924   1.369   6.654  0.00  0.00    +0.000 C 
ATOM     33  O   UNL     1       3.494   1.787   7.626  0.00  0.00    +0.000 OA
ATOM     34  N   UNL     1       1.750   1.811   6.212  0.00  0.00    +0.000 N 
ATOM     35  C   UNL     1       1.193   1.244   7.276  0.00  0.00    +0.000 C 
ATOM     36  O   UNL     1       1.358   1.284   8.495  0.00  0.00    +0.000 OA
ATOM     37  C   UNL     1       0.595   0.072   6.901  0.00  0.00    +0.000 A 
ATOM     38  C   UNL     1      -0.823   0.159   7.460  0.00  0.00    +0.000 A 
ATOM     39  C   UNL     1      -1.762  -0.806   7.399  0.00  0.00    +0.000 A 
ATOM     40  C   UNL     1      -1.229  -1.816   6.640  0.00  0.00    +0.000 A 
ATOM     41  C   UNL     1       0.355  -1.812   6.044  0.00  0.00    +0.000 A 
ATOM     42  C   UNL     1       1.528  -0.729   6.204  0.00  0.00    +0.000 A 
ATOM     43  H   UNL     1       1.547   1.360   5.306  0.00  0.00    +0.000 HD
ENDBRANCH  28  30
ENDBRANCH  25  26
ENDBRANCH   1  25
TORSDOF 11
