REMARK  Name = CHEMBL2037496
REMARK  12 active torsions:
REMARK  status: ('A' for Active; 'I' for Inactive)
REMARK    1  A    between atoms: C_1  and  C_2
REMARK    2  A    between atoms: C_5  and  C_6
REMARK    3  A    between atoms: C_6  and  C_7
REMARK    4  A    between atoms: C_6  and  N_12
REMARK    5  A    between atoms: N_9  and  C_10
REMARK    6  A    between atoms: N_9  and  C_11
REMARK    7  A    between atoms: CA_15  and  C_16
REMARK    8  A    between atoms: CA_28  and  C_29
REMARK    9  A    between atoms: C_29  and  C_30
REMARK   10  A    between atoms: C_30  and  C_31
REMARK   11  A    between atoms: C_30  and  C_32
REMARK   12  A    between atoms: C_30  and  C_33
REMARK                            x       y       z     vdW  Elec       q    Type
REMARK                         _______ _______ _______ _____ _____    ______ ____
ROOT
ATOM      1  N   UNL     1      -4.141  -1.119  -0.087  0.00  0.00    +0.000 N 
ATOM      2  C   UNL     1      -4.199  -1.891   1.089  0.00  0.00    +0.000 C 
ATOM      3  O   UNL     1      -3.726  -1.463   2.136  0.00  0.00    +0.000 OA
ATOM      4  CA  UNL     1      -4.509  -3.439   0.836  0.00  0.00    +0.000 C 
ATOM      5  N   UNL     1      -5.708  -3.614   0.140  0.00  0.00    +0.000 N 
ATOM      6  C   UNL     1      -5.985  -2.785  -0.865  0.00  0.00    +0.000 C 
ATOM      7  O   UNL     1      -7.140  -2.919  -1.177  0.00  0.00    +0.000 OA
ATOM      8  CA  UNL     1      -4.818  -1.753  -1.304  0.00  0.00    +0.000 C 
ATOM      9  H   UNL     1      -6.580  -3.926   0.559  0.00  0.00    +0.000 HD
ENDROOT
BRANCH   4  10
ATOM     10  C   UNL     1      -4.656  -4.253   2.077  0.00  0.00    +0.000 C 
ATOM     11  C   UNL     1      -3.309  -4.570   2.709  0.00  0.00    +0.000 C 
ATOM     12  C   UNL     1      -3.699  -4.582   4.138  0.00  0.00    +0.000 A 
ATOM     13  C   UNL     1      -2.957  -5.058   5.191  0.00  0.00    +0.000 A 
ATOM     14  C   UNL     1      -3.513  -4.952   6.461  0.00  0.00    +0.000 A 
ATOM     15  C   UNL     1      -4.761  -4.332   6.662  0.00  0.00    +0.000 A 
ATOM     16  C   UNL     1      -5.480  -3.814   5.595  0.00  0.00    +0.000 A 
ATOM     17  C   UNL     1      -4.945  -3.977   4.342  0.00  0.00    +0.000 A 
ATOM     18  C   UNL     1      -5.543  -3.496   3.082  0.00  0.00    +0.000 C 
ENDBRANCH   4  10
BRANCH   1  19
ATOM     19  C   UNL     1      -3.220   0.193  -0.053  0.00  0.00    +0.000 C 
BRANCH  19  24
ATOM     20  C   UNL     1      -4.798   3.602  -4.567  0.00  0.00    +0.000 C 
ATOM     21  C   UNL     1      -4.303   2.847  -3.366  0.00  0.00    +0.000 A 
ATOM     22  C   UNL     1      -5.159   2.723  -2.298  0.00  0.00    +0.000 A 
ATOM     23  C   UNL     1      -4.747   2.073  -1.124  0.00  0.00    +0.000 A 
ATOM     24  C   UNL     1      -3.524   1.374  -1.099  0.00  0.00    +0.000 A 
ATOM     25  C   UNL     1      -2.689   1.672  -2.183  0.00  0.00    +0.000 A 
ATOM     26  N   UNL     1      -3.040   2.393  -3.296  0.00  0.00    +0.000 NA
ENDBRANCH  19  24
BRANCH  19  27
ATOM     27  C   UNL     1      -1.598   0.051   0.071  0.00  0.00    +0.000 C 
ATOM     28  O   UNL     1      -0.922   1.087  -0.053  0.00  0.00    +0.000 OA
ATOM     29  N   UNL     1      -0.902  -1.125   0.320  0.00  0.00    +0.000 N 
ATOM     30  C   UNL     1      -1.439  -2.360   0.763  0.00  0.00    +0.000 C 
ATOM     31  C   UNL     1       0.535  -1.119   0.432  0.00  0.00    +0.000 C 
ENDBRANCH  19  27
ENDBRANCH   1  19
BRANCH   8  32
ATOM     32  C   UNL     1      -5.436  -0.623  -2.091  0.00  0.00    +0.000 C 
BRANCH  32  33
ATOM     33  C   UNL     1      -6.943  -0.426  -2.047  0.00  0.00    +0.000 C 
ATOM     34  C   UNL     1      -7.372  -1.443  -3.113  0.00  0.00    +0.000 C 
ATOM     35  C   UNL     1      -7.410  -0.359  -0.522  0.00  0.00    +0.000 C 
ATOM     36  C   UNL     1      -7.527   0.878  -2.585  0.00  0.00    +0.000 C 
ENDBRANCH  32  33
ENDBRANCH   8  32
TORSDOF 6
