REMARK  Name = CHEMBL277425
REMARK  13 active torsions:
REMARK  status: ('A' for Active; 'I' for Inactive)
REMARK    1  A    between atoms: C_1  and  C_2
REMARK    2  A    between atoms: C_2  and  C_4
REMARK    3  A    between atoms: C_4  and  C_5
REMARK    4  A    between atoms: C_5  and  C_6
REMARK    5  A    between atoms: C_6  and  C_7
REMARK    6  A    between atoms: N_9  and  C_10
REMARK    7  A    between atoms: C_12  and  C_13
REMARK    8  A    between atoms: N_25  and  C_26
REMARK    9  A    between atoms: C_26  and  C_27
REMARK   10  A    between atoms: N_29  and  C_30
REMARK   11  A    between atoms: C_30  and  C_31
REMARK   12  A    between atoms: C_30  and  C_40
REMARK   13  A    between atoms: C_31  and  C_32
REMARK                            x       y       z     vdW  Elec       q    Type
REMARK                         _______ _______ _______ _____ _____    ______ ____
ROOT
ATOM      1  C   UNL     1       9.245  -2.788  -0.375  0.00  0.00    +0.000 C 
ATOM      2  N   UNL     1       9.820  -3.981   0.262  0.00  0.00    +0.000 NA
ATOM      3  C   UNL     1      11.110  -4.003   0.362  0.00  0.00    +0.000 C 
ATOM      4  C   UNL     1      11.965  -3.024  -0.290  0.00  0.00    +0.000 A 
ATOM      5  C   UNL     1      13.028  -3.599  -0.931  0.00  0.00    +0.000 A 
ATOM      6  C   UNL     1      13.741  -2.779  -1.724  0.00  0.00    +0.000 A 
ATOM      7  C   UNL     1      13.364  -1.455  -1.989  0.00  0.00    +0.000 A 
ATOM      8  C   UNL     1      12.409  -0.841  -1.223  0.00  0.00    +0.000 A 
ATOM      9  C   UNL     1      11.707  -1.625  -0.344  0.00  0.00    +0.000 A 
ATOM     10  N   UNL     1      10.748  -1.001   0.473  0.00  0.00    +0.000 N 
ATOM     11  C   UNL     1       9.514  -1.589   0.610  0.00  0.00    +0.000 C 
ATOM     12  O   UNL     1       8.715  -1.175   1.452  0.00  0.00    +0.000 OA
ENDROOT
BRANCH   3  13
ATOM     13  C   UNL     1      11.821  -5.156   1.081  0.00  0.00    +0.000 C 
ATOM     14  C   UNL     1      11.351  -5.157   2.523  0.00  0.00    +0.000 C 
ATOM     15  C   UNL     1      11.803  -6.402   3.264  0.00  0.00    +0.000 C 
ATOM     16  C   UNL     1      11.408  -7.667   2.509  0.00  0.00    +0.000 C 
ATOM     17  C   UNL     1      11.995  -7.680   1.103  0.00  0.00    +0.000 C 
ATOM     18  C   UNL     1      11.543  -6.457   0.322  0.00  0.00    +0.000 C 
ENDBRANCH   3  13
BRANCH   1  21
ATOM     19  C   UNL     1       6.999  -1.944  -0.613  0.00  0.00    +0.000 C 
ATOM     20  O   UNL     1       7.389  -0.798  -0.823  0.00  0.00    +0.000 OA
ATOM     21  N   UNL     1       7.841  -3.018  -0.463  0.00  0.00    +0.000 N 
ATOM     22  H   UNL     1       7.559  -3.958  -0.681  0.00  0.00    +0.000 HD
BRANCH  19  23
ATOM     23  C   UNL     1       5.542  -2.287  -0.476  0.00  0.00    +0.000 C 
BRANCH  23  24
ATOM     24  C   UNL     1       4.772  -1.007  -0.164  0.00  0.00    +0.000 C 
BRANCH  24  25
ATOM     25  C   UNL     1       3.269  -1.209  -0.194  0.00  0.00    +0.000 C 
BRANCH  25  27
ATOM     26  C   UNL     1       1.042   0.048   0.066  0.00  0.00    +0.000 C 
ATOM     27  C   UNL     1       2.544   0.097   0.080  0.00  0.00    +0.000 C 
ATOM     28  O   UNL     1       3.130   1.156   0.302  0.00  0.00    +0.000 OA
ENDBRANCH  25  27
ENDBRANCH  24  25
ENDBRANCH  23  24
ENDBRANCH  19  23
ENDBRANCH   1  21
BRANCH  10  29
ATOM     29  C   UNL     1      10.977   0.268   1.184  0.00  0.00    +0.000 C 
BRANCH  29  30
ATOM     30  C   UNL     1      12.449   0.528   1.541  0.00  0.00    +0.000 C 
ATOM     31  O   UNL     1      13.187  -0.393   1.686  0.00  0.00    +0.000 OA
ATOM     32  N   UNL     1      12.821   1.852   1.785  0.00  0.00    +0.000 N 
ATOM     33  H   UNL     1      12.135   2.384   2.292  0.00  0.00    +0.000 HD
BRANCH  32  34
ATOM     34  C   UNL     1      14.254   2.246   1.937  0.00  0.00    +0.000 C 
BRANCH  34  35
ATOM     35  C   UNL     1      14.511   3.515   2.784  0.00  0.00    +0.000 C 
ATOM     36  N   UNL     1      13.448   4.104   3.399  0.00  0.00    +0.000 N 
ATOM     37  O   UNL     1      15.634   3.986   2.957  0.00  0.00    +0.000 OA
ATOM     38  H   UNL     1      12.496   3.792   3.363  0.00  0.00    +0.000 HD
ATOM     39  H   UNL     1      13.643   4.926   3.957  0.00  0.00    +0.000 HD
ENDBRANCH  34  35
BRANCH  34  40
ATOM     40  C   UNL     1      14.952   2.477   0.553  0.00  0.00    +0.000 C 
BRANCH  40  41
ATOM     41  C   UNL     1      15.333   1.267  -0.270  0.00  0.00    +0.000 A 
ATOM     42  C   UNL     1      15.464   0.023   0.326  0.00  0.00    +0.000 A 
ATOM     43  C   UNL     1      15.767  -1.115  -0.415  0.00  0.00    +0.000 A 
ATOM     44  C   UNL     1      16.245  -0.993  -1.738  0.00  0.00    +0.000 A 
ATOM     45 CL   UNL     1      16.606  -2.350  -2.801  0.00  0.00    +0.000 Cl
ATOM     46  C   UNL     1      16.199   0.273  -2.327  0.00  0.00    +0.000 A 
ATOM     47 CL   UNL     1      16.601   0.511  -3.996  0.00  0.00    +0.000 Cl
ATOM     48  C   UNL     1      15.675   1.369  -1.625  0.00  0.00    +0.000 A 
ENDBRANCH  40  41
ENDBRANCH  34  40
ENDBRANCH  32  34
ENDBRANCH  29  30
ENDBRANCH  10  29
TORSDOF 12
