REMARK  Name = CHEMBL555148
REMARK  12 active torsions:
REMARK  status: ('A' for Active; 'I' for Inactive)
REMARK    1  A    between atoms: C_1  and  C_2
REMARK    2  A    between atoms: C_5  and  C_6
REMARK    3  A    between atoms: C_6  and  C_7
REMARK    4  A    between atoms: C_6  and  N_13
REMARK    5  A    between atoms: N_9  and  C_10
REMARK    6  A    between atoms: C_10  and  C_11
REMARK    7  A    between atoms: C_10  and  C_12
REMARK    8  A    between atoms: C_16  and  C_17
REMARK    9  A    between atoms: CA_29  and  CB_30
REMARK   10  A    between atoms: CB_30  and  CG_31
REMARK   11  A    between atoms: CG_31  and  CD1_32
REMARK   12  A    between atoms: CG_31  and  CD2_33
REMARK                            x       y       z     vdW  Elec       q    Type
REMARK                         _______ _______ _______ _____ _____    ______ ____
ROOT
ATOM      1  N   LEU A   1      -3.897   1.478   0.157  0.00  0.00    +0.000 N 
ATOM      2  C   UNK A   2      -3.392   2.328  -0.733  0.00  0.00    +0.000 C 
ATOM      3  O   UNK A   2      -2.437   1.929  -1.439  0.00  0.00    +0.000 OA
ATOM      4  C   UNK A   2      -3.795   3.778  -0.839  0.00  0.00    +0.000 C 
ATOM      5  N   UNK A   2      -5.175   3.836  -0.493  0.00  0.00    +0.000 N 
ATOM      6  C   LEU A   1      -5.357   3.497   0.814  0.00  0.00    +0.000 C 
ATOM      7  O   LEU A   1      -6.106   4.186   1.499  0.00  0.00    +0.000 OA
ATOM      8  CA  LEU A   1      -4.512   2.238   1.276  0.00  0.00    +0.000 C 
ATOM      9  H   UNK A   2      -5.782   4.567  -0.847  0.00  0.00    +0.000 HD
ENDROOT
BRANCH   4  10
ATOM     10  C   UNK A   2      -3.543   3.926  -2.269  0.00  0.00    +0.000 C 
ATOM     11  C   UNK A   2      -2.017   4.226  -2.801  0.00  0.00    +0.000 C 
ATOM     12  C   UNK A   2      -1.834   3.147  -3.803  0.00  0.00    +0.000 A 
ATOM     13  C   UNK A   2      -0.642   2.425  -3.976  0.00  0.00    +0.000 A 
ATOM     14  C   UNK A   2      -0.654   1.046  -4.049  0.00  0.00    +0.000 A 
ATOM     15  C   UNK A   2      -1.874   0.441  -3.782  0.00  0.00    +0.000 A 
ATOM     16  C   UNK A   2      -3.122   1.276  -3.738  0.00  0.00    +0.000 A 
ATOM     17  C   UNK A   2      -3.137   2.751  -4.031  0.00  0.00    +0.000 A 
ATOM     18  C   UNK A   2      -4.047   4.290  -3.548  0.00  0.00    +0.000 C 
ENDBRANCH   4  10
BRANCH   1  19
ATOM     19  C   UNK A   0      -3.272   0.058   0.122  0.00  0.00    +0.000 C 
BRANCH  19  24
ATOM     20  C   UNK A   0      -5.222  -2.450   4.937  0.00  0.00    +0.000 C 
ATOM     21  C   UNK A   0      -4.718  -1.985   3.616  0.00  0.00    +0.000 A 
ATOM     22  C   UNK A   0      -5.568  -1.850   2.519  0.00  0.00    +0.000 A 
ATOM     23  C   UNK A   0      -5.085  -1.410   1.279  0.00  0.00    +0.000 A 
ATOM     24  C   UNK A   0      -3.771  -0.912   1.207  0.00  0.00    +0.000 A 
ATOM     25  C   UNK A   0      -2.918  -1.165   2.291  0.00  0.00    +0.000 A 
ATOM     26  C   UNK A   0      -3.368  -1.730   3.463  0.00  0.00    +0.000 A 
ENDBRANCH  19  24
BRANCH  19  27
ATOM     27  C   UNK A   0      -1.627  -0.067   0.068  0.00  0.00    +0.000 C 
ATOM     28  O   UNK A   0      -1.088  -1.169   0.213  0.00  0.00    +0.000 OA
ATOM     29  N   UNK A   0      -0.845   1.046  -0.163  0.00  0.00    +0.000 N 
ATOM     30  H   UNK A   0      -1.291   1.710  -0.780  0.00  0.00    +0.000 HD
BRANCH  29  31
ATOM     31  C   UNK A   0       0.586   1.066  -0.360  0.00  0.00    +0.000 C 
ATOM     32  C   UNK A   0       1.099  -0.081  -1.222  0.00  0.00    +0.000 C 
ATOM     33  C   UNK A   0       1.031   2.410  -0.961  0.00  0.00    +0.000 C 
ENDBRANCH  29  31
ENDBRANCH  19  27
ENDBRANCH   1  19
BRANCH   8  34
ATOM     34  CB  LEU A   1      -5.424   1.325   2.017  0.00  0.00    +0.000 C 
BRANCH  34  35
ATOM     35  CG  LEU A   1      -6.835   1.708   2.365  0.00  0.00    +0.000 C 
ATOM     36  CD1 LEU A   1      -7.686   1.855   1.076  0.00  0.00    +0.000 C 
ATOM     37  CD2 LEU A   1      -7.499   0.603   3.164  0.00  0.00    +0.000 C 
ENDBRANCH  34  35
ENDBRANCH   8  34
TORSDOF 7
