REMARK  Name = CHEMBL31823
REMARK  6 active torsions:
REMARK  status: ('A' for Active; 'I' for Inactive)
REMARK    1  A    between atoms: C_1  and  C_2
REMARK    2  A    between atoms: N_4  and  C_5
REMARK    3  A    between atoms: C_5  and  C_6
REMARK    4  A    between atoms: C_6  and  N_7
REMARK    5  A    between atoms: C_12  and  C_13
REMARK    6  A    between atoms: C_18  and  N_19
REMARK                            x       y       z     vdW  Elec       q    Type
REMARK                         _______ _______ _______ _____ _____    ______ ____
ROOT
ATOM      1  C   UNL     1      10.825   0.620   4.658  0.00  0.00    +0.000 C 
ATOM      2  O   UNL     1      11.976   0.919   4.333  0.00  0.00    +0.000 OA
ATOM      3  N   UNL     1      10.535   0.057   5.928  0.00  0.00    +0.000 N 
ATOM      4  C   UNL     1      11.032   0.709   7.142  0.00  0.00    +0.000 C 
ATOM      5  C   UNL     1      11.719  -0.244   8.107  0.00  0.00    +0.000 C 
ATOM      6  C   UNL     1      10.509  -1.290   8.796  0.00  0.00    +0.000 C 
ATOM      7  C   UNL     1      10.299  -2.045   7.236  0.00  0.00    +0.000 C 
ATOM      8  C   UNL     1       9.704  -1.131   6.164  0.00  0.00    +0.000 C 
ENDROOT
BRANCH   6   9
ATOM      9  N   UNL     1       9.614  -0.537  10.237  0.00  0.00    +0.000 N 
ATOM     10  C   UNL     1      10.820  -0.927  10.924  0.00  0.00    +0.000 C 
ATOM     11  O   UNL     1      12.022  -0.610  10.642  0.00  0.00    +0.000 OA
ATOM     12  O   UNL     1      10.708  -1.875  11.833  0.00  0.00    +0.000 OA
ATOM     13  C   UNL     1      10.575  -1.033  12.915  0.00  0.00    +0.000 C 
ATOM     14  C   UNL     1       9.129  -1.169  12.864  0.00  0.00    +0.000 A 
ATOM     15  C   UNL     1       8.424  -2.005  13.799  0.00  0.00    +0.000 A 
ATOM     16  C   UNL     1       7.108  -1.840  14.183  0.00  0.00    +0.000 A 
ATOM     17  C   UNL     1       6.626  -0.626  13.783  0.00  0.00    +0.000 A 
ATOM     18  C   UNL     1       7.384   0.083  12.591  0.00  0.00    +0.000 A 
ATOM     19  C   UNL     1       8.542  -0.596  11.754  0.00  0.00    +0.000 A 
ENDBRANCH   6   9
BRANCH   1  25
ATOM     20  N   UNL     1       6.753   2.392   1.051  0.00  0.00    +0.000 N 
ATOM     21  C   UNL     1       7.524   2.911   0.039  0.00  0.00    +0.000 A 
ATOM     22  C   UNL     1       8.848   2.739   0.379  0.00  0.00    +0.000 A 
ATOM     23  C   UNL     1       8.901   2.090   1.645  0.00  0.00    +0.000 A 
ATOM     24  C   UNL     1       9.964   1.650   2.486  0.00  0.00    +0.000 A 
ATOM     25  C   UNL     1       9.694   1.013   3.720  0.00  0.00    +0.000 A 
ATOM     26  C   UNL     1       8.359   0.869   4.092  0.00  0.00    +0.000 A 
ATOM     27  C   UNL     1       7.289   1.281   3.278  0.00  0.00    +0.000 A 
ATOM     28  C   UNL     1       7.575   1.894   2.051  0.00  0.00    +0.000 A 
BRANCH  20  29
ATOM     29  C   UNL     1       5.292   2.387   1.028  0.00  0.00    +0.000 C 
BRANCH  29  30
ATOM     30  C   UNL     1       4.714   1.077   0.489  0.00  0.00    +0.000 C 
BRANCH  30  34
ATOM     31  C   UNL     1       1.092  -0.052   0.033  0.00  0.00    +0.000 C 
ATOM     32  C   UNL     1       2.602  -0.106   0.014  0.00  0.00    +0.000 C 
ATOM     33  O   UNL     1       3.203  -1.103  -0.375  0.00  0.00    +0.000 OA
ATOM     34  N   UNL     1       3.250   1.029   0.463  0.00  0.00    +0.000 N 
ATOM     35  H   UNL     1       2.707   1.829   0.763  0.00  0.00    +0.000 HD
ENDBRANCH  30  34
ENDBRANCH  29  30
ENDBRANCH  20  29
ENDBRANCH   1  25
TORSDOF 5
