REMARK  Name = CHEMBL515447
REMARK  7 active torsions:
REMARK  status: ('A' for Active; 'I' for Inactive)
REMARK    1  A    between atoms: C_2  and  C_3
REMARK    2  A    between atoms: C_6  and  C_7
REMARK    3  A    between atoms: C_12  and  C_13
REMARK    4  A    between atoms: N_19  and  C_20
REMARK    5  A    between atoms: N_19  and  C_24
REMARK    6  A    between atoms: C_20  and  C_21
REMARK    7  A    between atoms: C_24  and  C_25
REMARK                            x       y       z     vdW  Elec       q    Type
REMARK                         _______ _______ _______ _____ _____    ______ ____
ROOT
ATOM      1  C   UNL     1       3.084  -0.969  -0.925  0.00  0.00    +0.000 A 
ATOM      2  C   UNL     1       2.681  -1.259  -2.236  0.00  0.00    +0.000 A 
ATOM      3  C   UNL     1       3.241  -2.311  -2.901  0.00  0.00    +0.000 A 
ATOM      4  C   UNL     1       4.240  -3.002  -2.243  0.00  0.00    +0.000 A 
ATOM      5  N   UNL     1       4.578  -2.817  -0.940  0.00  0.00    +0.000 NA
ATOM      6  C   UNL     1       3.954  -1.822  -0.290  0.00  0.00    +0.000 A 
ENDROOT
BRANCH   4   7
ATOM      7  C   UNL     1       5.036  -3.974  -2.954  0.00  0.00    +0.000 A 
ATOM      8  C   UNL     1       4.998  -5.297  -2.486  0.00  0.00    +0.000 A 
ATOM      9  C   UNL     1       5.766  -6.279  -3.087  0.00  0.00    +0.000 A 
ATOM     10  C   UNL     1       6.526  -5.965  -4.208  0.00  0.00    +0.000 A 
ATOM     11  C   UNL     1       6.562  -4.656  -4.693  0.00  0.00    +0.000 A 
ATOM     12  C   UNL     1       5.831  -3.633  -4.068  0.00  0.00    +0.000 A 
BRANCH  12  13
ATOM     13  C   UNL     1       5.930  -2.239  -4.657  0.00  0.00    +0.000 C 
ATOM     14  F   UNL     1       7.216  -1.797  -4.738  0.00  0.00    +0.000 F 
ATOM     15  F   UNL     1       5.450  -2.212  -5.936  0.00  0.00    +0.000 F 
ATOM     16  F   UNL     1       5.266  -1.242  -4.015  0.00  0.00    +0.000 F 
ENDBRANCH  12  13
ENDBRANCH   4   7
BRANCH   1  18
ATOM     17  O   UNL     1       1.487   0.540  -0.992  0.00  0.00    +0.000 OA
ATOM     18  C   UNL     1       2.444   0.193  -0.327  0.00  0.00    +0.000 C 
ATOM     19  N   UNL     1       2.901   0.777   0.867  0.00  0.00    +0.000 N 
BRANCH  19  20
ATOM     20  C   UNL     1       2.044   1.709   1.640  0.00  0.00    +0.000 C 
BRANCH  20  21
ATOM     21  C   UNL     1       0.548   1.587   1.672  0.00  0.00    +0.000 C 
ATOM     22  C   UNL     1      -0.160   1.858   0.377  0.00  0.00    +0.000 C 
ATOM     23  C   UNL     1      -0.199   0.469   1.023  0.00  0.00    +0.000 C 
ENDBRANCH  20  21
ENDBRANCH  19  20
BRANCH  19  24
ATOM     24  C   UNL     1       4.366   1.005   0.941  0.00  0.00    +0.000 C 
BRANCH  24  25
ATOM     25  C   UNL     1       4.906   2.089   1.885  0.00  0.00    +0.000 C 
ATOM     26  C   UNL     1       4.381   3.483   1.594  0.00  0.00    +0.000 C 
ATOM     27  C   UNL     1       5.506   4.384   1.973  0.00  0.00    +0.000 C 
ATOM     28  C   UNL     1       6.714   3.554   1.635  0.00  0.00    +0.000 C 
ATOM     29  O   UNL     1       6.339   2.174   1.756  0.00  0.00    +0.000 OA
ENDBRANCH  24  25
ENDBRANCH  19  24
ENDBRANCH   1  18
TORSDOF 7
