REMARK  Name = CHEMBL105673
REMARK  8 active torsions:
REMARK  status: ('A' for Active; 'I' for Inactive)
REMARK    1  A    between atoms: C_1  and  O_2
REMARK    2  A    between atoms: O_2  and  C_3
REMARK    3  A    between atoms: C_5  and  O_6
REMARK    4  A    between atoms: O_6  and  C_7
REMARK    5  A    between atoms: C_7  and  C_8
REMARK    6  A    between atoms: C_7  and  C_9
REMARK    7  A    between atoms: C_17  and  C_18
REMARK    8  A    between atoms: C_23  and  N_24
REMARK                            x       y       z     vdW  Elec       q    Type
REMARK                         _______ _______ _______ _____ _____    ______ ____
ROOT
ATOM      1  C   UNL     1       1.382   2.546  -0.119  0.00  0.00    +0.000 C 
ATOM      2  O   UNL     1       0.904   3.632  -0.474  0.00  0.00    +0.000 OA
ATOM      3  N   UNL     1       0.704   1.741   0.897  0.00  0.00    +0.000 N 
ATOM      4  C   UNL     1      -0.702   1.301   0.635  0.00  0.00    +0.000 C 
ATOM      5  C   UNL     1      -1.559   1.086   1.886  0.00  0.00    +0.000 C 
ATOM      6  C   UNL     1      -0.907  -0.168   2.999  0.00  0.00    +0.000 C 
ATOM      7  C   UNL     1       0.570   0.719   3.235  0.00  0.00    +0.000 C 
ATOM      8  C   UNL     1       1.405   0.956   1.940  0.00  0.00    +0.000 C 
ENDROOT
BRANCH   6   9
ATOM      9  N   UNL     1      -1.713  -1.766   3.478  0.00  0.00    +0.000 N 
ATOM     10  C   UNL     1      -2.894  -1.193   2.976  0.00  0.00    +0.000 C 
ATOM     11  O   UNL     1      -3.465  -0.121   3.380  0.00  0.00    +0.000 OA
ATOM     12  O   UNL     1      -3.258  -1.668   1.801  0.00  0.00    +0.000 OA
ATOM     13  C   UNL     1      -4.141  -2.614   2.258  0.00  0.00    +0.000 C 
ATOM     14  C   UNL     1      -3.188  -3.738   2.216  0.00  0.00    +0.000 A 
ATOM     15  C   UNL     1      -3.849  -4.918   1.561  0.00  0.00    +0.000 A 
ATOM     16  C   UNL     1      -3.758  -6.219   1.959  0.00  0.00    +0.000 A 
ATOM     17  C   UNL     1      -3.030  -6.283   3.124  0.00  0.00    +0.000 A 
ATOM     18  C   UNL     1      -2.262  -4.972   3.755  0.00  0.00    +0.000 A 
ATOM     19  C   UNL     1      -2.113  -3.536   3.122  0.00  0.00    +0.000 A 
ENDBRANCH   6   9
BRANCH   1  25
ATOM     20  C   UNL     1       3.112   0.750  -1.000  0.00  0.00    +0.000 A 
ATOM     21  C   UNL     1       4.237   0.414  -1.783  0.00  0.00    +0.000 A 
ATOM     22  C   UNL     1       4.863   1.352  -2.590  0.00  0.00    +0.000 A 
ATOM     23  C   UNL     1       4.245   2.582  -2.736  0.00  0.00    +0.000 A 
ATOM     24  C   UNL     1       3.191   2.963  -1.877  0.00  0.00    +0.000 A 
ATOM     25  C   UNL     1       2.608   2.063  -0.940  0.00  0.00    +0.000 A 
BRANCH  20  27
ATOM     26  C   UNL     1       1.241  -0.542  -0.666  0.00  0.00    +0.000 C 
ATOM     27  O   UNL     1       2.610  -0.353  -0.363  0.00  0.00    +0.000 OA
ENDBRANCH  20  27
BRANCH  22  28
ATOM     28  O   UNL     1       6.066   0.993  -3.129  0.00  0.00    +0.000 OA
BRANCH  28  29
ATOM     29  C   UNL     1       6.863   1.992  -3.808  0.00  0.00    +0.000 C 
ATOM     30  C   UNL     1       7.203   3.204  -2.915  0.00  0.00    +0.000 C 
BRANCH  29  31
ATOM     31  C   UNL     1       8.170   1.356  -4.294  0.00  0.00    +0.000 A 
ATOM     32  C   UNL     1       8.321  -0.031  -4.387  0.00  0.00    +0.000 A 
ATOM     33  C   UNL     1       9.530  -0.549  -4.828  0.00  0.00    +0.000 A 
ATOM     34  N   UNL     1      10.595   0.203  -5.178  0.00  0.00    +0.000 NA
ATOM     35  C   UNL     1      10.438   1.537  -5.096  0.00  0.00    +0.000 A 
ATOM     36  C   UNL     1       9.263   2.147  -4.687  0.00  0.00    +0.000 A 
ENDBRANCH  29  31
ENDBRANCH  28  29
ENDBRANCH  22  28
ENDBRANCH   1  25
TORSDOF 6
