REMARK  Name = CHEMBL1779419
REMARK  12 active torsions:
REMARK  status: ('A' for Active; 'I' for Inactive)
REMARK    1  A    between atoms: C_1  and  N_2
REMARK    2  A    between atoms: N_2  and  C_3
REMARK    3  A    between atoms: C_3  and  C_4
REMARK    4  A    between atoms: C_7  and  O_8
REMARK    5  A    between atoms: O_8  and  C_9
REMARK    6  A    between atoms: C_10  and  C_11
REMARK    7  A    between atoms: C_11  and  N_12
REMARK    8  A    between atoms: C_16  and  C_17
REMARK    9  A    between atoms: N_24  and  S_25
REMARK   10  A    between atoms: S_25  and  C_28
REMARK   11  A    between atoms: C_31  and  O_32
REMARK   12  A    between atoms: O_32  and  C_33
REMARK                            x       y       z     vdW  Elec       q    Type
REMARK                         _______ _______ _______ _____ _____    ______ ____
ROOT
ATOM      1  C   UNL     1       6.031   4.881  -0.706  0.00  0.00    +0.000 C 
ATOM      2  C   UNL     1       5.955   5.985  -1.702  0.00  0.00    +0.000 C 
ATOM      3  O   UNL     1       4.804   6.238  -2.136  0.00  0.00    +0.000 OA
ATOM      4  N   UNL     1       7.061   7.162  -1.252  0.00  0.00    +0.000 N 
ATOM      5  C   UNL     1       6.137   7.583  -0.344  0.00  0.00    +0.000 A 
ATOM      6  C   UNL     1       6.000   8.923  -0.853  0.00  0.00    +0.000 A 
ATOM      7  C   UNL     1       4.913   9.674  -0.732  0.00  0.00    +0.000 A 
ATOM      8  C   UNL     1       3.939   8.965  -0.078  0.00  0.00    +0.000 A 
ATOM      9 CL   UNL     1       2.540   9.994   0.138  0.00  0.00    +0.000 Cl
ATOM     10  C   UNL     1       4.085   7.406   0.377  0.00  0.00    +0.000 A 
ATOM     11  C   UNL     1       5.329   6.499   0.232  0.00  0.00    +0.000 A 
ENDROOT
BRANCH   1  16
ATOM     12  C   UNL     1       9.133   3.103  -3.335  0.00  0.00    +0.000 A 
ATOM     13  C   UNL     1       9.868   4.265  -3.482  0.00  0.00    +0.000 A 
ATOM     14  C   UNL     1       9.611   5.253  -2.548  0.00  0.00    +0.000 A 
ATOM     15  C   UNL     1       8.435   5.170  -1.718  0.00  0.00    +0.000 A 
ATOM     16  C   UNL     1       7.437   4.332  -1.808  0.00  0.00    +0.000 A 
ATOM     17  C   UNL     1       8.009   3.132  -2.411  0.00  0.00    +0.000 A 
BRANCH  15  18
ATOM     18  O   UNL     1       8.202   5.646  -0.474  0.00  0.00    +0.000 OA
ATOM     19  C   UNL     1       7.612   5.715   1.116  0.00  0.00    +0.000 C 
ENDBRANCH  15  18
BRANCH  12  20
ATOM     20  C   UNL     1       9.454   1.868  -4.177  0.00  0.00    +0.000 C 
BRANCH  20  22
ATOM     21  C   UNL     1      11.026   0.740  -5.642  0.00  0.00    +0.000 C 
ATOM     22  N   UNL     1      10.807   1.881  -4.767  0.00  0.00    +0.000 NA
ATOM     23  H   UNL     1      10.908   2.717  -5.339  0.00  0.00    +0.000 HD
ENDBRANCH  20  22
ENDBRANCH  12  20
ENDBRANCH   1  16
BRANCH   1  24
ATOM     24  N   UNL     1       5.911   3.261  -0.458  0.00  0.00    +0.000 NA
ATOM     25  C   UNL     1       5.379   2.588  -1.709  0.00  0.00    +0.000 C 
ATOM     26  C   UNL     1       4.218   3.467  -1.747  0.00  0.00    +0.000 C 
ATOM     27  C   UNL     1       3.814   3.410  -0.223  0.00  0.00    +0.000 C 
ATOM     28  C   UNL     1       4.997   2.889   0.601  0.00  0.00    +0.000 C 
BRANCH  28  29
ATOM     29  C   UNL     1       4.781   1.414   1.002  0.00  0.00    +0.000 A 
ATOM     30  N   UNL     1       4.302   0.427   0.260  0.00  0.00    +0.000 NA
ATOM     31  C   UNL     1       3.907  -0.531   1.158  0.00  0.00    +0.000 A 
ATOM     32  C   UNL     1       4.201  -0.128   2.434  0.00  0.00    +0.000 A 
ATOM     33  O   UNL     1       4.769   1.116   2.358  0.00  0.00    +0.000 OA
ENDBRANCH  28  29
ENDBRANCH   1  24
BRANCH   4  34
ATOM     34  S   UNL     1       8.956   7.522  -0.172  0.00  0.00    +0.000 S 
ATOM     35  O   UNL     1       9.773   8.094  -1.153  0.00  0.00    +0.000 OA
ATOM     36  O   UNL     1       8.661   8.242   1.112  0.00  0.00    +0.000 OA
BRANCH  34  37
ATOM     37  C   UNL     1       9.920   5.530   0.555  0.00  0.00    +0.000 A 
ATOM     38  C   UNL     1       9.197   4.026   0.547  0.00  0.00    +0.000 A 
ATOM     39  C   UNL     1       9.698   2.772   0.422  0.00  0.00    +0.000 A 
ATOM     40  C   UNL     1      11.025   2.859   0.454  0.00  0.00    +0.000 A 
ATOM     41  C   UNL     1      11.739   4.156   0.559  0.00  0.00    +0.000 A 
ATOM     42  C   UNL     1      11.225   5.493   0.514  0.00  0.00    +0.000 A 
BRANCH  40  43
ATOM     43  O   UNL     1      11.572   1.609   0.387  0.00  0.00    +0.000 OA
ATOM     44  C   UNL     1      12.954   1.657   0.595  0.00  0.00    +0.000 C 
ENDBRANCH  40  43
ENDBRANCH  34  37
ENDBRANCH   4  34
TORSDOF 9
