REMARK  Name = CHEMBL1765663
REMARK  23 active torsions:
REMARK  status: ('A' for Active; 'I' for Inactive)
REMARK    1  A    between atoms: CD1_1  and  CG_2
REMARK    2  A    between atoms: CG_2  and  CD2_3
REMARK    3  A    between atoms: CG_2  and  CB_4
REMARK    4  A    between atoms: CB_4  and  CA_5
REMARK    5  A    between atoms: CA_9  and  CB_10
REMARK    6  A    between atoms: CB_10  and  CG_11
REMARK    7  A    between atoms: CA_20  and  CB_21
REMARK    8  A    between atoms: CB_21  and  CG_22
REMARK    9  A    between atoms: CZ_25  and  OH_26
REMARK   10  A    between atoms: C_37  and  C_38
REMARK   11  A    between atoms: CA_44  and  C_45
REMARK   12  A    between atoms: N_47  and  CA_48
REMARK   13  A    between atoms: CA_48  and  CB_49
REMARK   14  A    between atoms: CA_48  and  C_54
REMARK   15  A    between atoms: CB_49  and  CG_50
REMARK   16  A    between atoms: CG_50  and  CD_51
REMARK   17  A    between atoms: CD_51  and  CE_52
REMARK   18  A    between atoms: CE_52  and  NZ_53
REMARK   19  A    between atoms: N_56  and  CA_57
REMARK   20  A    between atoms: CA_57  and  C_58
REMARK   21  A    between atoms: C_58  and  OXT_60
REMARK   22  A    between atoms: CA_64  and  CB_65
REMARK   23  A    between atoms: CB_65  and  CG_66
REMARK                            x       y       z     vdW  Elec       q    Type
REMARK                         _______ _______ _______ _____ _____    ______ ____
ROOT
ATOM      1  CA  TYR A   1       5.359  -1.147   1.052  0.00  0.00    +0.000 C 
ATOM      2  N   TYR A   1       6.133  -0.378   2.429  0.00  0.00    +0.000 N 
ATOM      3  C   TYR A   1       5.928   0.523   3.574  0.00  0.00    +0.000 C 
ATOM      4  O   TYR A   1       6.411   0.224   4.678  0.00  0.00    +0.000 OA
ATOM      5  CA  TYR A   1       5.042   1.917   3.430  0.00  0.00    +0.000 C 
ATOM      6  N   TYR A   1       3.598   1.982   3.575  0.00  0.00    +0.000 N 
ATOM      7  C   TYR A   1       2.777   1.723   4.616  0.00  0.00    +0.000 C 
ATOM      8  O   TYR A   1       1.616   2.092   4.392  0.00  0.00    +0.000 OA
ATOM      9  CA  TYR A   1       3.309   1.096   6.042  0.00  0.00    +0.000 C 
ATOM     10  N   TYR A   1       2.666   2.038   6.903  0.00  0.00    +0.000 N 
ATOM     11  C   UNK A   0       1.320   2.075   7.113  0.00  0.00    +0.000 C 
ATOM     12  O   UNK A   0       0.920   3.007   7.819  0.00  0.00    +0.000 OA
ATOM     13  C   UNK A   0       0.297   1.018   6.553  0.00  0.00    +0.000 C 
ATOM     14  C   UNK A   0       0.608  -0.154   5.605  0.00  0.00    +0.000 C 
ATOM     15  S   UNK A   3      -0.715  -1.205   4.923  0.00  0.00    +0.000 S 
ATOM     16  S   UNK A   3       0.418  -2.935   4.625  0.00  0.00    +0.000 S 
ATOM     17  C   UNK A   3      -0.156  -3.681   3.060  0.00  0.00    +0.000 C 
ATOM     18  C   UNK A   3       0.634  -4.690   2.210  0.00  0.00    +0.000 C 
ATOM     19  N   UNK A   3       1.206  -4.055   0.999  0.00  0.00    +0.000 N 
ATOM     20  C   ASN A   2       2.103  -3.051   0.916  0.00  0.00    +0.000 C 
ATOM     21  O   ASN A   2       2.417  -2.512  -0.142  0.00  0.00    +0.000 OA
ATOM     22  CA  ASN A   2       2.783  -2.679   2.171  0.00  0.00    +0.000 C 
ATOM     23  N   ASN A   2       4.163  -3.152   1.852  0.00  0.00    +0.000 N 
ATOM     24  C   TYR A   1       5.349  -2.616   1.355  0.00  0.00    +0.000 C 
ATOM     25  O   TYR A   1       6.410  -3.196   1.606  0.00  0.00    +0.000 OA
ATOM     26  H   TYR A   1       6.875  -1.026   2.729  0.00  0.00    +0.000 HD
ATOM     27  H   TYR A   1       3.066   2.142   2.712  0.00  0.00    +0.000 HD
ATOM     28  H   TYR A   1       3.196   2.852   7.196  0.00  0.00    +0.000 HD
ATOM     29  H   UNK A   3       0.917  -4.399   0.089  0.00  0.00    +0.000 HD
ATOM     30  H   ASN A   2       4.305  -4.056   2.295  0.00  0.00    +0.000 HD
ENDROOT
BRANCH  18  31
ATOM     31  C   UNK A   3      -0.253  -5.893   1.716  0.00  0.00    +0.000 C 
ATOM     32  O   UNK A   3      -0.235  -6.191   0.515  0.00  0.00    +0.000 OA
ATOM     33  N   PRO A   4      -0.833  -6.723   2.665  0.00  0.00    +0.000 N 
ATOM     34  CD  PRO A   4      -1.650  -6.386   3.823  0.00  0.00    +0.000 C 
ATOM     35  CG  PRO A   4      -1.255  -7.465   4.787  0.00  0.00    +0.000 C 
ATOM     36  CB  PRO A   4      -1.312  -8.696   3.903  0.00  0.00    +0.000 C 
ATOM     37  CA  PRO A   4      -0.941  -8.197   2.488  0.00  0.00    +0.000 C 
BRANCH  37  38
ATOM     38  C   PRO A   4      -2.125  -8.634   1.602  0.00  0.00    +0.000 C 
ATOM     39  O   PRO A   4      -3.030  -7.838   1.347  0.00  0.00    +0.000 OA
ATOM     40  N   LYS A   5      -2.162  -9.967   1.199  0.00  0.00    +0.000 N 
ATOM     41  H   LYS A   5      -1.585 -10.665   1.660  0.00  0.00    +0.000 HD
BRANCH  40  42
ATOM     42  CA  LYS A   5      -3.133 -10.486   0.193  0.00  0.00    +0.000 C 
BRANCH  42  43
ATOM     43  C   LYS A   5      -3.142 -12.058   0.165  0.00  0.00    +0.000 C 
ATOM     44  O   LYS A   5      -2.404 -12.716   0.901  0.00  0.00    +0.000 OA
ATOM     45  N   GLY A   6      -4.014 -12.678  -0.715  0.00  0.00    +0.000 N 
ATOM     46  H   GLY A   6      -4.630 -12.138  -1.319  0.00  0.00    +0.000 HD
BRANCH  45  47
ATOM     47  CA  GLY A   6      -4.097 -14.141  -0.859  0.00  0.00    +0.000 C 
BRANCH  47  48
ATOM     48  C   GLY A   6      -5.134 -14.549  -1.911  0.00  0.00    +0.000 C 
ATOM     49  O   GLY A   6      -5.795 -13.737  -2.547  0.00  0.00    +0.000 OA
BRANCH  48  50
ATOM     50  OXT GLY A   6      -5.279 -15.881  -2.101  0.00  0.00    +0.000 OA
ATOM     51  HXT GLY A   6      -4.722 -16.477  -1.564  0.00  0.00    +0.000 HD
ENDBRANCH  48  50
ENDBRANCH  47  48
ENDBRANCH  45  47
ENDBRANCH  42  43
BRANCH  42  52
ATOM     52  CB  LYS A   5      -2.779  -9.959  -1.214  0.00  0.00    +0.000 C 
BRANCH  52  53
ATOM     53  CG  LYS A   5      -2.740  -8.440  -1.268  0.00  0.00    +0.000 C 
BRANCH  53  54
ATOM     54  CD  LYS A   5      -2.397  -7.848  -2.608  0.00  0.00    +0.000 C 
BRANCH  54  55
ATOM     55  CE  LYS A   5      -2.373  -6.326  -2.471  0.00  0.00    +0.000 C 
BRANCH  55  56
ATOM     56  NZ  LYS A   5      -2.010  -5.754  -3.758  0.00  0.00    +0.000 NA
ATOM     57  HZ1 LYS A   5      -1.072  -6.073  -3.995  0.00  0.00    +0.000 HD
ATOM     58  HZ2 LYS A   5      -1.954  -4.743  -3.664  0.00  0.00    +0.000 HD
ENDBRANCH  55  56
ENDBRANCH  54  55
ENDBRANCH  53  54
ENDBRANCH  52  53
ENDBRANCH  42  52
ENDBRANCH  40  42
ENDBRANCH  37  38
ENDBRANCH  18  31
BRANCH  22  59
ATOM     59  CB  ASN A   2       2.115  -1.366   2.613  0.00  0.00    +0.000 C 
BRANCH  59  60
ATOM     60  CG  ASN A   2       2.527  -0.062   2.087  0.00  0.00    +0.000 C 
ATOM     61  ND2 ASN A   2       3.806   0.103   2.385  0.00  0.00    +0.000 N 
ATOM     62  OD1 ASN A   2       1.915   0.844   1.642  0.00  0.00    +0.000 OA
ATOM     63 HD21 ASN A   2       4.374  -0.585   2.839  0.00  0.00    +0.000 HD
ATOM     64 HD22 ASN A   2       4.344   0.741   1.827  0.00  0.00    +0.000 HD
ENDBRANCH  59  60
ENDBRANCH  22  59
BRANCH   9  65
ATOM     65  CB  TYR A   1       3.248  -0.352   6.834  0.00  0.00    +0.000 C 
BRANCH  65  66
ATOM     66  CG  TYR A   1       3.669  -1.639   6.172  0.00  0.00    +0.000 A 
ATOM     67  CD1 TYR A   1       4.321  -1.405   5.039  0.00  0.00    +0.000 A 
ATOM     68  CE1 TYR A   1       4.994  -2.372   4.342  0.00  0.00    +0.000 A 
ATOM     69  CZ  TYR A   1       4.982  -3.697   4.594  0.00  0.00    +0.000 A 
ATOM     70  CE2 TYR A   1       4.131  -4.023   5.600  0.00  0.00    +0.000 A 
ATOM     71  CD2 TYR A   1       3.523  -3.005   6.426  0.00  0.00    +0.000 A 
BRANCH  69  72
ATOM     72  OH  TYR A   1       5.430  -4.601   3.673  0.00  0.00    +0.000 OA
ATOM     73  HH  TYR A   1       5.993  -4.176   2.972  0.00  0.00    +0.000 HD
ENDBRANCH  69  72
ENDBRANCH  65  66
ENDBRANCH   9  65
BRANCH   5  74
ATOM     74  CB  TYR A   1       5.451   3.084   4.235  0.00  0.00    +0.000 C 
BRANCH  74  75
ATOM     75  CG  TYR A   1       6.912   3.190   4.226  0.00  0.00    +0.000 A 
ATOM     76  CD1 TYR A   1       7.782   2.422   3.425  0.00  0.00    +0.000 A 
ATOM     77  CE1 TYR A   1       9.098   2.306   3.773  0.00  0.00    +0.000 A 
ATOM     78  CZ  TYR A   1       9.577   3.188   4.723  0.00  0.00    +0.000 A 
ATOM     79  CE2 TYR A   1       8.725   4.049   5.428  0.00  0.00    +0.000 A 
ATOM     80  CD2 TYR A   1       7.376   4.018   5.216  0.00  0.00    +0.000 A 
ENDBRANCH  74  75
ENDBRANCH   5  74
BRANCH   1  81
ATOM     81  CB  TYR A   1       5.020  -0.514  -0.310  0.00  0.00    +0.000 C 
BRANCH  81  83
ATOM     82  CD1 TYR A   1       7.138   0.610  -0.187  0.00  0.00    +0.000 C 
ATOM     83  CG  TYR A   1       5.675   0.822  -0.496  0.00  0.00    +0.000 C 
ATOM     84  CD2 TYR A   1       5.497   1.304  -1.923  0.00  0.00    +0.000 C 
ENDBRANCH  81  83
ENDBRANCH   1  81
TORSDOF 21
