REMARK  Name = CHEMBL30667
REMARK  6 active torsions:
REMARK  status: ('A' for Active; 'I' for Inactive)
REMARK    1  A    between atoms: C_1  and  C_2
REMARK    2  A    between atoms: N_4  and  C_5
REMARK    3  A    between atoms: C_5  and  C_6
REMARK    4  A    between atoms: C_6  and  C_7
REMARK    5  A    between atoms: C_11  and  C_12
REMARK    6  A    between atoms: C_17  and  N_18
REMARK                            x       y       z     vdW  Elec       q    Type
REMARK                         _______ _______ _______ _____ _____    ______ ____
ROOT
ATOM      1  C   UNL     1      12.592  -0.700   2.810  0.00  0.00    +0.000 C 
ATOM      2  O   UNL     1      12.694   0.336   3.460  0.00  0.00    +0.000 OA
ATOM      3  N   UNL     1      13.697  -1.449   2.437  0.00  0.00    +0.000 N 
ATOM      4  C   UNL     1      14.732  -1.812   3.405  0.00  0.00    +0.000 C 
ATOM      5  C   UNL     1      16.096  -1.309   2.982  0.00  0.00    +0.000 C 
ATOM      6  C   UNL     1      16.413  -1.710   1.530  0.00  0.00    +0.000 C 
ATOM      7  C   UNL     1      15.302  -1.252   0.584  0.00  0.00    +0.000 C 
ATOM      8  C   UNL     1      13.942  -1.742   1.031  0.00  0.00    +0.000 C 
ENDROOT
BRANCH   6   9
ATOM      9  N   UNL     1      16.854  -3.138   1.374  0.00  0.00    +0.000 N 
ATOM     10  C   UNL     1      16.087  -4.257   1.716  0.00  0.00    +0.000 C 
ATOM     11  O   UNL     1      14.875  -4.407   1.601  0.00  0.00    +0.000 OA
ATOM     12  O   UNL     1      16.789  -5.239   2.336  0.00  0.00    +0.000 OA
ATOM     13  C   UNL     1      17.775  -5.803   1.497  0.00  0.00    +0.000 C 
ATOM     14  C   UNL     1      18.587  -4.744   0.825  0.00  0.00    +0.000 A 
ATOM     15  C   UNL     1      19.793  -5.096   0.212  0.00  0.00    +0.000 A 
ATOM     16  C   UNL     1      20.545  -4.131  -0.445  0.00  0.00    +0.000 A 
ATOM     17  C   UNL     1      20.089  -2.820  -0.506  0.00  0.00    +0.000 A 
ATOM     18  C   UNL     1      18.884  -2.467   0.098  0.00  0.00    +0.000 A 
ATOM     19  C   UNL     1      18.123  -3.421   0.783  0.00  0.00    +0.000 A 
ENDBRANCH   6   9
BRANCH   1  24
ATOM     20  C   UNL     1       6.657  -1.554   2.119  0.00  0.00    +0.000 A 
ATOM     21  C   UNL     1       7.485  -0.558   2.592  0.00  0.00    +0.000 A 
ATOM     22  C   UNL     1       8.818  -1.008   2.428  0.00  0.00    +0.000 A 
ATOM     23  C   UNL     1      10.094  -0.479   2.716  0.00  0.00    +0.000 A 
ATOM     24  C   UNL     1      11.237  -1.249   2.436  0.00  0.00    +0.000 A 
ATOM     25  C   UNL     1      11.079  -2.537   1.895  0.00  0.00    +0.000 A 
ATOM     26  C   UNL     1       9.822  -3.064   1.558  0.00  0.00    +0.000 A 
ATOM     27  C   UNL     1       8.718  -2.271   1.855  0.00  0.00    +0.000 A 
ATOM     28  O   UNL     1       7.403  -2.602   1.657  0.00  0.00    +0.000 OA
BRANCH  20  29
ATOM     29  C   UNL     1       5.170  -1.649   2.056  0.00  0.00    +0.000 C 
BRANCH  29  30
ATOM     30  C   UNL     1       4.601  -0.758   0.949  0.00  0.00    +0.000 C 
BRANCH  30  34
ATOM     31  C   UNL     1       0.995   0.016   0.007  0.00  0.00    +0.000 C 
ATOM     32  C   UNL     1       2.502   0.053  -0.045  0.00  0.00    +0.000 C 
ATOM     33  O   UNL     1       3.102   0.721  -0.881  0.00  0.00    +0.000 OA
ATOM     34  N   UNL     1       3.143  -0.712   0.909  0.00  0.00    +0.000 N 
ATOM     35  H   UNL     1       2.600  -1.235   1.583  0.00  0.00    +0.000 HD
ENDBRANCH  30  34
ENDBRANCH  29  30
ENDBRANCH  20  29
ENDBRANCH   1  24
TORSDOF 5
