REMARK  Name = CHEMBL582857
REMARK  14 active torsions:
REMARK  status: ('A' for Active; 'I' for Inactive)
REMARK    1  A    between atoms: C_1  and  O_2
REMARK    2  A    between atoms: O_2  and  C_3
REMARK    3  A    between atoms: C_6  and  S_7
REMARK    4  A    between atoms: S_7  and  N_10
REMARK    5  A    between atoms: C_13  and  C_14
REMARK    6  A    between atoms: C_13  and  N_22
REMARK    7  A    between atoms: C_19  and  O_20
REMARK    8  A    between atoms: O_20  and  C_21
REMARK    9  A    between atoms: C_24  and  O_25
REMARK   10  A    between atoms: C_27  and  C_28
REMARK   11  A    between atoms: N_30  and  C_31
REMARK   12  A    between atoms: N_30  and  C_32
REMARK   13  A    between atoms: C_40  and  O_41
REMARK   14  A    between atoms: O_41  and  C_42
REMARK                            x       y       z     vdW  Elec       q    Type
REMARK                         _______ _______ _______ _____ _____    ______ ____
ROOT
ATOM      1  N   UNL     1       6.465  -5.577  -5.063  0.00  0.00    +0.000 N 
ATOM      2  C   UNL     1       5.230  -6.195  -4.922  0.00  0.00    +0.000 C 
ATOM      3  O   UNL     1       5.110  -6.997  -3.952  0.00  0.00    +0.000 OA
ATOM      4  C   UNL     1       4.541  -6.231  -6.281  0.00  0.00    +0.000 C 
ATOM      5  C   UNL     1       5.305  -7.282  -6.945  0.00  0.00    +0.000 A 
ATOM      6  C   UNL     1       4.737  -8.433  -7.873  0.00  0.00    +0.000 A 
ATOM      7  C   UNL     1       5.567  -9.526  -8.134  0.00  0.00    +0.000 A 
ATOM      8 CL   UNL     1       5.027 -11.204  -7.627  0.00  0.00    +0.000 Cl
ATOM      9  C   UNL     1       6.924  -9.204  -7.908  0.00  0.00    +0.000 A 
ATOM     10  C   UNL     1       7.428  -7.897  -7.101  0.00  0.00    +0.000 A 
ATOM     11  C   UNL     1       6.587  -7.024  -6.277  0.00  0.00    +0.000 A 
ENDROOT
BRANCH   4  12
ATOM     12  C   UNL     1       3.214  -6.757  -5.905  0.00  0.00    +0.000 A 
ATOM     13  C   UNL     1       2.195  -5.803  -5.842  0.00  0.00    +0.000 A 
ATOM     14  C   UNL     1       0.930  -6.157  -5.468  0.00  0.00    +0.000 A 
ATOM     15  C   UNL     1       0.651  -7.510  -5.399  0.00  0.00    +0.000 A 
ATOM     16  C   UNL     1       1.676  -8.476  -5.440  0.00  0.00    +0.000 A 
ATOM     17  C   UNL     1       3.015  -8.116  -5.498  0.00  0.00    +0.000 A 
BRANCH  17  18
ATOM     18  O   UNL     1       3.881  -9.186  -5.232  0.00  0.00    +0.000 OA
ATOM     19  C   UNL     1       5.318  -9.303  -5.156  0.00  0.00    +0.000 C 
ENDBRANCH  17  18
ENDBRANCH   4  12
BRANCH   4  20
ATOM     20  N   UNL     1       4.825  -5.011  -7.193  0.00  0.00    +0.000 NA
ATOM     21  C   UNL     1       6.018  -5.062  -8.153  0.00  0.00    +0.000 C 
ATOM     22  C   UNL     1       7.145  -4.176  -7.601  0.00  0.00    +0.000 C 
ATOM     23  C   UNL     1       6.307  -3.056  -7.023  0.00  0.00    +0.000 C 
ATOM     24  C   UNL     1       4.972  -3.683  -6.533  0.00  0.00    +0.000 C 
BRANCH  24  25
ATOM     25  C   UNL     1       3.715  -2.863  -6.899  0.00  0.00    +0.000 C 
ATOM     26  O   UNL     1       3.025  -3.184  -7.871  0.00  0.00    +0.000 OA
ATOM     27  N   UNL     1       3.270  -1.867  -6.026  0.00  0.00    +0.000 N 
ATOM     28  C   UNL     1       4.215  -1.327  -4.956  0.00  0.00    +0.000 C 
ATOM     29  C   UNL     1       1.731  -1.585  -6.171  0.00  0.00    +0.000 C 
ENDBRANCH  24  25
BRANCH  22  30
ATOM     30  O   UNL     1       8.070  -4.722  -6.667  0.00  0.00    +0.000 OA
ATOM     31  H   UNL     1       7.615  -4.909  -5.820  0.00  0.00    +0.000 HD
ENDBRANCH  22  30
ENDBRANCH   4  20
BRANCH   1  32
ATOM     32  S   UNL     1       6.119  -4.788  -3.024  0.00  0.00    +0.000 S 
ATOM     33  O   UNL     1       7.345  -4.032  -2.875  0.00  0.00    +0.000 OA
ATOM     34  O   UNL     1       5.793  -5.852  -2.077  0.00  0.00    +0.000 OA
BRANCH  32  38
ATOM     35  C   UNL     1       3.213  -1.105  -0.558  0.00  0.00    +0.000 A 
ATOM     36  C   UNL     1       4.393  -1.636  -0.066  0.00  0.00    +0.000 A 
ATOM     37  C   UNL     1       5.238  -2.638  -0.823  0.00  0.00    +0.000 A 
ATOM     38  C   UNL     1       4.871  -3.263  -2.073  0.00  0.00    +0.000 A 
ATOM     39  C   UNL     1       3.553  -2.907  -2.319  0.00  0.00    +0.000 A 
ATOM     40  C   UNL     1       2.824  -1.734  -1.698  0.00  0.00    +0.000 A 
BRANCH  35  42
ATOM     41  C   UNL     1       1.119   0.007  -0.073  0.00  0.00    +0.000 C 
ATOM     42  O   UNL     1       2.561  -0.050   0.026  0.00  0.00    +0.000 OA
ENDBRANCH  35  42
BRANCH  39  43
ATOM     43  O   UNL     1       2.901  -3.668  -3.213  0.00  0.00    +0.000 OA
ATOM     44  C   UNL     1       1.909  -2.902  -3.814  0.00  0.00    +0.000 C 
ENDBRANCH  39  43
ENDBRANCH  32  38
ENDBRANCH   1  32
TORSDOF 9
