REMARK  Name = CHEMBL401960
REMARK  12 active torsions:
REMARK  status: ('A' for Active; 'I' for Inactive)
REMARK    1  A    between atoms: CD1_1  and  CG_2
REMARK    2  A    between atoms: CG_2  and  CD2_3
REMARK    3  A    between atoms: CG_2  and  CB_4
REMARK    4  A    between atoms: CB_4  and  CA_5
REMARK    5  A    between atoms: C_9  and  C_10
REMARK    6  A    between atoms: N_21  and  C_22
REMARK    7  A    between atoms: C_22  and  C_23
REMARK    8  A    between atoms: C_22  and  C_29
REMARK    9  A    between atoms: N_25  and  C_26
REMARK   10  A    between atoms: C_26  and  C_27
REMARK   11  A    between atoms: C_26  and  C_28
REMARK   12  A    between atoms: C_32  and  C_33
REMARK                            x       y       z     vdW  Elec       q    Type
REMARK                         _______ _______ _______ _____ _____    ______ ____
ROOT
ATOM      1  CA  LEU A   2       4.744   0.486  -1.289  0.00  0.00    +0.000 C 
ATOM      2  C   LEU A   2       5.137   1.641  -2.237  0.00  0.00    +0.000 C 
ATOM      3  O   LEU A   2       4.486   2.619  -2.515  0.00  0.00    +0.000 OA
ATOM      4  N   UNK A   1       6.396   1.506  -2.715  0.00  0.00    +0.000 N 
ATOM      5  C   UNK A   1       7.273   0.433  -2.313  0.00  0.00    +0.000 C 
ATOM      6  C   UNK A   1       6.518  -0.894  -2.331  0.00  0.00    +0.000 C 
ATOM      7  O   UNK A   1       7.155  -1.901  -2.592  0.00  0.00    +0.000 OA
ATOM      8  N   LEU A   2       5.164  -0.829  -1.965  0.00  0.00    +0.000 N 
ATOM      9  H   UNK A   1       6.688   2.283  -3.294  0.00  0.00    +0.000 HD
ENDROOT
BRANCH   5  10
ATOM     10  C   UNK A   1       8.463   0.255  -3.280  0.00  0.00    +0.000 C 
ATOM     11  C   UNK A   1       9.336   1.512  -3.297  0.00  0.00    +0.000 C 
ATOM     12  C   UNK A   1       8.697   2.284  -4.411  0.00  0.00    +0.000 A 
ATOM     13  C   UNK A   1       8.703   3.653  -4.591  0.00  0.00    +0.000 A 
ATOM     14  C   UNK A   1       7.921   4.184  -5.617  0.00  0.00    +0.000 A 
ATOM     15  C   UNK A   1       7.139   3.350  -6.435  0.00  0.00    +0.000 A 
ATOM     16  C   UNK A   1       7.124   1.969  -6.238  0.00  0.00    +0.000 A 
ATOM     17  C   UNK A   1       7.915   1.451  -5.228  0.00  0.00    +0.000 A 
ATOM     18  C   UNK A   1       7.974   0.035  -4.743  0.00  0.00    +0.000 C 
ENDBRANCH   5  10
BRANCH   1  19
ATOM     19  CB  LEU A   2       3.272   0.684  -1.083  0.00  0.00    +0.000 C 
BRANCH  19  21
ATOM     20  CD1 LEU A   2       1.066   0.117   0.085  0.00  0.00    +0.000 C 
ATOM     21  CG  LEU A   2       2.600   0.102   0.158  0.00  0.00    +0.000 C 
ATOM     22  CD2 LEU A   2       3.015  -1.307   0.536  0.00  0.00    +0.000 C 
ENDBRANCH  19  21
ENDBRANCH   1  19
BRANCH   8  23
ATOM     23  C   UNK A   0       4.219  -2.001  -2.309  0.00  0.00    +0.000 C 
BRANCH  23  24
ATOM     24  C   UNK A   0       4.965  -3.293  -2.632  0.00  0.00    +0.000 A 
ATOM     25  C   UNK A   0       5.927  -4.016  -1.937  0.00  0.00    +0.000 A 
ATOM     26  C   UNK A   0       6.458  -4.953  -2.850  0.00  0.00    +0.000 A 
ATOM     27  C   UNK A   0       5.673  -4.882  -3.979  0.00  0.00    +0.000 A 
ATOM     28  O   UNK A   0       4.764  -3.881  -3.845  0.00  0.00    +0.000 OA
BRANCH  27  29
ATOM     29  C   UNK A   0       5.681  -5.647  -5.241  0.00  0.00    +0.000 C 
ATOM     30  F   UNK A   0       4.539  -6.362  -5.414  0.00  0.00    +0.000 F 
ATOM     31  F   UNK A   0       5.847  -4.872  -6.342  0.00  0.00    +0.000 F 
ATOM     32  F   UNK A   0       6.701  -6.550  -5.247  0.00  0.00    +0.000 F 
ENDBRANCH  27  29
ENDBRANCH  23  24
BRANCH  23  33
ATOM     33  C   UNK A   0       2.991  -1.777  -3.351  0.00  0.00    +0.000 C 
ATOM     34  O   UNK A   0       2.905  -2.321  -4.450  0.00  0.00    +0.000 OA
ATOM     35  N   UNK A   0       1.957  -0.931  -2.980  0.00  0.00    +0.000 N 
ATOM     36  H   UNK A   0       1.750  -0.790  -2.013  0.00  0.00    +0.000 HD
BRANCH  35  37
ATOM     37  C   UNK A   0       0.927  -0.390  -3.843  0.00  0.00    +0.000 C 
ATOM     38  C   UNK A   0      -0.084  -1.504  -3.951  0.00  0.00    +0.000 C 
ATOM     39  C   UNK A   0       0.272   0.880  -3.254  0.00  0.00    +0.000 C 
ENDBRANCH  35  37
ENDBRANCH  23  33
ENDBRANCH   8  23
TORSDOF 8
