REMARK  Name = CHEMBL105406
REMARK  8 active torsions:
REMARK  status: ('A' for Active; 'I' for Inactive)
REMARK    1  A    between atoms: C_1  and  O_2
REMARK    2  A    between atoms: O_2  and  C_3
REMARK    3  A    between atoms: C_5  and  O_6
REMARK    4  A    between atoms: O_6  and  C_7
REMARK    5  A    between atoms: C_7  and  C_8
REMARK    6  A    between atoms: C_7  and  C_9
REMARK    7  A    between atoms: C_17  and  C_18
REMARK    8  A    between atoms: C_23  and  N_24
REMARK                            x       y       z     vdW  Elec       q    Type
REMARK                         _______ _______ _______ _____ _____    ______ ____
ROOT
ATOM      1  C   UNL     1       1.408   0.212  -2.706  0.00  0.00    +0.000 C 
ATOM      2  O   UNL     1       1.077   0.017  -3.881  0.00  0.00    +0.000 OA
ATOM      3  N   UNL     1       0.619   1.061  -1.878  0.00  0.00    +0.000 N 
ATOM      4  C   UNL     1      -0.805   0.665  -1.640  0.00  0.00    +0.000 C 
ATOM      5  C   UNL     1      -1.714   1.844  -1.460  0.00  0.00    +0.000 C 
ATOM      6  C   UNL     1      -1.318   2.615   0.072  0.00  0.00    +0.000 C 
ATOM      7  C   UNL     1       0.234   3.131  -0.578  0.00  0.00    +0.000 C 
ATOM      8  C   UNL     1       1.198   2.010  -0.903  0.00  0.00    +0.000 C 
ENDROOT
BRANCH   6   9
ATOM      9  N   UNL     1      -2.218   1.885   1.522  0.00  0.00    +0.000 N 
ATOM     10  C   UNL     1      -3.315   2.626   0.983  0.00  0.00    +0.000 C 
ATOM     11  O   UNL     1      -3.809   2.550  -0.193  0.00  0.00    +0.000 OA
ATOM     12  O   UNL     1      -3.728   3.663   1.678  0.00  0.00    +0.000 OA
ATOM     13  C   UNL     1      -4.734   3.001   2.343  0.00  0.00    +0.000 C 
ATOM     14  C   UNL     1      -3.861   2.804   3.495  0.00  0.00    +0.000 A 
ATOM     15  C   UNL     1      -4.062   3.578   4.686  0.00  0.00    +0.000 A 
ATOM     16  C   UNL     1      -3.757   3.144   5.955  0.00  0.00    +0.000 A 
ATOM     17  C   UNL     1      -3.555   1.797   5.968  0.00  0.00    +0.000 A 
ATOM     18  C   UNL     1      -3.103   1.143   4.615  0.00  0.00    +0.000 A 
ATOM     19  C   UNL     1      -2.795   1.945   3.287  0.00  0.00    +0.000 A 
ENDBRANCH   6   9
BRANCH   1  25
ATOM     20  C   UNL     1       2.982  -0.793  -0.828  0.00  0.00    +0.000 A 
ATOM     21  C   UNL     1       4.094  -1.590  -0.500  0.00  0.00    +0.000 A 
ATOM     22  C   UNL     1       4.830  -2.249  -1.472  0.00  0.00    +0.000 A 
ATOM     23  C   UNL     1       4.337  -2.245  -2.765  0.00  0.00    +0.000 A 
ATOM     24  C   UNL     1       3.290  -1.384  -3.128  0.00  0.00    +0.000 A 
ATOM     25  C   UNL     1       2.587  -0.606  -2.171  0.00  0.00    +0.000 A 
BRANCH  20  27
ATOM     26  C   UNL     1       1.095  -0.538   0.507  0.00  0.00    +0.000 C 
ATOM     27  O   UNL     1       2.462  -0.240   0.315  0.00  0.00    +0.000 OA
ENDBRANCH  20  27
BRANCH  22  28
ATOM     28  O   UNL     1       6.020  -2.792  -1.074  0.00  0.00    +0.000 OA
BRANCH  28  29
ATOM     29  C   UNL     1       6.897  -3.314  -2.089  0.00  0.00    +0.000 C 
ATOM     30  C   UNL     1       7.333  -2.292  -3.158  0.00  0.00    +0.000 C 
BRANCH  29  31
ATOM     31  C   UNL     1       8.140  -3.834  -1.394  0.00  0.00    +0.000 A 
ATOM     32  C   UNL     1       9.140  -2.978  -0.910  0.00  0.00    +0.000 A 
ATOM     33  C   UNL     1      10.270  -3.501  -0.296  0.00  0.00    +0.000 A 
ATOM     34  C   UNL     1      10.362  -4.874  -0.167  0.00  0.00    +0.000 A 
ATOM     35  N   UNL     1       9.431  -5.738  -0.627  0.00  0.00    +0.000 NA
ATOM     36  C   UNL     1       8.345  -5.200  -1.228  0.00  0.00    +0.000 A 
ENDBRANCH  29  31
ENDBRANCH  28  29
ENDBRANCH  22  28
ENDBRANCH   1  25
TORSDOF 6
