REMARK  Name = CHEMBL603205
REMARK  6 active torsions:
REMARK  status: ('A' for Active; 'I' for Inactive)
REMARK    1  A    between atoms: C_1  and  O_2
REMARK    2  A    between atoms: O_2  and  C_3
REMARK    3  A    between atoms: C_6  and  N_7
REMARK    4  A    between atoms: C_8  and  C_9
REMARK    5  A    between atoms: C_16  and  O_17
REMARK    6  A    between atoms: O_17  and  C_18
REMARK                            x       y       z     vdW  Elec       q    Type
REMARK                         _______ _______ _______ _____ _____    ______ ____
ROOT
ATOM      1  N   UNL     1       5.130  -4.338  -2.349  0.00  0.00    +0.000 N 
ATOM      2  C   UNL     1       5.386  -5.626  -1.872  0.00  0.00    +0.000 A 
ATOM      3  C   UNL     1       4.834  -6.312  -0.668  0.00  0.00    +0.000 C 
ATOM      4  N   UNL     1       6.127  -6.265  -2.759  0.00  0.00    +0.000 NA
ATOM      5  N   UNL     1       6.333  -5.450  -3.838  0.00  0.00    +0.000 NA
ATOM      6  C   UNL     1       5.777  -4.278  -3.599  0.00  0.00    +0.000 A 
ATOM      7  N   UNL     1       5.802  -3.176  -4.387  0.00  0.00    +0.000 N 
ATOM      8  C   UNL     1       6.334  -1.893  -3.994  0.00  0.00    +0.000 C 
ATOM      9  C   UNL     1       5.418  -0.986  -4.800  0.00  0.00    +0.000 C 
ATOM     10  C   UNL     1       5.432  -1.629  -6.199  0.00  0.00    +0.000 C 
ATOM     11  C   UNL     1       5.519  -3.166  -5.828  0.00  0.00    +0.000 C 
ENDROOT
BRANCH   1  15
ATOM     12  C   UNL     1       3.008  -1.131  -0.700  0.00  0.00    +0.000 A 
ATOM     13  C   UNL     1       2.690  -1.535  -1.986  0.00  0.00    +0.000 A 
ATOM     14  C   UNL     1       3.358  -2.642  -2.526  0.00  0.00    +0.000 A 
ATOM     15  C   UNL     1       4.333  -3.307  -1.774  0.00  0.00    +0.000 A 
ATOM     16  C   UNL     1       4.613  -2.807  -0.513  0.00  0.00    +0.000 A 
ATOM     17  N   UNL     1       3.974  -1.733   0.031  0.00  0.00    +0.000 NA
BRANCH  12  19
ATOM     18  C   UNL     1       1.019  -0.046  -0.103  0.00  0.00    +0.000 C 
ATOM     19  O   UNL     1       2.445  -0.021  -0.122  0.00  0.00    +0.000 OA
ENDBRANCH  12  19
ENDBRANCH   1  15
BRANCH  10  20
ATOM     20  O   UNL     1       6.548  -1.264  -7.047  0.00  0.00    +0.000 OA
BRANCH  20  21
ATOM     21  C   UNL     1       6.597   0.040  -7.482  0.00  0.00    +0.000 A 
ATOM     22  C   UNL     1       6.615   0.321  -8.851  0.00  0.00    +0.000 A 
ATOM     23  C   UNL     1       6.852   1.633  -9.301  0.00  0.00    +0.000 A 
ATOM     24  C   UNL     1       6.992   2.682  -8.391  0.00  0.00    +0.000 A 
ATOM     25  C   UNL     1       6.980   2.407  -7.033  0.00  0.00    +0.000 A 
ATOM     26  C   UNL     1       6.862   1.088  -6.601  0.00  0.00    +0.000 A 
ENDBRANCH  20  21
ENDBRANCH  10  20
TORSDOF 4
