REMARK  Name = CHEMBL30315
REMARK  8 active torsions:
REMARK  status: ('A' for Active; 'I' for Inactive)
REMARK    1  A    between atoms: C_1  and  N_2
REMARK    2  A    between atoms: N_2  and  C_3
REMARK    3  A    between atoms: N_2  and  S_33
REMARK    4  A    between atoms: C_3  and  C_4
REMARK    5  A    between atoms: C_4  and  N_5
REMARK    6  A    between atoms: C_10  and  C_11
REMARK    7  A    between atoms: C_16  and  N_17
REMARK    8  A    between atoms: S_33  and  C_34
REMARK                            x       y       z     vdW  Elec       q    Type
REMARK                         _______ _______ _______ _____ _____    ______ ____
ROOT
ATOM      1  C   UNL     1       5.732   2.838  -8.199  0.00  0.00    +0.000 C 
ATOM      2  O   UNL     1       5.909   4.014  -8.525  0.00  0.00    +0.000 OA
ATOM      3  N   UNL     1       6.294   1.752  -8.957  0.00  0.00    +0.000 N 
ATOM      4  C   UNL     1       7.736   1.682  -9.241  0.00  0.00    +0.000 C 
ATOM      5  C   UNL     1       8.071   1.249 -10.694  0.00  0.00    +0.000 C 
ATOM      6  C   UNL     1       7.477  -0.395 -11.104  0.00  0.00    +0.000 C 
ATOM      7  C   UNL     1       5.843   0.101 -10.847  0.00  0.00    +0.000 C 
ATOM      8  C   UNL     1       5.551   0.558  -9.385  0.00  0.00    +0.000 C 
ENDROOT
BRANCH   6   9
ATOM      9  N   UNL     1       8.450  -1.972 -11.306  0.00  0.00    +0.000 N 
ATOM     10  C   UNL     1       9.502  -1.087 -11.646  0.00  0.00    +0.000 C 
ATOM     11  O   UNL     1       9.519  -0.183 -12.538  0.00  0.00    +0.000 OA
ATOM     12  O   UNL     1      10.440  -1.032 -10.721  0.00  0.00    +0.000 OA
ATOM     13  C   UNL     1      11.350  -1.864 -11.323  0.00  0.00    +0.000 C 
ATOM     14  C   UNL     1      10.951  -3.068 -10.591  0.00  0.00    +0.000 A 
ATOM     15  C   UNL     1      12.223  -3.806 -10.139  0.00  0.00    +0.000 A 
ATOM     16  C   UNL     1      12.402  -5.150 -10.016  0.00  0.00    +0.000 A 
ATOM     17  C   UNL     1      11.240  -5.763 -10.416  0.00  0.00    +0.000 A 
ATOM     18  C   UNL     1       9.840  -4.928 -10.792  0.00  0.00    +0.000 A 
ATOM     19  C   UNL     1       9.560  -3.367 -10.757  0.00  0.00    +0.000 A 
ENDBRANCH   6   9
BRANCH   1  25
ATOM     20  N   UNL     1       2.965   2.148  -3.211  0.00  0.00    +0.000 N 
ATOM     21  C   UNL     1       2.603   3.448  -2.943  0.00  0.00    +0.000 A 
ATOM     22  C   UNL     1       3.072   4.241  -3.961  0.00  0.00    +0.000 A 
ATOM     23  C   UNL     1       3.732   3.404  -4.906  0.00  0.00    +0.000 A 
ATOM     24  C   UNL     1       4.386   3.646  -6.153  0.00  0.00    +0.000 A 
ATOM     25  C   UNL     1       4.963   2.584  -6.897  0.00  0.00    +0.000 A 
ATOM     26  C   UNL     1       4.894   1.311  -6.339  0.00  0.00    +0.000 A 
ATOM     27  C   UNL     1       4.242   1.035  -5.119  0.00  0.00    +0.000 A 
ATOM     28  C   UNL     1       3.661   2.095  -4.408  0.00  0.00    +0.000 A 
BRANCH  20  29
ATOM     29  C   UNL     1       2.537   1.039  -2.361  0.00  0.00    +0.000 C 
BRANCH  29  30
ATOM     30  C   UNL     1       2.994   1.209  -0.902  0.00  0.00    +0.000 C 
BRANCH  30  32
ATOM     31  C   UNL     1       0.971   0.061   0.004  0.00  0.00    +0.000 C 
ATOM     32  N   UNL     1       2.446   0.176   0.035  0.00  0.00    +0.000 NA
BRANCH  32  33
ATOM     33  S   UNL     1       3.101   0.238   1.628  0.00  0.00    +0.000 S 
ATOM     34  C   UNL     1       2.480   1.801   2.252  0.00  0.00    +0.000 C 
ATOM     35  O   UNL     1       2.486  -0.820   2.400  0.00  0.00    +0.000 OA
ATOM     36  O   UNL     1       4.539   0.343   1.514  0.00  0.00    +0.000 OA
ENDBRANCH  32  33
ENDBRANCH  30  32
ENDBRANCH  29  30
ENDBRANCH  20  29
ENDBRANCH   1  25
TORSDOF 6
