REMARK  Name = CHEMBL1807273
REMARK  10 active torsions:
REMARK  status: ('A' for Active; 'I' for Inactive)
REMARK    1  A    between atoms: C_1  and  N_2
REMARK    2  A    between atoms: N_2  and  C_3
REMARK    3  A    between atoms: N_2  and  C_4
REMARK    4  A    between atoms: C_7  and  N_8
REMARK    5  A    between atoms: C_9  and  C_11
REMARK    6  A    between atoms: C_11  and  C_12
REMARK    7  A    between atoms: C_11  and  N_20
REMARK    8  A    between atoms: C_12  and  C_13
REMARK    9  A    between atoms: C_21  and  C_23
REMARK   10  A    between atoms: C_23  and  C_24
REMARK                            x       y       z     vdW  Elec       q    Type
REMARK                         _______ _______ _______ _____ _____    ______ ____
ROOT
ATOM      1  C   UNL     1       4.036   3.447   3.294  0.00  0.00    +0.000 C 
ENDROOT
BRANCH   1   3
ATOM      2  N   UNL     1       4.126   3.779   0.758  0.00  0.00    +0.000 N 
ATOM      3  C   UNL     1       3.718   2.997   1.840  0.00  0.00    +0.000 C 
ATOM      4  O   UNL     1       3.169   1.892   1.758  0.00  0.00    +0.000 OA
ATOM      5  H   UNL     1       5.098   4.010   0.780  0.00  0.00    +0.000 HD
BRANCH   2   9
ATOM      6  C   UNL     1       2.869   1.118  -0.817  0.00  0.00    +0.000 C 
ATOM      7  C   UNL     1       4.401   1.343  -0.588  0.00  0.00    +0.000 C 
ATOM      8  C   UNL     1       4.823   2.652  -1.232  0.00  0.00    +0.000 C 
ATOM      9  C   UNL     1       3.911   3.732  -0.690  0.00  0.00    +0.000 C 
ATOM     10  C   UNL     1       2.445   3.635  -1.035  0.00  0.00    +0.000 C 
ATOM     11  C   UNL     1       1.898   2.330  -0.503  0.00  0.00    +0.000 C 
BRANCH   6  13
ATOM     12  C   UNL     1       1.507  -0.052  -2.396  0.00  0.00    +0.000 C 
ATOM     13  N   UNL     1       2.665   0.826  -2.259  0.00  0.00    +0.000 NA
ATOM     14  C   UNL     1       3.807   0.194  -2.924  0.00  0.00    +0.000 C 
ENDBRANCH   6  13
ENDBRANCH   2   9
ENDBRANCH   1   3
BRANCH   1  15
ATOM     15  N   UNL     1       3.424   2.387   4.099  0.00  0.00    +0.000 N 
ATOM     16  C   UNL     1       3.552   2.323   5.460  0.00  0.00    +0.000 C 
ATOM     17  O   UNL     1       4.230   3.079   6.119  0.00  0.00    +0.000 OA
ATOM     18  H   UNL     1       2.834   1.723   3.595  0.00  0.00    +0.000 HD
BRANCH  16  19
ATOM     19  C   UNL     1       2.660   1.294   6.106  0.00  0.00    +0.000 C 
ATOM     20  C   UNL     1       3.213  -0.117   6.262  0.00  0.00    +0.000 C 
ATOM     21  C   UNL     1       3.115   0.768   7.466  0.00  0.00    +0.000 C 
BRANCH  19  22
ATOM     22  C   UNL     1       1.186   1.605   5.829  0.00  0.00    +0.000 A 
ATOM     23  C   UNL     1       0.620   2.781   6.373  0.00  0.00    +0.000 A 
ATOM     24  C   UNL     1      -0.561   3.334   5.867  0.00  0.00    +0.000 A 
ATOM     25  C   UNL     1      -1.206   2.708   4.812  0.00  0.00    +0.000 A 
ATOM     26  F   UNL     1      -2.316   3.254   4.298  0.00  0.00    +0.000 F 
ATOM     27  C   UNL     1      -0.695   1.540   4.262  0.00  0.00    +0.000 A 
ATOM     28  C   UNL     1       0.484   0.984   4.777  0.00  0.00    +0.000 A 
ENDBRANCH  19  22
ENDBRANCH  16  19
ENDBRANCH   1  15
BRANCH   1  29
ATOM     29  C   UNL     1       3.485   4.842   3.693  0.00  0.00    +0.000 C 
BRANCH  29  30
ATOM     30  C   UNL     1       4.219   6.016   3.083  0.00  0.00    +0.000 A 
ATOM     31  C   UNL     1       4.204   7.323   3.511  0.00  0.00    +0.000 A 
ATOM     32  C   UNL     1       4.895   8.300   2.756  0.00  0.00    +0.000 A 
ATOM     33  C   UNL     1       5.464   8.001   1.510  0.00  0.00    +0.000 A 
ATOM     34 CL   UNL     1       6.294   9.169   0.570  0.00  0.00    +0.000 Cl
ATOM     35  C   UNL     1       5.511   6.702   1.102  0.00  0.00    +0.000 A 
ATOM     36  C   UNL     1       5.094   5.788   2.041  0.00  0.00    +0.000 A 
ENDBRANCH  29  30
ENDBRANCH   1  29
TORSDOF 8
