REMARK  Name = CHEMBL473442
REMARK  6 active torsions:
REMARK  status: ('A' for Active; 'I' for Inactive)
REMARK    1  A    between atoms: C_2  and  C_3
REMARK    2  A    between atoms: C_6  and  C_7
REMARK    3  A    between atoms: N_16  and  C_17
REMARK    4  A    between atoms: N_16  and  C_21
REMARK    5  A    between atoms: C_17  and  C_18
REMARK    6  A    between atoms: C_21  and  C_22
REMARK                            x       y       z     vdW  Elec       q    Type
REMARK                         _______ _______ _______ _____ _____    ______ ____
ROOT
ATOM      1  O   UNL     1       1.285  -0.197  -0.628  0.00  0.00    +0.000 OA
ATOM      2  C   UNL     1       2.414  -0.050  -0.141  0.00  0.00    +0.000 C 
ATOM      3  N   UNL     1       2.933  -0.215   1.159  0.00  0.00    +0.000 N 
ENDROOT
BRANCH   2   4
ATOM      4  C   UNL     1       3.219   0.397  -1.236  0.00  0.00    +0.000 A 
ATOM      5  C   UNL     1       4.230  -0.434  -1.674  0.00  0.00    +0.000 A 
ATOM      6  C   UNL     1       4.927  -0.049  -2.785  0.00  0.00    +0.000 A 
ATOM      7  C   UNL     1       4.462   1.022  -3.569  0.00  0.00    +0.000 A 
ATOM      8  C   UNL     1       3.355   1.783  -3.176  0.00  0.00    +0.000 A 
ATOM      9  C   UNL     1       2.734   1.478  -1.990  0.00  0.00    +0.000 A 
BRANCH   7  10
ATOM     10  C   UNL     1       5.137   1.300  -4.814  0.00  0.00    +0.000 A 
ATOM     11  C   UNL     1       5.279   0.290  -5.776  0.00  0.00    +0.000 A 
ATOM     12  C   UNL     1       6.060   0.510  -6.901  0.00  0.00    +0.000 A 
ATOM     13  C   UNL     1       6.626   1.768  -7.107  0.00  0.00    +0.000 A 
ATOM     14  C   UNL     1       6.449   2.784  -6.168  0.00  0.00    +0.000 A 
ATOM     15 CL   UNL     1       7.191   4.316  -6.394  0.00  0.00    +0.000 Cl
ATOM     16  C   UNL     1       5.710   2.555  -5.021  0.00  0.00    +0.000 A 
ENDBRANCH   7  10
ENDBRANCH   2   4
BRANCH   3  17
ATOM     17  C   UNL     1       2.133  -0.487   2.387  0.00  0.00    +0.000 C 
BRANCH  17  18
ATOM     18  C   UNL     1       0.636  -0.434   2.353  0.00  0.00    +0.000 C 
ATOM     19  C   UNL     1      -0.051   0.485   1.398  0.00  0.00    +0.000 C 
ATOM     20  C   UNL     1      -0.073  -1.052   1.202  0.00  0.00    +0.000 C 
ENDBRANCH  17  18
ENDBRANCH   3  17
BRANCH   3  21
ATOM     21  C   UNL     1       4.404  -0.174   1.358  0.00  0.00    +0.000 C 
BRANCH  21  22
ATOM     22  C   UNL     1       4.971  -0.495   2.749  0.00  0.00    +0.000 C 
ATOM     23  C   UNL     1       6.393   0.005   2.932  0.00  0.00    +0.000 C 
ATOM     24  C   UNL     1       6.960  -0.999   3.902  0.00  0.00    +0.000 C 
ATOM     25  C   UNL     1       6.282  -2.286   3.492  0.00  0.00    +0.000 C 
ATOM     26  O   UNL     1       5.011  -1.925   2.939  0.00  0.00    +0.000 OA
ENDBRANCH  21  22
ENDBRANCH   3  21
TORSDOF 6
