REMARK  Name = CHEMBL378718
REMARK  8 active torsions:
REMARK  status: ('A' for Active; 'I' for Inactive)
REMARK    1  A    between atoms: CD1_1  and  CG_2
REMARK    2  A    between atoms: CG_2  and  CD2_3
REMARK    3  A    between atoms: CG_2  and  CB_4
REMARK    4  A    between atoms: CB_4  and  CA_5
REMARK    5  A    between atoms: C_9  and  C_10
REMARK    6  A    between atoms: N_21  and  C_22
REMARK    7  A    between atoms: C_22  and  C_23
REMARK    8  A    between atoms: C_22  and  C_29
REMARK                            x       y       z     vdW  Elec       q    Type
REMARK                         _______ _______ _______ _____ _____    ______ ____
ROOT
ATOM      1  CA  LEU A   2       4.927  -1.039   0.570  0.00  0.00    +0.000 C 
ATOM      2  C   LEU A   2       5.222  -2.418   1.276  0.00  0.00    +0.000 C 
ATOM      3  O   LEU A   2       4.559  -3.427   1.270  0.00  0.00    +0.000 OA
ATOM      4  N   UNK A   1       6.438  -2.420   1.890  0.00  0.00    +0.000 N 
ATOM      5  C   UNK A   1       7.363  -1.329   1.696  0.00  0.00    +0.000 C 
ATOM      6  C   UNK A   1       6.644  -0.019   1.979  0.00  0.00    +0.000 C 
ATOM      7  O   UNK A   1       7.274   0.894   2.466  0.00  0.00    +0.000 OA
ATOM      8  N   LEU A   2       5.296  -0.007   1.600  0.00  0.00    +0.000 N 
ATOM      9  H   UNK A   1       6.703  -3.311   2.294  0.00  0.00    +0.000 HD
ENDROOT
BRANCH   5  10
ATOM     10  C   UNK A   1       8.529  -1.349   2.693  0.00  0.00    +0.000 C 
ATOM     11  C   UNK A   1       9.381  -2.595   2.477  0.00  0.00    +0.000 C 
ATOM     12  C   UNK A   1       8.724  -3.549   3.426  0.00  0.00    +0.000 A 
ATOM     13  C   UNK A   1       8.721  -4.926   3.350  0.00  0.00    +0.000 A 
ATOM     14  C   UNK A   1       7.932  -5.632   4.259  0.00  0.00    +0.000 A 
ATOM     15  C   UNK A   1       7.149  -4.958   5.212  0.00  0.00    +0.000 A 
ATOM     16  C   UNK A   1       7.139  -3.565   5.270  0.00  0.00    +0.000 A 
ATOM     17  C   UNK A   1       7.940  -2.875   4.377  0.00  0.00    +0.000 A 
ATOM     18  C   UNK A   1       8.012  -1.396   4.163  0.00  0.00    +0.000 C 
ENDBRANCH   5  10
BRANCH   1  19
ATOM     19  CB  LEU A   2       3.499  -1.032   0.123  0.00  0.00    +0.000 C 
BRANCH  19  21
ATOM     20  CD1 LEU A   2       1.145   0.009  -0.458  0.00  0.00    +0.000 C 
ATOM     21  CG  LEU A   2       2.683   0.041  -0.622  0.00  0.00    +0.000 C 
ATOM     22  CD2 LEU A   2       2.996   1.442  -0.176  0.00  0.00    +0.000 C 
ENDBRANCH  19  21
ENDBRANCH   1  19
BRANCH   8  23
ATOM     23  C   UNK A   0       4.309   0.845   2.399  0.00  0.00    +0.000 C 
BRANCH  23  24
ATOM     24  C   UNK A   0       4.986   2.150   3.003  0.00  0.00    +0.000 A 
ATOM     25  C   UNK A   0       5.916   2.967   2.254  0.00  0.00    +0.000 A 
ATOM     26  C   UNK A   0       6.712   3.928   2.900  0.00  0.00    +0.000 A 
ATOM     27  C   UNK A   0       6.459   4.208   4.232  0.00  0.00    +0.000 A 
ATOM     28  F   UNK A   0       7.225   5.083   4.893  0.00  0.00    +0.000 F 
ATOM     29  C   UNK A   0       5.443   3.561   4.911  0.00  0.00    +0.000 A 
ATOM     30  C   UNK A   0       4.753   2.525   4.311  0.00  0.00    +0.000 A 
ATOM     31  F   UNK A   0       3.912   1.853   5.089  0.00  0.00    +0.000 F 
ENDBRANCH  23  24
BRANCH  23  32
ATOM     32  C   UNK A   0       2.732   0.334   3.066  0.00  0.00    +0.000 C 
ATOM     33  O   UNK A   0       2.181   1.061   3.910  0.00  0.00    +0.000 OA
ATOM     34  N   UNK A   0       1.847  -0.660   2.574  0.00  0.00    +0.000 N 
ATOM     35  C   UNK A   0       0.378  -0.761   2.741  0.00  0.00    +0.000 C 
ATOM     36  C   UNK A   0       0.545  -2.285   2.633  0.00  0.00    +0.000 C 
ATOM     37  C   UNK A   0       1.855  -2.014   1.986  0.00  0.00    +0.000 C 
ENDBRANCH  23  32
ENDBRANCH   8  23
TORSDOF 6
