REMARK  Name = CHEMBL32740
REMARK  3 active torsions:
REMARK  status: ('A' for Active; 'I' for Inactive)
REMARK    1  A    between atoms: C_1  and  C_2
REMARK    2  A    between atoms: C_6  and  C_7
REMARK    3  A    between atoms: C_12  and  N_13
REMARK                            x       y       z     vdW  Elec       q    Type
REMARK                         _______ _______ _______ _____ _____    ______ ____
ROOT
ATOM      1  C   UNL     1       3.912  -1.420  -0.064  0.00  0.00    +0.000 C 
ATOM      2  O   UNL     1       3.907  -2.642  -0.207  0.00  0.00    +0.000 OA
ATOM      3  N   UNL     1       5.090  -0.693  -0.158  0.00  0.00    +0.000 N 
ATOM      4  C   UNL     1       5.937  -0.898  -1.324  0.00  0.00    +0.000 C 
ATOM      5  C   UNL     1       7.334  -1.327  -0.931  0.00  0.00    +0.000 C 
ATOM      6  C   UNL     1       7.951  -0.344   0.082  0.00  0.00    +0.000 C 
ATOM      7  C   UNL     1       7.028  -0.190   1.300  0.00  0.00    +0.000 C 
ATOM      8  C   UNL     1       5.596   0.163   0.914  0.00  0.00    +0.000 C 
ENDROOT
BRANCH   1  14
ATOM      9  C   UNL     1      -3.479   0.015  -0.001  0.00  0.00    +0.000 C 
ATOM     10  C   UNL     1      -1.997  -0.072   0.003  0.00  0.00    +0.000 A 
ATOM     11  C   UNL     1      -1.179  -1.182   0.023  0.00  0.00    +0.000 A 
ATOM     12  C   UNL     1       0.172  -0.743   0.028  0.00  0.00    +0.000 A 
ATOM     13  C   UNL     1       1.417  -1.409   0.038  0.00  0.00    +0.000 A 
ATOM     14  C   UNL     1       2.614  -0.669   0.035  0.00  0.00    +0.000 A 
ATOM     15  C   UNL     1       2.546   0.729   0.005  0.00  0.00    +0.000 A 
ATOM     16  C   UNL     1       1.320   1.413   0.012  0.00  0.00    +0.000 A 
ATOM     17  C   UNL     1       0.148   0.650   0.014  0.00  0.00    +0.000 A 
ATOM     18  N   UNL     1      -1.178   1.034  -0.010  0.00  0.00    +0.000 N 
ATOM     19  H   UNL     1      -1.495   1.995  -0.035  0.00  0.00    +0.000 HD
ENDBRANCH   1  14
BRANCH   6  20
ATOM     20  N   UNL     1       8.425   0.932  -0.553  0.00  0.00    +0.000 N 
ATOM     21  C   UNL     1       7.594   1.840  -1.214  0.00  0.00    +0.000 C 
ATOM     22  O   UNL     1       6.493   2.246  -0.865  0.00  0.00    +0.000 OA
ATOM     23  O   UNL     1       8.071   2.230  -2.423  0.00  0.00    +0.000 OA
ATOM     24  C   UNL     1       9.242   3.004  -2.280  0.00  0.00    +0.000 C 
ATOM     25  C   UNL     1      10.227   2.328  -1.381  0.00  0.00    +0.000 A 
ATOM     26  C   UNL     1      11.551   2.774  -1.368  0.00  0.00    +0.000 A 
ATOM     27  C   UNL     1      12.472   2.178  -0.518  0.00  0.00    +0.000 A 
ATOM     28  C   UNL     1      12.071   1.147   0.325  0.00  0.00    +0.000 A 
ATOM     29  C   UNL     1      10.748   0.699   0.317  0.00  0.00    +0.000 A 
ATOM     30  C   UNL     1       9.811   1.279  -0.542  0.00  0.00    +0.000 A 
ENDBRANCH   6  20
TORSDOF 2
