REMARK  Name = CHEMBL285012
REMARK  9 active torsions:
REMARK  status: ('A' for Active; 'I' for Inactive)
REMARK    1  A    between atoms: C_1  and  N_2
REMARK    2  A    between atoms: N_2  and  C_3
REMARK    3  A    between atoms: N_2  and  S_34
REMARK    4  A    between atoms: C_3  and  C_4
REMARK    5  A    between atoms: C_4  and  C_5
REMARK    6  A    between atoms: C_5  and  N_6
REMARK    7  A    between atoms: C_11  and  C_12
REMARK    8  A    between atoms: C_17  and  N_18
REMARK    9  A    between atoms: S_34  and  C_35
REMARK                            x       y       z     vdW  Elec       q    Type
REMARK                         _______ _______ _______ _____ _____    ______ ____
ROOT
ATOM      1  C   UNL     1       2.198   3.651   7.800  0.00  0.00    +0.000 C 
ATOM      2  O   UNL     1       1.897   3.498   8.985  0.00  0.00    +0.000 OA
ATOM      3  N   UNL     1       2.659   4.897   7.303  0.00  0.00    +0.000 N 
ATOM      4  C   UNL     1       3.783   5.524   7.979  0.00  0.00    +0.000 C 
ATOM      5  C   UNL     1       3.534   6.987   8.279  0.00  0.00    +0.000 C 
ATOM      6  C   UNL     1       3.549   7.900   6.761  0.00  0.00    +0.000 C 
ATOM      7  C   UNL     1       2.067   7.121   6.315  0.00  0.00    +0.000 C 
ATOM      8  C   UNL     1       2.194   5.605   6.096  0.00  0.00    +0.000 C 
ENDROOT
BRANCH   6   9
ATOM      9  N   UNL     1       5.244   8.346   6.157  0.00  0.00    +0.000 N 
ATOM     10  C   UNL     1       5.227   9.245   7.273  0.00  0.00    +0.000 C 
ATOM     11  O   UNL     1       4.940   9.042   8.485  0.00  0.00    +0.000 OA
ATOM     12  O   UNL     1       5.276  10.514   6.954  0.00  0.00    +0.000 OA
ATOM     13  C   UNL     1       6.628  10.655   7.133  0.00  0.00    +0.000 C 
ATOM     14  C   UNL     1       6.863  10.590   5.698  0.00  0.00    +0.000 A 
ATOM     15  C   UNL     1       7.667  11.795   5.271  0.00  0.00    +0.000 A 
ATOM     16  C   UNL     1       8.307  11.928   4.082  0.00  0.00    +0.000 A 
ATOM     17  C   UNL     1       8.424  10.678   3.527  0.00  0.00    +0.000 A 
ATOM     18  C   UNL     1       7.580   9.376   4.084  0.00  0.00    +0.000 A 
ATOM     19  C   UNL     1       6.397   9.360   5.099  0.00  0.00    +0.000 A 
ENDBRANCH   6   9
BRANCH   1  25
ATOM     20  N   UNL     1       2.594  -1.177   4.790  0.00  0.00    +0.000 N 
ATOM     21  C   UNL     1       2.123  -2.092   5.702  0.00  0.00    +0.000 A 
ATOM     22  C   UNL     1       1.815  -1.415   6.861  0.00  0.00    +0.000 A 
ATOM     23  C   UNL     1       2.068  -0.030   6.647  0.00  0.00    +0.000 A 
ATOM     24  C   UNL     1       1.933   1.139   7.449  0.00  0.00    +0.000 A 
ATOM     25  C   UNL     1       2.258   2.418   6.933  0.00  0.00    +0.000 A 
ATOM     26  C   UNL     1       2.763   2.491   5.647  0.00  0.00    +0.000 A 
ATOM     27  C   UNL     1       2.929   1.357   4.853  0.00  0.00    +0.000 A 
ATOM     28  C   UNL     1       2.564   0.095   5.345  0.00  0.00    +0.000 A 
BRANCH  20  29
ATOM     29  C   UNL     1       3.057  -1.549   3.456  0.00  0.00    +0.000 C 
BRANCH  29  30
ATOM     30  C   UNL     1       2.540  -0.629   2.365  0.00  0.00    +0.000 C 
BRANCH  30  31
ATOM     31  C   UNL     1       3.040  -1.018   0.987  0.00  0.00    +0.000 C 
BRANCH  31  33
ATOM     32  C   UNL     1       1.043   0.053  -0.040  0.00  0.00    +0.000 C 
ATOM     33  N   UNL     1       2.516  -0.096  -0.058  0.00  0.00    +0.000 NA
BRANCH  33  34
ATOM     34  S   UNL     1       3.178  -0.345  -1.621  0.00  0.00    +0.000 S 
ATOM     35  C   UNL     1       2.557  -1.975  -2.028  0.00  0.00    +0.000 C 
ATOM     36  O   UNL     1       2.566   0.606  -2.523  0.00  0.00    +0.000 OA
ATOM     37  O   UNL     1       4.616  -0.436  -1.488  0.00  0.00    +0.000 OA
ENDBRANCH  33  34
ENDBRANCH  31  33
ENDBRANCH  30  31
ENDBRANCH  29  30
ENDBRANCH  20  29
ENDBRANCH   1  25
TORSDOF 7
