REMARK  Name = CHEMBL1643586
REMARK  14 active torsions:
REMARK  status: ('A' for Active; 'I' for Inactive)
REMARK    1  A    between atoms: C_1  and  C_2
REMARK    2  A    between atoms: C_2  and  N_3
REMARK    3  A    between atoms: N_3  and  C_4
REMARK    4  A    between atoms: N_3  and  C_6
REMARK    5  A    between atoms: C_4  and  C_5
REMARK    6  A    between atoms: C_6  and  C_7
REMARK    7  A    between atoms: C_10  and  C_11
REMARK    8  A    between atoms: C_13  and  C_14
REMARK    9  A    between atoms: C_14  and  N_15
REMARK   10  A    between atoms: N_15  and  C_16
REMARK   11  A    between atoms: N_15  and  S_21
REMARK   12  A    between atoms: S_21  and  C_24
REMARK   13  A    between atoms: C_27  and  O_28
REMARK   14  A    between atoms: O_28  and  C_29
REMARK                            x       y       z     vdW  Elec       q    Type
REMARK                         _______ _______ _______ _____ _____    ______ ____
ROOT
ATOM      1  C   UNL     1       9.139   1.046  -9.285  0.00  0.00    +0.000 C 
ENDROOT
BRANCH   1   4
ATOM      2  C   UNL     1       6.549   0.081  -6.860  0.00  0.00    +0.000 A 
ATOM      3  N   UNL     1       7.546   0.839  -7.284  0.00  0.00    +0.000 NA
ATOM      4  C   UNL     1       7.826   0.596  -8.637  0.00  0.00    +0.000 A 
ATOM      5  C   UNL     1       6.895  -0.233  -9.245  0.00  0.00    +0.000 A 
ATOM      6  S   UNL     1       5.740  -0.791  -8.105  0.00  0.00    +0.000 S 
BRANCH   2  10
ATOM      7  C   UNL     1       4.992  -0.006  -2.859  0.00  0.00    +0.000 A 
ATOM      8  C   UNL     1       5.210  -1.209  -3.536  0.00  0.00    +0.000 A 
ATOM      9  C   UNL     1       5.805  -1.203  -4.807  0.00  0.00    +0.000 A 
ATOM     10  C   UNL     1       6.072   0.009  -5.471  0.00  0.00    +0.000 A 
ATOM     11  C   UNL     1       5.846   1.207  -4.789  0.00  0.00    +0.000 A 
ATOM     12  C   UNL     1       5.326   1.199  -3.497  0.00  0.00    +0.000 A 
BRANCH   7  13
ATOM     13  C   UNL     1       4.383   0.028  -1.470  0.00  0.00    +0.000 C 
BRANCH  13  14
ATOM     14  N   UNL     1       2.895   0.064  -1.448  0.00  0.00    +0.000 NA
BRANCH  14  16
ATOM     15  C   UNL     1       0.964  -0.110   0.194  0.00  0.00    +0.000 C 
ATOM     16  C   UNL     1       2.463   0.040  -0.032  0.00  0.00    +0.000 C 
ENDBRANCH  14  16
BRANCH  14  17
ATOM     17  C   UNL     1       2.414   1.254  -2.184  0.00  0.00    +0.000 C 
ATOM     18  C   UNL     1       0.917   1.355  -2.423  0.00  0.00    +0.000 C 
ENDBRANCH  14  17
ENDBRANCH  13  14
ENDBRANCH   7  13
ENDBRANCH   2  10
ENDBRANCH   1   4
BRANCH   1  19
ATOM     19  N   UNL     1      10.212   1.469  -8.307  0.00  0.00    +0.000 NA
BRANCH  19  20
ATOM     20  C   UNL     1      10.425   0.461  -7.191  0.00  0.00    +0.000 C 
ATOM     21  C   UNL     1       9.919  -0.959  -7.453  0.00  0.00    +0.000 C 
ATOM     22  C   UNL     1      10.645  -1.869  -6.492  0.00  0.00    +0.000 C 
ATOM     23  C   UNL     1      11.988  -1.238  -6.289  0.00  0.00    +0.000 C 
ATOM     24  C   UNL     1      11.863   0.132  -6.892  0.00  0.00    +0.000 C 
ENDBRANCH  19  20
BRANCH  19  25
ATOM     25  S   UNL     1      11.553   2.222  -9.125  0.00  0.00    +0.000 S 
ATOM     26  O   UNL     1      12.368   1.169  -9.717  0.00  0.00    +0.000 OA
ATOM     27  O   UNL     1      11.004   3.235  -9.993  0.00  0.00    +0.000 OA
BRANCH  25  28
ATOM     28  C   UNL     1      12.532   3.091  -7.873  0.00  0.00    +0.000 A 
ATOM     29  C   UNL     1      13.462   2.476  -7.028  0.00  0.00    +0.000 A 
ATOM     30  C   UNL     1      13.899   3.113  -5.860  0.00  0.00    +0.000 A 
ATOM     31  C   UNL     1      13.721   4.480  -5.724  0.00  0.00    +0.000 A 
ATOM     32  C   UNL     1      12.984   5.157  -6.696  0.00  0.00    +0.000 A 
ATOM     33  C   UNL     1      12.365   4.465  -7.747  0.00  0.00    +0.000 A 
BRANCH  31  34
ATOM     34  O   UNL     1      14.347   5.048  -4.649  0.00  0.00    +0.000 OA
ATOM     35  C   UNL     1      14.402   6.470  -4.657  0.00  0.00    +0.000 C 
ENDBRANCH  31  34
ENDBRANCH  25  28
ENDBRANCH  19  25
ENDBRANCH   1  19
TORSDOF 11
