REMARK  Name = CHEMBL456263
REMARK  11 active torsions:
REMARK  status: ('A' for Active; 'I' for Inactive)
REMARK    1  A    between atoms: C_1  and  O_2
REMARK    2  A    between atoms: O_2  and  C_3
REMARK    3  A    between atoms: C_6  and  N_7
REMARK    4  A    between atoms: N_7  and  C_8
REMARK    5  A    between atoms: N_7  and  S_22
REMARK    6  A    between atoms: C_8  and  C_9
REMARK    7  A    between atoms: C_12  and  C_13
REMARK    8  A    between atoms: C_18  and  C_19
REMARK    9  A    between atoms: S_22  and  C_25
REMARK   10  A    between atoms: N_27  and  C_28
REMARK   11  A    between atoms: C_29  and  C_30
REMARK                            x       y       z     vdW  Elec       q    Type
REMARK                         _______ _______ _______ _____ _____    ______ ____
ROOT
ATOM      1  N   UNL     1       4.882   4.729  -1.328  0.00  0.00    +0.000 N 
ENDROOT
BRANCH   1   5
ATOM      2  C   UNL     1       2.798   1.200  -0.205  0.00  0.00    +0.000 A 
ATOM      3  C   UNL     1       2.491   2.370   0.471  0.00  0.00    +0.000 A 
ATOM      4  C   UNL     1       3.145   3.568   0.120  0.00  0.00    +0.000 A 
ATOM      5  C   UNL     1       4.060   3.586  -0.925  0.00  0.00    +0.000 A 
ATOM      6  C   UNL     1       4.053   2.404  -1.655  0.00  0.00    +0.000 A 
ATOM      7  N   UNL     1       3.554   1.195  -1.294  0.00  0.00    +0.000 NA
BRANCH   2   9
ATOM      8  C   UNL     1       0.885  -0.027   0.022  0.00  0.00    +0.000 C 
ATOM      9  O   UNL     1       2.300  -0.023   0.135  0.00  0.00    +0.000 OA
ENDBRANCH   2   9
ENDBRANCH   1   5
BRANCH   1  10
ATOM     10  S   UNL     1       4.540   6.263  -0.634  0.00  0.00    +0.000 S 
ATOM     11  O   UNL     1       3.206   6.612  -1.065  0.00  0.00    +0.000 OA
ATOM     12  O   UNL     1       4.874   6.211   0.784  0.00  0.00    +0.000 OA
BRANCH  10  13
ATOM     13  C   UNL     1       5.541   7.598  -1.236  0.00  0.00    +0.000 A 
ATOM     14  C   UNL     1       6.751   7.545  -1.898  0.00  0.00    +0.000 A 
ATOM     15  N   UNL     1       7.107   8.835  -2.164  0.00  0.00    +0.000 N 
ATOM     16  C   UNL     1       8.303   9.225  -2.873  0.00  0.00    +0.000 C 
ATOM     17  C   UNL     1       6.138   9.657  -1.655  0.00  0.00    +0.000 A 
ATOM     18  C   UNL     1       6.183  11.136  -1.785  0.00  0.00    +0.000 C 
ATOM     19  N   UNL     1       5.190   8.942  -1.075  0.00  0.00    +0.000 NA
ENDBRANCH  10  13
ENDBRANCH   1  10
BRANCH   1  20
ATOM     20  C   UNL     1       6.178   4.589  -2.075  0.00  0.00    +0.000 C 
BRANCH  20  21
ATOM     21  C   UNL     1       6.714   3.242  -2.543  0.00  0.00    +0.000 A 
ATOM     22  C   UNL     1       6.993   3.016  -3.889  0.00  0.00    +0.000 A 
ATOM     23  C   UNL     1       7.001   1.699  -4.346  0.00  0.00    +0.000 A 
ATOM     24  C   UNL     1       6.698   0.648  -3.471  0.00  0.00    +0.000 A 
ATOM     25  C   UNL     1       6.587   0.975  -2.129  0.00  0.00    +0.000 A 
ATOM     26  N   UNL     1       6.699   2.235  -1.642  0.00  0.00    +0.000 NA
BRANCH  24  27
ATOM     27  C   UNL     1       6.667  -0.752  -3.890  0.00  0.00    +0.000 A 
ATOM     28  C   UNL     1       5.476  -1.506  -3.902  0.00  0.00    +0.000 A 
ATOM     29  C   UNL     1       5.504  -2.867  -4.220  0.00  0.00    +0.000 A 
ATOM     30  C   UNL     1       6.715  -3.484  -4.528  0.00  0.00    +0.000 A 
ATOM     31  C   UNL     1       7.899  -2.749  -4.513  0.00  0.00    +0.000 A 
ATOM     32  C   UNL     1       7.888  -1.389  -4.193  0.00  0.00    +0.000 A 
ATOM     33  C   UNL     1       9.182  -0.621  -4.118  0.00  0.00    +0.000 C 
ENDBRANCH  24  27
ENDBRANCH  20  21
ENDBRANCH   1  20
TORSDOF 7
