REMARK  Name = CHEMBL143341
REMARK  8 active torsions:
REMARK  status: ('A' for Active; 'I' for Inactive)
REMARK    1  A    between atoms: C_1  and  C_2
REMARK    2  A    between atoms: N_4  and  C_5
REMARK    3  A    between atoms: C_5  and  C_6
REMARK    4  A    between atoms: C_6  and  C_7
REMARK    5  A    between atoms: C_7  and  O_8
REMARK    6  A    between atoms: O_8  and  C_9
REMARK    7  A    between atoms: C_12  and  C_13
REMARK    8  A    between atoms: C_18  and  N_19
REMARK                            x       y       z     vdW  Elec       q    Type
REMARK                         _______ _______ _______ _____ _____    ______ ____
ROOT
ATOM      1  C   UNL     1      12.815  -4.749  -1.790  0.00  0.00    +0.000 C 
ATOM      2  O   UNL     1      13.274  -5.153  -2.862  0.00  0.00    +0.000 OA
ATOM      3  N   UNL     1      13.675  -4.356  -0.685  0.00  0.00    +0.000 N 
ATOM      4  C   UNL     1      14.747  -3.356  -0.842  0.00  0.00    +0.000 C 
ATOM      5  C   UNL     1      16.108  -3.736  -0.145  0.00  0.00    +0.000 C 
ATOM      6  C   UNL     1      16.083  -3.911   1.721  0.00  0.00    +0.000 C 
ATOM      7  C   UNL     1      14.861  -5.214   1.452  0.00  0.00    +0.000 C 
ATOM      8  C   UNL     1      13.520  -4.787   0.711  0.00  0.00    +0.000 C 
ENDROOT
BRANCH   6   9
ATOM      9  N   UNL     1      16.803  -2.853   3.097  0.00  0.00    +0.000 N 
ATOM     10  C   UNL     1      17.529  -2.370   1.956  0.00  0.00    +0.000 C 
ATOM     11  O   UNL     1      18.300  -2.914   1.169  0.00  0.00    +0.000 OA
ATOM     12  N   UNL     1      17.005  -1.164   1.679  0.00  0.00    +0.000 N 
ATOM     13  C   UNL     1      18.061  -0.438   2.231  0.00  0.00    +0.000 C 
ATOM     14  C   UNL     1      17.345  -0.030   3.425  0.00  0.00    +0.000 A 
ATOM     15  C   UNL     1      17.506   1.511   3.569  0.00  0.00    +0.000 A 
ATOM     16  C   UNL     1      17.656   2.225   4.708  0.00  0.00    +0.000 A 
ATOM     17  C   UNL     1      17.663   1.302   5.723  0.00  0.00    +0.000 A 
ATOM     18  C   UNL     1      17.415  -0.386   5.489  0.00  0.00    +0.000 A 
ATOM     19  C   UNL     1      17.042  -1.213   4.158  0.00  0.00    +0.000 A 
ATOM     20  H   UNL     1      16.151  -1.196   2.281  0.00  0.00    +0.000 HD
ENDBRANCH   6   9
BRANCH   1  24
ATOM     21  C   UNL     1       8.503  -3.831  -1.758  0.00  0.00    +0.000 A 
ATOM     22  C   UNL     1       9.075  -4.462  -2.864  0.00  0.00    +0.000 A 
ATOM     23  C   UNL     1      10.439  -4.866  -2.838  0.00  0.00    +0.000 A 
ATOM     24  C   UNL     1      11.289  -4.550  -1.744  0.00  0.00    +0.000 A 
ATOM     25  C   UNL     1      10.689  -3.899  -0.672  0.00  0.00    +0.000 A 
ATOM     26  C   UNL     1       9.322  -3.560  -0.666  0.00  0.00    +0.000 A 
BRANCH  21  27
ATOM     27  O   UNL     1       7.146  -3.622  -1.768  0.00  0.00    +0.000 OA
BRANCH  27  28
ATOM     28  C   UNL     1       6.682  -2.422  -1.129  0.00  0.00    +0.000 C 
BRANCH  28  29
ATOM     29  C   UNL     1       5.147  -2.413  -1.113  0.00  0.00    +0.000 C 
BRANCH  29  30
ATOM     30  C   UNL     1       4.600  -1.112  -0.525  0.00  0.00    +0.000 C 
BRANCH  30  34
ATOM     31  C   UNL     1       0.982   0.009  -0.023  0.00  0.00    +0.000 C 
ATOM     32  C   UNL     1       2.493   0.058  -0.001  0.00  0.00    +0.000 C 
ATOM     33  O   UNL     1       3.095   1.035   0.436  0.00  0.00    +0.000 OA
ATOM     34  N   UNL     1       3.143  -1.056  -0.496  0.00  0.00    +0.000 N 
ATOM     35  H   UNL     1       2.608  -1.840  -0.849  0.00  0.00    +0.000 HD
ENDBRANCH  30  34
ENDBRANCH  29  30
ENDBRANCH  28  29
ENDBRANCH  27  28
ENDBRANCH  21  27
ENDBRANCH   1  24
TORSDOF 7
