REMARK  Name = CHEMBL31986
REMARK  4 active torsions:
REMARK  status: ('A' for Active; 'I' for Inactive)
REMARK    1  A    between atoms: C_1  and  C_2
REMARK    2  A    between atoms: C_4  and  C_5
REMARK    3  A    between atoms: C_12  and  C_13
REMARK    4  A    between atoms: C_18  and  N_19
REMARK                            x       y       z     vdW  Elec       q    Type
REMARK                         _______ _______ _______ _____ _____    ______ ____
ROOT
ATOM      1  C   UNL     1      -0.340  -2.579   0.012  0.00  0.00    +0.000 C 
ATOM      2  O   UNL     1       0.614  -3.349   0.145  0.00  0.00    +0.000 OA
ATOM      3  N   UNL     1      -1.633  -3.123   0.029  0.00  0.00    +0.000 N 
ATOM      4  C   UNL     1      -2.050  -3.940   1.164  0.00  0.00    +0.000 C 
ATOM      5  C   UNL     1      -2.596  -5.283   0.708  0.00  0.00    +0.000 C 
ATOM      6  C   UNL     1      -3.722  -5.120  -0.335  0.00  0.00    +0.000 C 
ATOM      7  C   UNL     1      -3.203  -4.296  -1.522  0.00  0.00    +0.000 C 
ATOM      8  C   UNL     1      -2.579  -2.990  -1.076  0.00  0.00    +0.000 C 
ENDROOT
BRANCH   6   9
ATOM      9  N   UNL     1      -5.025  -4.676   0.277  0.00  0.00    +0.000 N 
ATOM     10  C   UNL     1      -5.209  -3.482   0.977  0.00  0.00    +0.000 C 
ATOM     11  O   UNL     1      -4.878  -2.351   0.639  0.00  0.00    +0.000 OA
ATOM     12  O   UNL     1      -5.774  -3.656   2.196  0.00  0.00    +0.000 OA
ATOM     13  C   UNL     1      -7.123  -4.042   2.053  0.00  0.00    +0.000 C 
ATOM     14  C   UNL     1      -7.244  -5.200   1.112  0.00  0.00    +0.000 A 
ATOM     15  C   UNL     1      -8.435  -5.927   1.086  0.00  0.00    +0.000 A 
ATOM     16  C   UNL     1      -8.576  -6.986   0.201  0.00  0.00    +0.000 A 
ATOM     17  C   UNL     1      -7.533  -7.310  -0.664  0.00  0.00    +0.000 A 
ATOM     18  C   UNL     1      -6.338  -6.585  -0.642  0.00  0.00    +0.000 A 
ATOM     19  C   UNL     1      -6.177  -5.523   0.250  0.00  0.00    +0.000 A 
ENDBRANCH   6   9
BRANCH   1  25
ATOM     20  C   UNL     1      -2.599  -0.208   0.044  0.00  0.00    +0.000 C 
ATOM     21  C   UNL     1      -1.131  -0.088   0.011  0.00  0.00    +0.000 A 
ATOM     22  N   UNL     1      -0.633   1.203   0.036  0.00  0.00    +0.000 NA
ATOM     23  C   UNL     1       0.677   1.200  -0.004  0.00  0.00    +0.000 A 
ATOM     24  S   UNL     1       1.382  -0.373  -0.052  0.00  0.00    +0.000 S 
ATOM     25  C   UNL     1      -0.195  -1.113  -0.039  0.00  0.00    +0.000 A 
BRANCH  23  26
ATOM     26  C   UNL     1       1.471   2.440   0.015  0.00  0.00    +0.000 A 
ATOM     27  C   UNL     1       2.336   2.775  -1.028  0.00  0.00    +0.000 A 
ATOM     28  C   UNL     1       2.989   4.000  -0.987  0.00  0.00    +0.000 A 
ATOM     29  N   UNL     1       2.850   4.897   0.011  0.00  0.00    +0.000 NA
ATOM     30  C   UNL     1       2.001   4.566   1.005  0.00  0.00    +0.000 A 
ATOM     31  C   UNL     1       1.288   3.375   1.043  0.00  0.00    +0.000 A 
ENDBRANCH  23  26
ENDBRANCH   1  25
TORSDOF 3
