REMARK  Name = CHEMBL24456
REMARK  10 active torsions:
REMARK  status: ('A' for Active; 'I' for Inactive)
REMARK    1  A    between atoms: C_2  and  C_3
REMARK    2  A    between atoms: C_3  and  C_4
REMARK    3  A    between atoms: C_7  and  O_8
REMARK    4  A    between atoms: O_8  and  C_9
REMARK    5  A    between atoms: N_12  and  C_13
REMARK    6  A    between atoms: C_13  and  C_14
REMARK    7  A    between atoms: C_20  and  O_21
REMARK    8  A    between atoms: O_21  and  C_22
REMARK    9  A    between atoms: C_22  and  C_23
REMARK   10  A    between atoms: C_30  and  N_31
REMARK                            x       y       z     vdW  Elec       q    Type
REMARK                         _______ _______ _______ _____ _____    ______ ____
ROOT
ATOM      1  C   UNL     1       2.036  -1.393  -1.715  0.00  0.00    +0.000 A 
ATOM      2  C   UNL     1       0.989  -0.924  -2.559  0.00  0.00    +0.000 A 
ATOM      3  C   UNL     1      -0.002  -1.775  -3.139  0.00  0.00    +0.000 A 
ATOM      4  C   UNL     1       0.031  -3.138  -2.885  0.00  0.00    +0.000 A 
ATOM      5  C   UNL     1       0.953  -3.540  -1.921  0.00  0.00    +0.000 A 
ATOM      6  C   UNL     1       2.061  -2.760  -1.461  0.00  0.00    +0.000 A 
ENDROOT
BRANCH   1   7
ATOM      7  C   UNL     1       2.946  -0.371  -1.032  0.00  0.00    +0.000 C 
BRANCH   7   9
ATOM      8  O   UNL     1       1.088   0.303   0.341  0.00  0.00    +0.000 OA
ATOM      9  C   UNL     1       2.297   0.401   0.127  0.00  0.00    +0.000 C 
ATOM     10  N   UNL     1       3.198   1.009   1.061  0.00  0.00    +0.000 N 
ATOM     11  C   UNL     1       4.274   1.907   0.637  0.00  0.00    +0.000 C 
ATOM     12  C   UNL     1       5.467   1.911   1.626  0.00  0.00    +0.000 C 
ATOM     13  C   UNL     1       5.062   2.543   3.247  0.00  0.00    +0.000 C 
ATOM     14  C   UNL     1       3.900   1.298   3.496  0.00  0.00    +0.000 C 
ATOM     15  C   UNL     1       2.741   1.280   2.438  0.00  0.00    +0.000 C 
BRANCH  13  16
ATOM     16  N   UNL     1       5.631   4.135   4.012  0.00  0.00    +0.000 N 
ATOM     17  C   UNL     1       6.722   3.982   3.090  0.00  0.00    +0.000 C 
ATOM     18  O   UNL     1       7.518   3.096   2.983  0.00  0.00    +0.000 OA
ATOM     19  O   UNL     1       6.572   4.854   2.065  0.00  0.00    +0.000 OA
ATOM     20  C   UNL     1       7.435   5.802   2.538  0.00  0.00    +0.000 C 
ATOM     21  C   UNL     1       6.416   6.671   3.140  0.00  0.00    +0.000 A 
ATOM     22  C   UNL     1       6.785   8.104   2.801  0.00  0.00    +0.000 A 
ATOM     23  C   UNL     1       6.676   9.186   3.618  0.00  0.00    +0.000 A 
ATOM     24  C   UNL     1       6.186   8.765   4.832  0.00  0.00    +0.000 A 
ATOM     25  C   UNL     1       5.731   7.199   5.140  0.00  0.00    +0.000 A 
ATOM     26  C   UNL     1       5.669   5.978   4.145  0.00  0.00    +0.000 A 
ENDBRANCH  13  16
ENDBRANCH   7   9
ENDBRANCH   1   7
BRANCH   4  27
ATOM     27  O   UNL     1      -0.791  -4.071  -3.505  0.00  0.00    +0.000 OA
BRANCH  27  28
ATOM     28  C   UNL     1      -0.215  -5.175  -4.311  0.00  0.00    +0.000 C 
ATOM     29  C   UNL     1      -0.126  -6.625  -3.748  0.00  0.00    +0.000 C 
ATOM     30  C   UNL     1       0.960  -6.839  -2.710  0.00  0.00    +0.000 C 
ATOM     31  N   UNL     1       2.264  -6.374  -3.223  0.00  0.00    +0.000 NA
ATOM     32  C   UNL     1       2.221  -5.090  -3.933  0.00  0.00    +0.000 C 
ATOM     33  C   UNL     1       1.120  -4.827  -4.918  0.00  0.00    +0.000 C 
BRANCH  31  34
ATOM     34  C   UNL     1       3.238  -6.378  -2.112  0.00  0.00    +0.000 C 
BRANCH  34  35
ATOM     35  C   UNL     1       4.630  -5.900  -2.472  0.00  0.00    +0.000 C 
ATOM     36  C   UNL     1       5.087  -5.736  -3.908  0.00  0.00    +0.000 C 
ATOM     37  C   UNL     1       4.960  -4.515  -3.044  0.00  0.00    +0.000 C 
ENDBRANCH  34  35
ENDBRANCH  31  34
ENDBRANCH  27  28
ENDBRANCH   4  27
BRANCH   6  38
ATOM     38  O   UNL     1       3.093  -3.523  -0.919  0.00  0.00    +0.000 OA
BRANCH  38  39
ATOM     39  C   UNL     1       4.324  -2.906  -0.501  0.00  0.00    +0.000 C 
BRANCH  39  40
ATOM     40  C   UNL     1       5.505  -3.717   0.035  0.00  0.00    +0.000 C 
ATOM     41  F   UNL     1       5.103  -4.656   0.909  0.00  0.00    +0.000 F 
ATOM     42  F   UNL     1       6.306  -4.297  -0.870  0.00  0.00    +0.000 F 
ATOM     43  F   UNL     1       6.318  -2.852   0.709  0.00  0.00    +0.000 F 
ENDBRANCH  39  40
ENDBRANCH  38  39
ENDBRANCH   6  38
TORSDOF 10
