REMARK  Name = CHEMBL30510
REMARK  7 active torsions:
REMARK  status: ('A' for Active; 'I' for Inactive)
REMARK    1  A    between atoms: C_2  and  C_3
REMARK    2  A    between atoms: C_3  and  N_4
REMARK    3  A    between atoms: C_7  and  C_8
REMARK    4  A    between atoms: N_17  and  C_18
REMARK    5  A    between atoms: C_18  and  C_19
REMARK    6  A    between atoms: C_23  and  C_24
REMARK    7  A    between atoms: C_29  and  N_30
REMARK                            x       y       z     vdW  Elec       q    Type
REMARK                         _______ _______ _______ _____ _____    ______ ____
ROOT
ATOM      1  C   UNL     1       5.274  -2.044  -1.994  0.00  0.00    +0.000 A 
ATOM      2  C   UNL     1       6.574  -1.747  -2.400  0.00  0.00    +0.000 A 
ATOM      3  C   UNL     1       6.868  -2.715  -3.395  0.00  0.00    +0.000 A 
ATOM      4  C   UNL     1       6.304  -2.960  -4.681  0.00  0.00    +0.000 A 
ATOM      5  C   UNL     1       6.325  -4.209  -5.339  0.00  0.00    +0.000 A 
ATOM      6  C   UNL     1       7.031  -5.223  -4.706  0.00  0.00    +0.000 A 
ATOM      7  C   UNL     1       7.303  -5.062  -3.318  0.00  0.00    +0.000 A 
ATOM      8  C   UNL     1       6.762  -3.891  -2.662  0.00  0.00    +0.000 A 
ATOM      9  O   UNL     1       5.296  -3.528  -2.139  0.00  0.00    +0.000 OA
ENDROOT
BRANCH   5  10
ATOM     10  C   UNL     1       5.462  -4.479  -6.558  0.00  0.00    +0.000 C 
ATOM     11  O   UNL     1       5.467  -5.612  -7.037  0.00  0.00    +0.000 OA
ATOM     12  N   UNL     1       4.608  -3.436  -7.021  0.00  0.00    +0.000 N 
ATOM     13  C   UNL     1       3.144  -3.569  -7.097  0.00  0.00    +0.000 C 
ATOM     14  C   UNL     1       2.567  -2.942  -8.391  0.00  0.00    +0.000 C 
ATOM     15  C   UNL     1       2.884  -1.168  -8.536  0.00  0.00    +0.000 C 
ATOM     16  C   UNL     1       4.582  -1.439  -8.558  0.00  0.00    +0.000 C 
ATOM     17  C   UNL     1       5.093  -2.080  -7.260  0.00  0.00    +0.000 C 
BRANCH  15  18
ATOM     18  N   UNL     1       1.699   0.264  -8.307  0.00  0.00    +0.000 N 
ATOM     19  C   UNL     1       0.734  -0.705  -8.690  0.00  0.00    +0.000 C 
ATOM     20  O   UNL     1       0.710  -1.440  -9.710  0.00  0.00    +0.000 OA
ATOM     21  O   UNL     1      -0.059  -1.045  -7.688  0.00  0.00    +0.000 OA
ATOM     22  C   UNL     1      -1.134  -0.260  -8.023  0.00  0.00    +0.000 C 
ATOM     23  C   UNL     1      -0.787   0.823  -7.100  0.00  0.00    +0.000 A 
ATOM     24  C   UNL     1      -2.047   1.247  -6.324  0.00  0.00    +0.000 A 
ATOM     25  C   UNL     1      -2.378   2.493  -5.879  0.00  0.00    +0.000 A 
ATOM     26  C   UNL     1      -1.404   3.356  -6.312  0.00  0.00    +0.000 A 
ATOM     27  C   UNL     1       0.011   2.843  -7.049  0.00  0.00    +0.000 A 
ATOM     28  C   UNL     1       0.510   1.360  -7.370  0.00  0.00    +0.000 A 
ENDBRANCH  15  18
ENDBRANCH   5  10
BRANCH   1  29
ATOM     29  C   UNL     1       4.451  -1.126  -1.005  0.00  0.00    +0.000 C 
BRANCH  29  32
ATOM     30  O   UNL     1       0.994  -0.171  -0.283  0.00  0.00    +0.000 OA
ATOM     31  C   UNL     1       2.225  -0.109  -0.189  0.00  0.00    +0.000 C 
ATOM     32  N   UNL     1       2.991  -0.974  -0.986  0.00  0.00    +0.000 N 
ATOM     33  H   UNL     1       2.418  -1.537  -1.602  0.00  0.00    +0.000 HD
BRANCH  31  34
ATOM     34  C   UNL     1       2.883   0.890   0.811  0.00  0.00    +0.000 C 
BRANCH  34  35
ATOM     35  N   UNL     1       1.950   1.744   1.620  0.00  0.00    +0.000 N 
ATOM     36  C   UNL     1       1.059   1.149   2.497  0.00  0.00    +0.000 A 
ATOM     37  C   UNL     1       0.500   1.839   3.497  0.00  0.00    +0.000 A 
ATOM     38  C   UNL     1       0.565   3.307   3.340  0.00  0.00    +0.000 A 
ATOM     39  N   UNL     1       1.327   3.898   2.476  0.00  0.00    +0.000 NA
ATOM     40  C   UNL     1       2.166   3.133   1.683  0.00  0.00    +0.000 A 
ATOM     41  O   UNL     1       3.083   3.654   1.052  0.00  0.00    +0.000 OA
BRANCH  38  42
ATOM     42  C   UNL     1      -0.361   4.098   4.215  0.00  0.00    +0.000 A 
ATOM     43  C   UNL     1      -1.297   4.985   3.664  0.00  0.00    +0.000 A 
ATOM     44  C   UNL     1      -2.031   5.844   4.497  0.00  0.00    +0.000 A 
ATOM     45  C   UNL     1      -1.934   5.725   5.882  0.00  0.00    +0.000 A 
ATOM     46  C   UNL     1      -1.121   4.736   6.431  0.00  0.00    +0.000 A 
ATOM     47  C   UNL     1      -0.285   3.974   5.606  0.00  0.00    +0.000 A 
ENDBRANCH  38  42
ENDBRANCH  34  35
ENDBRANCH  31  34
ENDBRANCH  29  32
ENDBRANCH   1  29
TORSDOF 7
