REMARK  Name = CHEMBL539665
REMARK  7 active torsions:
REMARK  status: ('A' for Active; 'I' for Inactive)
REMARK    1  A    between atoms: C_1  and  O_2
REMARK    2  A    between atoms: O_2  and  C_3
REMARK    3  A    between atoms: C_6  and  N_7
REMARK    4  A    between atoms: C_8  and  C_9
REMARK    5  A    between atoms: C_12  and  C_13
REMARK    6  A    between atoms: C_16  and  O_17
REMARK    7  A    between atoms: O_17  and  C_18
REMARK                            x       y       z     vdW  Elec       q    Type
REMARK                         _______ _______ _______ _____ _____    ______ ____
ROOT
ATOM      1  N   UNL     1       5.233   3.897   2.987  0.00  0.00    +0.000 N 
ATOM      2  C   UNL     1       5.465   5.234   2.684  0.00  0.00    +0.000 A 
ATOM      3  C   UNL     1       4.974   6.015   1.518  0.00  0.00    +0.000 C 
ATOM      4  N   UNL     1       6.122   5.790   3.685  0.00  0.00    +0.000 NA
ATOM      5  N   UNL     1       6.333   4.846   4.648  0.00  0.00    +0.000 NA
ATOM      6  C   UNL     1       5.818   3.698   4.237  0.00  0.00    +0.000 A 
ENDROOT
BRANCH   1  10
ATOM      7  C   UNL     1       3.166   1.004   0.796  0.00  0.00    +0.000 A 
ATOM      8  C   UNL     1       2.730   1.312   2.077  0.00  0.00    +0.000 A 
ATOM      9  C   UNL     1       3.419   2.278   2.816  0.00  0.00    +0.000 A 
ATOM     10  C   UNL     1       4.510   2.931   2.244  0.00  0.00    +0.000 A 
ATOM     11  C   UNL     1       4.907   2.541   0.975  0.00  0.00    +0.000 A 
ATOM     12  N   UNL     1       4.261   1.585   0.252  0.00  0.00    +0.000 NA
BRANCH   7  14
ATOM     13  C   UNL     1       1.164  -0.012   0.040  0.00  0.00    +0.000 C 
ATOM     14  O   UNL     1       2.590   0.029   0.022  0.00  0.00    +0.000 OA
ENDBRANCH   7  14
ENDBRANCH   1  10
BRANCH   6  15
ATOM     15  C   UNL     1       5.981   2.416   4.913  0.00  0.00    +0.000 A 
ATOM     16  C   UNL     1       6.716   1.376   4.346  0.00  0.00    +0.000 A 
ATOM     17  N   UNL     1       6.856   0.158   4.927  0.00  0.00    +0.000 NA
ATOM     18  C   UNL     1       6.261   0.013   6.132  0.00  0.00    +0.000 A 
ATOM     19  C   UNL     1       5.556   1.060   6.721  0.00  0.00    +0.000 A 
ATOM     20  N   UNL     1       5.390   2.275   6.126  0.00  0.00    +0.000 NA
BRANCH  18  21
ATOM     21  O   UNL     1       6.275  -1.204   6.802  0.00  0.00    +0.000 OA
BRANCH  21  22
ATOM     22  C   UNL     1       6.953  -2.259   6.232  0.00  0.00    +0.000 A 
ATOM     23  C   UNL     1       6.242  -3.445   6.022  0.00  0.00    +0.000 A 
ATOM     24  C   UNL     1       6.902  -4.585   5.556  0.00  0.00    +0.000 A 
ATOM     25  C   UNL     1       8.266  -4.533   5.268  0.00  0.00    +0.000 A 
ATOM     26  C   UNL     1       8.978  -3.354   5.488  0.00  0.00    +0.000 A 
ATOM     27  C   UNL     1       8.327  -2.224   5.992  0.00  0.00    +0.000 A 
ENDBRANCH  21  22
ENDBRANCH  18  21
ENDBRANCH   6  15
TORSDOF 5
