REMARK  Name = CHEMBL269012
REMARK  35 active torsions:
REMARK  status: ('A' for Active; 'I' for Inactive)
REMARK    1  A    between atoms: C_1  and  N_2
REMARK    2  A    between atoms: N_2  and  C_13
REMARK    3  A    between atoms: C_3  and  C_5
REMARK    4  A    between atoms: C_5  and  C_6
REMARK    5  A    between atoms: C_9  and  O_10
REMARK    6  A    between atoms: C_13  and  C_14
REMARK    7  A    between atoms: C_13  and  C_22
REMARK    8  A    between atoms: C_14  and  C_15
REMARK    9  A    between atoms: C_18  and  O_19
REMARK   10  A    between atoms: N_24  and  C_25
REMARK   11  A    between atoms: C_25  and  C_26
REMARK   12  A    between atoms: C_25  and  C_33
REMARK   13  A    between atoms: C_26  and  C_27
REMARK   14  A    between atoms: N_35  and  C_36
REMARK   15  A    between atoms: C_36  and  C_37
REMARK   16  A    between atoms: C_36  and  C_42
REMARK   17  A    between atoms: C_37  and  C_38
REMARK   18  A    between atoms: C_38  and  C_39
REMARK   19  A    between atoms: N_44  and  C_45
REMARK   20  A    between atoms: C_45  and  C_46
REMARK   21  A    between atoms: C_45  and  C_50
REMARK   22  A    between atoms: C_46  and  C_47
REMARK   23  A    between atoms: N_52  and  C_53
REMARK   24  A    between atoms: C_53  and  C_54
REMARK   25  A    between atoms: C_53  and  C_61
REMARK   26  A    between atoms: C_54  and  C_55
REMARK   27  A    between atoms: C_55  and  C_56
REMARK   28  A    between atoms: C_56  and  N_57
REMARK   29  A    between atoms: C_67  and  C_68
REMARK   30  A    between atoms: N_70  and  C_71
REMARK   31  A    between atoms: C_71  and  C_72
REMARK   32  A    between atoms: C_71  and  C_79
REMARK   33  A    between atoms: C_72  and  C_73
REMARK   34  A    between atoms: C_73  and  C_74
REMARK   35  A    between atoms: C_74  and  N_75
REMARK                            x       y       z     vdW  Elec       q    Type
REMARK                         _______ _______ _______ _____ _____    ______ ____
ROOT
ATOM      1  C   UNL     1      11.291   1.812  -3.867  0.00  0.00    +0.000 C 
ATOM      2  O   UNL     1      11.491   1.643  -2.661  0.00  0.00    +0.000 OA
ATOM      3  N   UNL     1      12.305   2.089  -4.772  0.00  0.00    +0.000 N 
ATOM      4  H   UNL     1      12.071   2.472  -5.688  0.00  0.00    +0.000 HD
ENDROOT
BRANCH   1   5
ATOM      5  C   UNL     1       9.805   1.867  -4.239  0.00  0.00    +0.000 C 
BRANCH   5   8
ATOM      6  C   UNL     1       7.659   1.099  -3.070  0.00  0.00    +0.000 C 
ATOM      7  O   UNL     1       6.988   1.215  -4.097  0.00  0.00    +0.000 OA
ATOM      8  N   UNL     1       9.028   1.311  -3.073  0.00  0.00    +0.000 N 
ATOM      9  H   UNL     1       9.595   1.074  -2.259  0.00  0.00    +0.000 HD
BRANCH   6  10
ATOM     10  C   UNL     1       6.962   0.715  -1.739  0.00  0.00    +0.000 C 
BRANCH  10  13
ATOM     11  C   UNL     1       4.497   0.429  -1.075  0.00  0.00    +0.000 C 
ATOM     12  O   UNL     1       4.688  -0.381  -0.156  0.00  0.00    +0.000 OA
ATOM     13  N   UNL     1       5.476   0.893  -1.908  0.00  0.00    +0.000 N 
ATOM     14  H   UNL     1       5.185   1.292  -2.803  0.00  0.00    +0.000 HD
BRANCH  11  15
ATOM     15  C   UNL     1       3.042   0.674  -1.253  0.00  0.00    +0.000 C 
BRANCH  15  17
ATOM     16  C   UNL     1       3.161   3.134  -0.628  0.00  0.00    +0.000 C 
ATOM     17  N   UNL     1       2.841   2.066  -1.638  0.00  0.00    +0.000 N 
ATOM     18  C   UNL     1       2.046   2.118  -2.789  0.00  0.00    +0.000 C 
ATOM     19  O   UNL     1       2.141   1.221  -3.634  0.00  0.00    +0.000 OA
BRANCH  18  20
ATOM     20  C   UNL     1       0.929   3.153  -2.891  0.00  0.00    +0.000 C 
BRANCH  20  21
ATOM     21  C   UNL     1       0.094   2.938  -4.119  0.00  0.00    +0.000 A 
ATOM     22  C   UNL     1       0.200   3.869  -5.142  0.00  0.00    +0.000 A 
ATOM     23  C   UNL     1      -0.510   3.682  -6.317  0.00  0.00    +0.000 A 
ATOM     24  C   UNL     1      -1.321   2.557  -6.461  0.00  0.00    +0.000 A 
ATOM     25  C   UNL     1      -1.446   1.620  -5.443  0.00  0.00    +0.000 A 
ATOM     26  C   UNL     1      -0.741   1.810  -4.260  0.00  0.00    +0.000 A 
BRANCH  24  27
ATOM     27  O   UNL     1      -2.020   2.330  -7.609  0.00  0.00    +0.000 OA
ATOM     28  H   UNL     1      -1.808   3.037  -8.238  0.00  0.00    +0.000 HD
ENDBRANCH  24  27
ENDBRANCH  20  21
ENDBRANCH  18  20
ENDBRANCH  15  17
BRANCH  15  29
ATOM     29  C   UNL     1       2.133   0.064  -0.040  0.00  0.00    +0.000 C 
BRANCH  29  30
ATOM     30  C   UNL     1       1.163   0.931   0.740  0.00  0.00    +0.000 A 
ATOM     31  C   UNL     1       0.675   2.086   0.179  0.00  0.00    +0.000 A 
ATOM     32  C   UNL     1       0.254   3.199   0.874  0.00  0.00    +0.000 A 
ATOM     33  C   UNL     1      -0.136   2.983   2.157  0.00  0.00    +0.000 A 
ATOM     34  C   UNL     1       0.020   1.710   2.708  0.00  0.00    +0.000 A 
ATOM     35  C   UNL     1       0.734   0.699   2.028  0.00  0.00    +0.000 A 
BRANCH  33  36
ATOM     36  O   UNL     1      -0.704   3.995   2.860  0.00  0.00    +0.000 OA
ATOM     37  H   UNL     1      -0.758   4.771   2.272  0.00  0.00    +0.000 HD
ENDBRANCH  33  36
ENDBRANCH  29  30
ENDBRANCH  15  29
ENDBRANCH  11  15
ENDBRANCH  10  13
BRANCH  10  38
ATOM     38  C   UNL     1       7.434  -0.715  -1.433  0.00  0.00    +0.000 C 
BRANCH  38  39
ATOM     39  C   UNL     1       7.033  -1.294  -0.099  0.00  0.00    +0.000 A 
ATOM     40  C   UNL     1       6.701  -0.478   1.009  0.00  0.00    +0.000 A 
ATOM     41  C   UNL     1       5.985  -1.007   2.087  0.00  0.00    +0.000 A 
ATOM     42  C   UNL     1       5.760  -2.375   2.150  0.00  0.00    +0.000 A 
ATOM     43  C   UNL     1       6.234  -3.210   1.135  0.00  0.00    +0.000 A 
ATOM     44  C   UNL     1       6.822  -2.673  -0.010  0.00  0.00    +0.000 A 
ENDBRANCH  38  39
ENDBRANCH  10  38
ENDBRANCH   6  10
ENDBRANCH   5   8
BRANCH   5  45
ATOM     45  C   UNL     1       9.557   3.362  -4.375  0.00  0.00    +0.000 C 
BRANCH  45  46
ATOM     46  C   UNL     1       8.098   3.663  -4.602  0.00  0.00    +0.000 C 
BRANCH  46  47
ATOM     47  C   UNL     1       7.732   5.088  -4.828  0.00  0.00    +0.000 C 
ATOM     48  N   UNL     1       8.729   6.001  -4.722  0.00  0.00    +0.000 N 
ATOM     49  O   UNL     1       6.572   5.430  -5.031  0.00  0.00    +0.000 OA
ATOM     50  H   UNL     1       9.691   5.774  -4.521  0.00  0.00    +0.000 HD
ATOM     51  H   UNL     1       8.476   6.971  -4.825  0.00  0.00    +0.000 HD
ENDBRANCH  46  47
ENDBRANCH  45  46
ENDBRANCH   5  45
ENDBRANCH   1   5
BRANCH   3  52
ATOM     52  C   UNL     1      13.817   1.992  -4.540  0.00  0.00    +0.000 C 
BRANCH  52  53
ATOM     53  C   UNL     1      14.598   2.379  -5.838  0.00  0.00    +0.000 C 
ATOM     54  O   UNL     1      13.954   2.432  -6.890  0.00  0.00    +0.000 OA
ATOM     55  N   UNL     1      15.976   2.630  -5.775  0.00  0.00    +0.000 N 
ATOM     56  H   UNL     1      16.535   2.318  -4.985  0.00  0.00    +0.000 HD
BRANCH  55  57
ATOM     57  C   UNL     1      16.782   3.214  -6.916  0.00  0.00    +0.000 C 
BRANCH  57  58
ATOM     58  C   UNL     1      18.367   3.041  -6.768  0.00  0.00    +0.000 C 
ATOM     59  O   UNL     1      18.790   2.352  -5.834  0.00  0.00    +0.000 OA
ATOM     60  N   UNL     1      19.221   3.470  -7.797  0.00  0.00    +0.000 N 
ATOM     61  C   UNL     1      19.248   4.743  -8.499  0.00  0.00    +0.000 C 
ATOM     62  C   UNL     1      19.852   4.370  -9.831  0.00  0.00    +0.000 C 
ATOM     63  C   UNL     1      20.990   3.455  -9.426  0.00  0.00    +0.000 C 
ATOM     64  C   UNL     1      20.515   2.803  -8.101  0.00  0.00    +0.000 C 
BRANCH  64  65
ATOM     65  C   UNL     1      21.649   3.134  -7.119  0.00  0.00    +0.000 C 
ATOM     66  O   UNL     1      21.590   4.121  -6.389  0.00  0.00    +0.000 OA
ATOM     67  N   UNL     1      22.781   2.331  -7.217  0.00  0.00    +0.000 N 
ATOM     68  H   UNL     1      22.889   1.752  -8.031  0.00  0.00    +0.000 HD
BRANCH  67  69
ATOM     69  C   UNL     1      23.872   2.386  -6.222  0.00  0.00    +0.000 C 
BRANCH  69  70
ATOM     70  C   UNL     1      25.187   1.670  -6.649  0.00  0.00    +0.000 C 
ATOM     71  N   UNL     1      25.228   1.035  -7.858  0.00  0.00    +0.000 N 
ATOM     72  O   UNL     1      26.189   1.631  -5.936  0.00  0.00    +0.000 OA
ATOM     73  H   UNL     1      24.485   0.987  -8.530  0.00  0.00    +0.000 HD
ATOM     74  H   UNL     1      26.093   0.563  -8.093  0.00  0.00    +0.000 HD
ENDBRANCH  69  70
BRANCH  69  75
ATOM     75  C   UNL     1      23.428   1.771  -4.872  0.00  0.00    +0.000 C 
BRANCH  75  76
ATOM     76  C   UNL     1      22.180   2.444  -4.309  0.00  0.00    +0.000 C 
BRANCH  76  77
ATOM     77  C   UNL     1      21.672   1.879  -3.014  0.00  0.00    +0.000 C 
BRANCH  77  78
ATOM     78  N   UNL     1      20.467   2.628  -2.647  0.00  0.00    +0.000 NA
ATOM     79  C   UNL     1      19.848   2.230  -1.599  0.00  0.00    +0.000 C 
ATOM     80  N   UNL     1      20.210   1.212  -0.802  0.00  0.00    +0.000 N 
ATOM     81  N   UNL     1      18.711   2.834  -1.214  0.00  0.00    +0.000 N 
ATOM     82  H   UNL     1      21.047   0.695  -1.025  0.00  0.00    +0.000 HD
ATOM     83  H   UNL     1      19.718   0.961   0.035  0.00  0.00    +0.000 HD
ATOM     84  H   UNL     1      18.409   3.627  -1.764  0.00  0.00    +0.000 HD
ATOM     85  H   UNL     1      18.226   2.618  -0.361  0.00  0.00    +0.000 HD
ENDBRANCH  77  78
ENDBRANCH  76  77
ENDBRANCH  75  76
ENDBRANCH  69  75
ENDBRANCH  67  69
ENDBRANCH  64  65
ENDBRANCH  57  58
BRANCH  57  86
ATOM     86  C   UNL     1      16.382   4.675  -7.094  0.00  0.00    +0.000 C 
BRANCH  86  87
ATOM     87  C   UNL     1      14.915   4.888  -7.377  0.00  0.00    +0.000 C 
BRANCH  87  88
ATOM     88  C   UNL     1      14.578   6.323  -7.653  0.00  0.00    +0.000 C 
BRANCH  88  89
ATOM     89  N   UNL     1      13.138   6.371  -7.879  0.00  0.00    +0.000 NA
ATOM     90  C   UNL     1      12.638   7.538  -8.049  0.00  0.00    +0.000 C 
ATOM     91  N   UNL     1      13.309   8.701  -8.041  0.00  0.00    +0.000 N 
ATOM     92  N   UNL     1      11.313   7.676  -8.207  0.00  0.00    +0.000 N 
ATOM     93  H   UNL     1      14.311   8.694  -7.915  0.00  0.00    +0.000 HD
ATOM     94  H   UNL     1      12.877   9.586  -8.231  0.00  0.00    +0.000 HD
ATOM     95  H   UNL     1      10.778   6.822  -8.314  0.00  0.00    +0.000 HD
ATOM     96  H   UNL     1      10.881   8.539  -8.488  0.00  0.00    +0.000 HD
ENDBRANCH  88  89
ENDBRANCH  87  88
ENDBRANCH  86  87
ENDBRANCH  57  86
ENDBRANCH  55  57
ENDBRANCH  52  53
BRANCH  52  97
ATOM     97  C   UNL     1      14.265   0.564  -4.267  0.00  0.00    +0.000 C 
BRANCH  97  98
ATOM     98  C   UNL     1      13.718  -0.080  -3.028  0.00  0.00    +0.000 C 
ATOM     99  N   UNL     1      13.421   0.734  -1.980  0.00  0.00    +0.000 N 
ATOM    100  O   UNL     1      13.571  -1.293  -2.928  0.00  0.00    +0.000 OA
ATOM    101  H   UNL     1      13.061   1.652  -2.251  0.00  0.00    +0.000 HD
ATOM    102  H   UNL     1      12.619   0.336  -1.492  0.00  0.00    +0.000 HD
ENDBRANCH  97  98
ENDBRANCH  52  97
ENDBRANCH   3  52
TORSDOF 34
