REMARK  Name = CHEMBL2037513
REMARK  12 active torsions:
REMARK  status: ('A' for Active; 'I' for Inactive)
REMARK    1  A    between atoms: C_1  and  C_2
REMARK    2  A    between atoms: C_2  and  C_3
REMARK    3  A    between atoms: C_3  and  C_4
REMARK    4  A    between atoms: C_3  and  C_6
REMARK    5  A    between atoms: C_4  and  C_5
REMARK    6  A    between atoms: C_10  and  C_11
REMARK    7  A    between atoms: N_22  and  C_23
REMARK    8  A    between atoms: C_23  and  C_24
REMARK    9  A    between atoms: C_23  and  C_29
REMARK   10  A    between atoms: N_26  and  C_27
REMARK   11  A    between atoms: N_26  and  C_28
REMARK   12  A    between atoms: C_32  and  C_33
REMARK                            x       y       z     vdW  Elec       q    Type
REMARK                         _______ _______ _______ _____ _____    ______ ____
ROOT
ATOM      1  C   UNK A   2       4.848   0.510   1.127  0.00  0.00    +0.000 C 
ATOM      2  C   UNK A   2       5.184   1.725   2.097  0.00  0.00    +0.000 C 
ATOM      3  O   UNK A   2       4.505   2.198   2.983  0.00  0.00    +0.000 OA
ATOM      4  N   UNK A   1       6.413   2.255   1.879  0.00  0.00    +0.000 N 
ATOM      5  C   UNK A   1       7.341   1.675   0.940  0.00  0.00    +0.000 C 
ATOM      6  C   UNK A   1       6.627   1.422  -0.369  0.00  0.00    +0.000 C 
ATOM      7  O   UNK A   1       7.252   1.516  -1.406  0.00  0.00    +0.000 OA
ATOM      8  N   UNK A   2       5.293   1.038  -0.210  0.00  0.00    +0.000 N 
ATOM      9  H   UNK A   1       6.638   3.022   2.502  0.00  0.00    +0.000 HD
ENDROOT
BRANCH   5  10
ATOM     10  C   UNK A   1       8.520   2.599   0.603  0.00  0.00    +0.000 C 
ATOM     11  C   UNK A   1       9.296   2.852   1.891  0.00  0.00    +0.000 C 
ATOM     12  C   UNK A   1       8.611   4.093   2.382  0.00  0.00    +0.000 A 
ATOM     13  C   UNK A   1       8.456   4.484   3.698  0.00  0.00    +0.000 A 
ATOM     14  C   UNK A   1       7.624   5.571   3.968  0.00  0.00    +0.000 A 
ATOM     15  C   UNK A   1       6.943   6.235   2.935  0.00  0.00    +0.000 A 
ATOM     16  C   UNK A   1       7.062   5.807   1.612  0.00  0.00    +0.000 A 
ATOM     17  C   UNK A   1       7.901   4.737   1.352  0.00  0.00    +0.000 A 
ATOM     18  C   UNK A   1       8.049   3.985   0.066  0.00  0.00    +0.000 C 
ENDBRANCH   5  10
BRANCH   1  19
ATOM     19  C   UNK A   2       3.336   0.203   1.206  0.00  0.00    +0.000 C 
BRANCH  19  21
ATOM     20  C   UNK A   2       0.915  -0.610  -0.496  0.00  0.00    +0.000 C 
ATOM     21  C   UNK A   2       2.474  -0.584  -0.157  0.00  0.00    +0.000 C 
ENDBRANCH  19  21
BRANCH  19  22
ATOM     22  C   UNK A   2       2.739  -0.169   2.723  0.00  0.00    +0.000 C 
ATOM     23  C   UNK A   2       1.180  -0.184   3.074  0.00  0.00    +0.000 C 
ENDBRANCH  19  22
ENDBRANCH   1  19
BRANCH   8  24
ATOM     24  C   UNK A   0       4.340   1.161  -1.332  0.00  0.00    +0.000 C 
BRANCH  24  25
ATOM     25  C   UNK A   0       4.964   1.188  -2.767  0.00  0.00    +0.000 A 
ATOM     26  C   UNK A   0       5.936   0.226  -3.158  0.00  0.00    +0.000 A 
ATOM     27  C   UNK A   0       6.673   0.403  -4.327  0.00  0.00    +0.000 A 
ATOM     28  C   UNK A   0       6.307   1.438  -5.167  0.00  0.00    +0.000 A 
ATOM     29  C   UNK A   0       7.018   1.732  -6.437  0.00  0.00    +0.000 C 
ATOM     30  N   UNK A   0       5.276   2.259  -4.912  0.00  0.00    +0.000 NA
ATOM     31  C   UNK A   0       4.655   2.132  -3.725  0.00  0.00    +0.000 A 
ENDBRANCH  24  25
BRANCH  24  32
ATOM     32  C   UNK A   0       2.888   2.211  -1.132  0.00  0.00    +0.000 C 
ATOM     33  O   UNK A   0       2.703   3.027  -2.055  0.00  0.00    +0.000 OA
ATOM     34  N   UNK A   0       1.820   2.282  -0.166  0.00  0.00    +0.000 N 
ATOM     35  C   UNK A   0       1.302   1.658   1.055  0.00  0.00    +0.000 C 
ATOM     36  C   UNK A   0       0.876   3.349  -0.265  0.00  0.00    +0.000 C 
ENDBRANCH  24  32
ENDBRANCH   8  24
TORSDOF 7
