REMARK  Name = CHEMBL1093599
REMARK  11 active torsions:
REMARK  status: ('A' for Active; 'I' for Inactive)
REMARK    1  A    between atoms: C_1  and  O_2
REMARK    2  A    between atoms: O_2  and  C_3
REMARK    3  A    between atoms: C_3  and  C_4
REMARK    4  A    between atoms: C_4  and  N_5
REMARK    5  A    between atoms: N_5  and  C_22
REMARK    6  A    between atoms: C_6  and  C_8
REMARK    7  A    between atoms: C_11  and  C_12
REMARK    8  A    between atoms: C_16  and  C_17
REMARK    9  A    between atoms: C_18  and  C_19
REMARK   10  A    between atoms: C_25  and  O_26
REMARK   11  A    between atoms: O_26  and  C_27
REMARK                            x       y       z     vdW  Elec       q    Type
REMARK                         _______ _______ _______ _____ _____    ______ ____
ROOT
ATOM      1  N   UNL     1       4.843   1.694   2.128  0.00  0.00    +0.000 N 
ATOM      2  C   UNL     1       3.982   2.294   3.115  0.00  0.00    +0.000 C 
ATOM      3  O   UNL     1       4.407   3.012   4.016  0.00  0.00    +0.000 OA
ENDROOT
BRANCH   2   4
ATOM      4  C   UNL     1       2.491   2.149   3.107  0.00  0.00    +0.000 A 
ATOM      5  C   UNL     1       1.868   0.920   3.238  0.00  0.00    +0.000 A 
ATOM      6  N   UNL     1       0.553   0.722   2.926  0.00  0.00    +0.000 NA
ATOM      7  C   UNL     1      -0.175   1.831   2.627  0.00  0.00    +0.000 A 
ATOM      8  C   UNL     1       0.423   3.083   2.732  0.00  0.00    +0.000 A 
ATOM      9  N   UNL     1       1.759   3.274   2.904  0.00  0.00    +0.000 NA
BRANCH   7  10
ATOM     10  C   UNL     1      -1.597   1.638   2.269  0.00  0.00    +0.000 A 
ATOM     11  C   UNL     1      -2.358   0.772   3.078  0.00  0.00    +0.000 A 
ATOM     12  C   UNL     1      -3.730   0.623   2.901  0.00  0.00    +0.000 A 
ATOM     13  C   UNL     1      -4.371   1.298   1.869  0.00  0.00    +0.000 A 
ATOM     14  C   UNL     1      -3.648   2.120   0.992  0.00  0.00    +0.000 A 
ATOM     15  C   UNL     1      -4.394   2.796  -0.130  0.00  0.00    +0.000 C 
ATOM     16  C   UNL     1      -2.253   2.303   1.187  0.00  0.00    +0.000 A 
ATOM     17  C   UNL     1      -1.481   3.196   0.240  0.00  0.00    +0.000 C 
ENDBRANCH   7  10
ENDBRANCH   2   4
BRANCH   1  18
ATOM     18  C   UNL     1       6.279   1.837   2.331  0.00  0.00    +0.000 A 
ATOM     19  C   UNL     1       7.154   2.060   1.266  0.00  0.00    +0.000 A 
ATOM     20  C   UNL     1       8.526   2.232   1.489  0.00  0.00    +0.000 A 
ATOM     21  C   UNL     1       9.024   2.147   2.779  0.00  0.00    +0.000 A 
ATOM     22  N   UNL     1       8.219   1.891   3.829  0.00  0.00    +0.000 NA
ATOM     23  C   UNL     1       6.882   1.762   3.588  0.00  0.00    +0.000 A 
BRANCH  21  24
ATOM     24  O   UNL     1      10.340   2.313   3.118  0.00  0.00    +0.000 OA
ATOM     25  C   UNL     1      11.236   2.626   2.057  0.00  0.00    +0.000 C 
ENDBRANCH  21  24
ENDBRANCH   1  18
BRANCH   1  26
ATOM     26  C   UNL     1       4.471   0.920   0.875  0.00  0.00    +0.000 C 
BRANCH  26  27
ATOM     27  C   UNL     1       2.991   0.819   0.581  0.00  0.00    +0.000 C 
BRANCH  27  29
ATOM     28  C   UNL     1       1.059  -0.013  -0.329  0.00  0.00    +0.000 C 
ATOM     29  O   UNL     1       2.488   0.095  -0.531  0.00  0.00    +0.000 OA
ENDBRANCH  27  29
ENDBRANCH  26  27
ENDBRANCH   1  26
TORSDOF 7
