REMARK  Name = CHEMBL208787
REMARK  11 active torsions:
REMARK  status: ('A' for Active; 'I' for Inactive)
REMARK    1  A    between atoms: CD1_1  and  CG_2
REMARK    2  A    between atoms: CG_2  and  CD2_3
REMARK    3  A    between atoms: CG_2  and  CB_4
REMARK    4  A    between atoms: CB_4  and  CA_5
REMARK    5  A    between atoms: C_9  and  C_10
REMARK    6  A    between atoms: N_21  and  C_22
REMARK    7  A    between atoms: C_22  and  C_23
REMARK    8  A    between atoms: C_22  and  C_29
REMARK    9  A    between atoms: N_25  and  C_26
REMARK   10  A    between atoms: C_26  and  C_27
REMARK   11  A    between atoms: C_26  and  C_28
REMARK                            x       y       z     vdW  Elec       q    Type
REMARK                         _______ _______ _______ _____ _____    ______ ____
ROOT
ATOM      1  CA  LEU A   2       4.622   0.173  -1.328  0.00  0.00    +0.000 C 
ATOM      2  C   LEU A   2       5.013   1.136  -2.474  0.00  0.00    +0.000 C 
ATOM      3  O   LEU A   2       4.357   2.040  -2.930  0.00  0.00    +0.000 OA
ATOM      4  N   UNK A   1       6.273   0.921  -2.920  0.00  0.00    +0.000 N 
ATOM      5  C   UNK A   1       7.146  -0.069  -2.338  0.00  0.00    +0.000 C 
ATOM      6  C   UNK A   1       6.381  -1.375  -2.144  0.00  0.00    +0.000 C 
ATOM      7  O   UNK A   1       7.000  -2.412  -2.285  0.00  0.00    +0.000 OA
ATOM      8  N   LEU A   2       5.037  -1.242  -1.757  0.00  0.00    +0.000 N 
ATOM      9  H   UNK A   1       6.560   1.570  -3.640  0.00  0.00    +0.000 HD
ENDROOT
BRANCH   5  10
ATOM     10  C   UNK A   1       8.338  -0.419  -3.255  0.00  0.00    +0.000 C 
ATOM     11  C   UNK A   1       9.211   0.812  -3.499  0.00  0.00    +0.000 C 
ATOM     12  C   UNK A   1       8.572   1.368  -4.735  0.00  0.00    +0.000 A 
ATOM     13  C   UNK A   1       8.575   2.681  -5.159  0.00  0.00    +0.000 A 
ATOM     14  C   UNK A   1       7.791   3.016  -6.264  0.00  0.00    +0.000 A 
ATOM     15  C   UNK A   1       7.011   2.047  -6.918  0.00  0.00    +0.000 A 
ATOM     16  C   UNK A   1       6.998   0.725  -6.474  0.00  0.00    +0.000 A 
ATOM     17  C   UNK A   1       7.791   0.400  -5.388  0.00  0.00    +0.000 A 
ATOM     18  C   UNK A   1       7.852  -0.904  -4.655  0.00  0.00    +0.000 C 
ENDBRANCH   5  10
BRANCH   1  19
ATOM     19  CB  LEU A   2       3.149   0.406  -1.164  0.00  0.00    +0.000 C 
BRANCH  19  21
ATOM     20  CD1 LEU A   2       0.936   0.049   0.094  0.00  0.00    +0.000 C 
ATOM     21  CG  LEU A   2       2.471   0.045   0.160  0.00  0.00    +0.000 C 
ATOM     22  CD2 LEU A   2       2.884  -1.275   0.783  0.00  0.00    +0.000 C 
ENDBRANCH  19  21
ENDBRANCH   1  19
BRANCH   8  23
ATOM     23  C   UNK A   0       4.086  -2.453  -1.879  0.00  0.00    +0.000 C 
BRANCH  23  24
ATOM     24  C   UNK A   0       4.797  -3.832  -1.961  0.00  0.00    +0.000 A 
ATOM     25  C   UNK A   0       5.805  -4.220  -1.038  0.00  0.00    +0.000 A 
ATOM     26  C   UNK A   0       6.653  -5.324  -1.278  0.00  0.00    +0.000 A 
ATOM     27  C   UNK A   0       6.334  -6.113  -2.379  0.00  0.00    +0.000 A 
ATOM     28  O   UNK A   0       6.955  -7.253  -2.802  0.00  0.00    +0.000 OA
ATOM     29  C   UNK A   0       6.247  -7.711  -3.875  0.00  0.00    +0.000 A 
ATOM     30  C   UNK A   0       5.216  -6.865  -4.186  0.00  0.00    +0.000 A 
ATOM     31  C   UNK A   0       5.275  -5.846  -3.220  0.00  0.00    +0.000 A 
ATOM     32  C   UNK A   0       4.517  -4.707  -3.009  0.00  0.00    +0.000 A 
ENDBRANCH  23  24
BRANCH  23  33
ATOM     33  C   UNK A   0       2.834  -2.326  -2.947  0.00  0.00    +0.000 C 
ATOM     34  O   UNK A   0       2.771  -2.906  -4.030  0.00  0.00    +0.000 OA
ATOM     35  N   UNK A   0       1.766  -1.500  -2.685  0.00  0.00    +0.000 N 
ATOM     36  H   UNK A   0       1.588  -1.134  -1.778  0.00  0.00    +0.000 HD
BRANCH  35  37
ATOM     37  C   UNK A   0       0.767  -1.132  -3.662  0.00  0.00    +0.000 C 
ATOM     38  C   UNK A   0      -0.231  -2.262  -3.588  0.00  0.00    +0.000 C 
ATOM     39  C   UNK A   0       0.114   0.219  -3.334  0.00  0.00    +0.000 C 
ENDBRANCH  35  37
ENDBRANCH  23  33
ENDBRANCH   8  23
TORSDOF 7
