REMARK  Name = CHEMBL563613
REMARK  7 active torsions:
REMARK  status: ('A' for Active; 'I' for Inactive)
REMARK    1  A    between atoms: C_1  and  O_2
REMARK    2  A    between atoms: O_2  and  C_3
REMARK    3  A    between atoms: C_6  and  N_7
REMARK    4  A    between atoms: C_8  and  C_9
REMARK    5  A    between atoms: C_12  and  C_13
REMARK    6  A    between atoms: C_16  and  O_17
REMARK    7  A    between atoms: O_17  and  C_18
REMARK                            x       y       z     vdW  Elec       q    Type
REMARK                         _______ _______ _______ _____ _____    ______ ____
ROOT
ATOM      1  C   UNL     1       5.411   5.540  -1.858  0.00  0.00    +0.000 A 
ATOM      2  C   UNL     1       6.040   4.886  -0.799  0.00  0.00    +0.000 A 
ATOM      3  N   UNL     1       6.126   5.401   0.457  0.00  0.00    +0.000 NA
ATOM      4  C   UNL     1       5.591   6.631   0.618  0.00  0.00    +0.000 A 
ATOM      5  C   UNL     1       4.985   7.303  -0.441  0.00  0.00    +0.000 A 
ATOM      6  N   UNL     1       4.872   6.773  -1.691  0.00  0.00    +0.000 NA
ENDROOT
BRANCH   1  12
ATOM      7  N   UNL     1       4.749   3.712  -3.513  0.00  0.00    +0.000 N 
ATOM      8  C   UNL     1       5.005   3.542  -4.872  0.00  0.00    +0.000 A 
ATOM      9  C   UNL     1       4.514   2.468  -5.779  0.00  0.00    +0.000 C 
ATOM     10  N   UNL     1       5.684   4.584  -5.312  0.00  0.00    +0.000 NA
ATOM     11  N   UNL     1       5.859   5.458  -4.281  0.00  0.00    +0.000 NA
ATOM     12  C   UNL     1       5.304   4.952  -3.191  0.00  0.00    +0.000 A 
BRANCH   7  16
ATOM     13  C   UNL     1       2.957   1.022  -0.874  0.00  0.00    +0.000 A 
ATOM     14  C   UNL     1       2.569   2.352  -0.817  0.00  0.00    +0.000 A 
ATOM     15  C   UNL     1       3.149   3.266  -1.703  0.00  0.00    +0.000 A 
ATOM     16  C   UNL     1       4.106   2.819  -2.616  0.00  0.00    +0.000 A 
ATOM     17  C   UNL     1       4.481   1.484  -2.559  0.00  0.00    +0.000 A 
ATOM     18  N   UNL     1       3.929   0.585  -1.704  0.00  0.00    +0.000 NA
BRANCH  13  20
ATOM     19  C   UNL     1       1.004   0.050  -0.024  0.00  0.00    +0.000 C 
ATOM     20  O   UNL     1       2.431   0.068  -0.040  0.00  0.00    +0.000 OA
ENDBRANCH  13  20
ENDBRANCH   7  16
ENDBRANCH   1  12
BRANCH   4  21
ATOM     21  O   UNL     1       5.590   7.267   1.853  0.00  0.00    +0.000 OA
BRANCH  21  22
ATOM     22  C   UNL     1       6.155   6.629   2.936  0.00  0.00    +0.000 A 
ATOM     23  C   UNL     1       7.507   6.269   2.950  0.00  0.00    +0.000 A 
ATOM     24  C   UNL     1       8.080   5.734   4.109  0.00  0.00    +0.000 A 
ATOM     25  C   UNL     1       7.310   5.580   5.261  0.00  0.00    +0.000 A 
ATOM     26 CL   UNL     1       8.029   4.947   6.691  0.00  0.00    +0.000 Cl
ATOM     27  C   UNL     1       5.967   5.949   5.266  0.00  0.00    +0.000 A 
ATOM     28  C   UNL     1       5.393   6.477   4.105  0.00  0.00    +0.000 A 
ATOM     29 CL   UNL     1       3.731   6.945   4.156  0.00  0.00    +0.000 Cl
ENDBRANCH  21  22
ENDBRANCH   4  21
TORSDOF 5
