REMARK  Name = CHEMBL1093340
REMARK  7 active torsions:
REMARK  status: ('A' for Active; 'I' for Inactive)
REMARK    1  A    between atoms: C_1  and  O_2
REMARK    2  A    between atoms: O_2  and  C_3
REMARK    3  A    between atoms: C_8  and  C_9
REMARK    4  A    between atoms: N_11  and  C_12
REMARK    5  A    between atoms: N_11  and  C_13
REMARK    6  A    between atoms: C_16  and  O_17
REMARK    7  A    between atoms: O_17  and  C_18
REMARK                            x       y       z     vdW  Elec       q    Type
REMARK                         _______ _______ _______ _____ _____    ______ ____
ROOT
ATOM      1  C   UNL     1       7.342  -2.666  -4.813  0.00  0.00    +0.000 C 
ATOM      2  O   UNL     1       8.194  -3.359  -4.240  0.00  0.00    +0.000 OA
ATOM      3  N   UNL     1       7.466  -2.390  -6.201  0.00  0.00    +0.000 N 
ATOM      4  C   UNL     1       6.539  -1.579  -6.995  0.00  0.00    +0.000 C 
ENDROOT
BRANCH   1  10
ATOM      5  C   UNL     1       3.028  -0.389  -1.192  0.00  0.00    +0.000 A 
ATOM      6  C   UNL     1       2.637   0.172  -2.411  0.00  0.00    +0.000 A 
ATOM      7  C   UNL     1       3.337  -0.105  -3.593  0.00  0.00    +0.000 A 
ATOM      8  C   UNL     1       4.447  -0.939  -3.478  0.00  0.00    +0.000 A 
ATOM      9  O   UNL     1       5.266  -1.310  -4.495  0.00  0.00    +0.000 OA
ATOM     10  C   UNL     1       6.255  -2.111  -3.994  0.00  0.00    +0.000 A 
ATOM     11  C   UNL     1       6.037  -2.255  -2.629  0.00  0.00    +0.000 A 
ATOM     12  C   UNL     1       4.882  -1.500  -2.289  0.00  0.00    +0.000 A 
ATOM     13  C   UNL     1       4.161  -1.217  -1.115  0.00  0.00    +0.000 A 
BRANCH   5  15
ATOM     14  C   UNL     1       0.987  -0.094  -0.047  0.00  0.00    +0.000 C 
ATOM     15  O   UNL     1       2.412  -0.114   0.002  0.00  0.00    +0.000 OA
ENDBRANCH   5  15
ENDBRANCH   1  10
BRANCH   3  16
ATOM     16  C   UNL     1       8.574  -2.947  -6.949  0.00  0.00    +0.000 A 
ATOM     17  C   UNL     1       8.992  -4.268  -6.789  0.00  0.00    +0.000 A 
ATOM     18  C   UNL     1      10.062  -4.773  -7.539  0.00  0.00    +0.000 A 
ATOM     19  C   UNL     1      10.714  -3.948  -8.443  0.00  0.00    +0.000 A 
ATOM     20  N   UNL     1      10.335  -2.667  -8.631  0.00  0.00    +0.000 NA
ATOM     21  C   UNL     1       9.286  -2.206  -7.894  0.00  0.00    +0.000 A 
BRANCH  19  22
ATOM     22  O   UNL     1      11.775  -4.326  -9.221  0.00  0.00    +0.000 OA
ATOM     23  C   UNL     1      12.202  -5.678  -9.098  0.00  0.00    +0.000 C 
ENDBRANCH  19  22
ENDBRANCH   3  16
TORSDOF 4
