REMARK  Name = CHEMBL69498
REMARK  6 active torsions:
REMARK  status: ('A' for Active; 'I' for Inactive)
REMARK    1  A    between atoms: C_1  and  O_2
REMARK    2  A    between atoms: O_2  and  C_3
REMARK    3  A    between atoms: C_5  and  O_6
REMARK    4  A    between atoms: O_6  and  C_7
REMARK    5  A    between atoms: C_15  and  C_16
REMARK    6  A    between atoms: C_21  and  N_22
REMARK                            x       y       z     vdW  Elec       q    Type
REMARK                         _______ _______ _______ _____ _____    ______ ____
ROOT
ATOM      1  C   UNL     1       1.521  -0.388  -2.607  0.00  0.00    +0.000 C 
ATOM      2  O   UNL     1       1.217  -0.855  -3.710  0.00  0.00    +0.000 OA
ATOM      3  N   UNL     1       0.734   0.601  -2.015  0.00  0.00    +0.000 N 
ATOM      4  C   UNL     1      -0.649   0.213  -1.671  0.00  0.00    +0.000 C 
ATOM      5  C   UNL     1      -1.559   1.394  -1.709  0.00  0.00    +0.000 C 
ATOM      6  C   UNL     1      -1.126   2.543  -0.406  0.00  0.00    +0.000 C 
ATOM      7  C   UNL     1       0.366   2.905  -1.199  0.00  0.00    +0.000 C 
ATOM      8  C   UNL     1       1.326   1.742  -1.301  0.00  0.00    +0.000 C 
ENDROOT
BRANCH   6   9
ATOM      9  N   UNL     1      -1.892   2.196   1.234  0.00  0.00    +0.000 N 
ATOM     10  C   UNL     1      -3.109   2.530   0.565  0.00  0.00    +0.000 C 
ATOM     11  O   UNL     1      -3.594   2.082  -0.523  0.00  0.00    +0.000 OA
ATOM     12  O   UNL     1      -3.707   3.614   0.989  0.00  0.00    +0.000 OA
ATOM     13  C   UNL     1      -4.623   2.973   1.782  0.00  0.00    +0.000 C 
ATOM     14  C   UNL     1      -3.841   3.217   2.987  0.00  0.00    +0.000 A 
ATOM     15  C   UNL     1      -4.751   3.798   4.034  0.00  0.00    +0.000 A 
ATOM     16  C   UNL     1      -4.463   3.869   5.355  0.00  0.00    +0.000 A 
ATOM     17  C   UNL     1      -3.383   3.052   5.604  0.00  0.00    +0.000 A 
ATOM     18  C   UNL     1      -2.419   2.431   4.425  0.00  0.00    +0.000 A 
ATOM     19  C   UNL     1      -2.479   2.717   2.916  0.00  0.00    +0.000 A 
ENDBRANCH   6   9
BRANCH   1  25
ATOM     20  C   UNL     1       3.119  -0.878  -0.491  0.00  0.00    +0.000 A 
ATOM     21  C   UNL     1       4.255  -1.555   0.029  0.00  0.00    +0.000 A 
ATOM     22  C   UNL     1       5.016  -2.332  -0.786  0.00  0.00    +0.000 A 
ATOM     23  C   UNL     1       4.460  -2.488  -2.020  0.00  0.00    +0.000 A 
ATOM     24  C   UNL     1       3.378  -1.876  -2.605  0.00  0.00    +0.000 A 
ATOM     25  C   UNL     1       2.680  -0.985  -1.847  0.00  0.00    +0.000 A 
BRANCH  20  27
ATOM     26  C   UNL     1       1.236  -0.415   0.730  0.00  0.00    +0.000 C 
ATOM     27  O   UNL     1       2.592  -0.116   0.517  0.00  0.00    +0.000 OA
ENDBRANCH  20  27
BRANCH  22  28
ATOM     28  O   UNL     1       6.193  -2.864  -0.378  0.00  0.00    +0.000 OA
BRANCH  28  29
ATOM     29  C   UNL     1       7.040  -3.699  -1.218  0.00  0.00    +0.000 C 
ATOM     30  C   UNL     1       7.629  -3.102  -2.517  0.00  0.00    +0.000 C 
ATOM     31  C   UNL     1       6.691  -3.166  -3.711  0.00  0.00    +0.000 C 
ATOM     32  N   UNL     1       6.026  -4.501  -3.841  0.00  0.00    +0.000 NA
ATOM     33  C   UNL     1       5.495  -5.173  -2.611  0.00  0.00    +0.000 C 
ATOM     34  C   UNL     1       6.468  -5.105  -1.445  0.00  0.00    +0.000 C 
ATOM     35  H   UNL     1       6.727  -5.130  -4.225  0.00  0.00    +0.000 HD
ENDBRANCH  28  29
ENDBRANCH  22  28
ENDBRANCH   1  25
TORSDOF 5
