REMARK  Name = CHEMBL602671
REMARK  7 active torsions:
REMARK  status: ('A' for Active; 'I' for Inactive)
REMARK    1  A    between atoms: C_1  and  C_2
REMARK    2  A    between atoms: C_4  and  C_5
REMARK    3  A    between atoms: C_20  and  C_21
REMARK    4  A    between atoms: C_21  and  N_22
REMARK    5  A    between atoms: C_29  and  C_30
REMARK    6  A    between atoms: C_30  and  N_32
REMARK    7  A    between atoms: N_36  and  C_37
REMARK                            x       y       z     vdW  Elec       q    Type
REMARK                         _______ _______ _______ _____ _____    ______ ____
ROOT
ATOM      1  C   UNL     1       2.465  -0.352  -0.013  0.00  0.00    +0.000 C 
ATOM      2  C   UNL     1       0.982  -0.134  -0.033  0.00  0.00    +0.000 A 
ATOM      3  C   UNL     1       0.160  -1.315  -0.044  0.00  0.00    +0.000 A 
ATOM      4  C   UNL     1      -1.243  -1.265  -0.033  0.00  0.00    +0.000 A 
ATOM      5  C   UNL     1      -1.769   0.015   0.059  0.00  0.00    +0.000 A 
ATOM      6  C   UNL     1      -0.991   1.197   0.008  0.00  0.00    +0.000 A 
ATOM      7  C   UNL     1       0.415   1.163  -0.043  0.00  0.00    +0.000 A 
ENDROOT
BRANCH   4   8
ATOM      8  C   UNL     1      -2.116  -2.535   0.045  0.00  0.00    +0.000 C 
ATOM      9  O   UNL     1      -1.532  -3.613   0.170  0.00  0.00    +0.000 OA
ATOM     10  N   UNL     1      -3.530  -2.401   0.092  0.00  0.00    +0.000 N 
ATOM     11  C   UNL     1      -4.341  -1.833  -1.024  0.00  0.00    +0.000 C 
ATOM     12  C   UNL     1      -5.036  -0.489  -0.754  0.00  0.00    +0.000 C 
ATOM     13  C   UNL     1      -5.976  -0.504   0.436  0.00  0.00    +0.000 C 
ATOM     14  N   UNL     1      -5.332  -0.885   1.669  0.00  0.00    +0.000 N 
ATOM     15  C   UNL     1      -5.217  -2.260   1.860  0.00  0.00    +0.000 A 
ATOM     16  C   UNL     1      -6.033  -2.811   2.859  0.00  0.00    +0.000 A 
ATOM     17  C   UNL     1      -6.090  -4.181   3.050  0.00  0.00    +0.000 A 
ATOM     18  C   UNL     1      -5.271  -5.002   2.276  0.00  0.00    +0.000 A 
ATOM     19  C   UNL     1      -4.372  -4.454   1.327  0.00  0.00    +0.000 A 
ATOM     20  C   UNL     1      -4.331  -3.067   1.105  0.00  0.00    +0.000 A 
ATOM     21  H   UNL     1      -4.753  -0.261   2.216  0.00  0.00    +0.000 HD
ENDBRANCH   4   8
BRANCH   7  22
ATOM     22  C   UNL     1       1.159   2.525  -0.051  0.00  0.00    +0.000 C 
BRANCH  22  23
ATOM     23  N   UNL     1       2.618   2.507  -0.236  0.00  0.00    +0.000 N 
ATOM     24  C   UNL     1       3.479   3.534   0.037  0.00  0.00    +0.000 C 
ATOM     25  O   UNL     1       3.084   4.652   0.372  0.00  0.00    +0.000 OA
ATOM     26  N   UNL     1       4.822   3.146   0.023  0.00  0.00    +0.000 N 
ATOM     27  C   UNL     1       5.456   2.096  -0.775  0.00  0.00    +0.000 C 
ATOM     28  C   UNL     1       6.585   1.605   0.113  0.00  0.00    +0.000 C 
ATOM     29  C   UNL     1       7.076   2.899   0.742  0.00  0.00    +0.000 C 
ATOM     30  C   UNL     1       5.861   3.860   0.791  0.00  0.00    +0.000 C 
ATOM     31  H   UNL     1       3.089   1.687   0.061  0.00  0.00    +0.000 HD
BRANCH  30  32
ATOM     32  C   UNL     1       6.286   5.286   0.296  0.00  0.00    +0.000 C 
ATOM     33  S   UNL     1       5.732   5.948  -1.157  0.00  0.00    +0.000 S 
BRANCH  32  34
ATOM     34  N   UNL     1       7.147   5.994   1.157  0.00  0.00    +0.000 N 
ATOM     35  C   UNL     1       6.758   7.333   1.605  0.00  0.00    +0.000 C 
ATOM     36  C   UNL     1       7.545   8.488   0.982  0.00  0.00    +0.000 C 
ATOM     37  C   UNL     1       8.982   8.533   1.512  0.00  0.00    +0.000 C 
ATOM     38  N   UNL     1       9.954   7.773   0.714  0.00  0.00    +0.000 NA
ATOM     39  C   UNL     1      10.417   8.585  -0.416  0.00  0.00    +0.000 C 
ATOM     40  C   UNL     1       9.446   6.474   0.226  0.00  0.00    +0.000 C 
ATOM     41  C   UNL     1       8.593   5.690   1.252  0.00  0.00    +0.000 C 
ENDBRANCH  32  34
ENDBRANCH  30  32
ENDBRANCH  22  23
ENDBRANCH   7  22
TORSDOF 5
