REMARK  Name = CHEMBL2017980
REMARK  8 active torsions:
REMARK  status: ('A' for Active; 'I' for Inactive)
REMARK    1  A    between atoms: C_1  and  S_2
REMARK    2  A    between atoms: S_2  and  N_5
REMARK    3  A    between atoms: C_8  and  O_9
REMARK    4  A    between atoms: O_9  and  C_10
REMARK    5  A    between atoms: C_13  and  C_14
REMARK    6  A    between atoms: C_14  and  C_15
REMARK    7  A    between atoms: C_20  and  N_21
REMARK    8  A    between atoms: C_34  and  O_35
REMARK                            x       y       z     vdW  Elec       q    Type
REMARK                         _______ _______ _______ _____ _____    ______ ____
ROOT
ATOM      1  C   UNL     1       4.405   0.675  -4.771  0.00  0.00    +0.000 C 
ENDROOT
BRANCH   1   2
ATOM      2  C   UNL     1       3.686  -0.651  -4.311  0.00  0.00    +0.000 C 
ATOM      3  O   UNL     1       3.429  -1.042  -3.176  0.00  0.00    +0.000 OA
ATOM      4  N   UNL     1       3.323  -1.507  -5.311  0.00  0.00    +0.000 N 
ATOM      5  C   UNL     1       2.043  -2.250  -5.113  0.00  0.00    +0.000 C 
ATOM      6  C   UNL     1       2.218  -3.726  -4.828  0.00  0.00    +0.000 C 
ATOM      7  C   UNL     1       3.265  -4.323  -5.759  0.00  0.00    +0.000 C 
ATOM      8  C   UNL     1       4.603  -3.598  -5.658  0.00  0.00    +0.000 C 
ATOM      9  C   UNL     1       4.471  -2.128  -5.972  0.00  0.00    +0.000 C 
BRANCH   7  10
ATOM     10  N   UNL     1       2.771  -4.450  -7.164  0.00  0.00    +0.000 N 
ATOM     11  C   UNL     1       2.453  -3.337  -7.968  0.00  0.00    +0.000 C 
ATOM     12  O   UNL     1       2.529  -2.140  -7.708  0.00  0.00    +0.000 OA
ATOM     13  C   UNL     1       1.857  -3.568  -9.299  0.00  0.00    +0.000 C 
ATOM     14  C   UNL     1       2.599  -4.664  -9.982  0.00  0.00    +0.000 C 
ATOM     15  C   UNL     1       2.551  -5.885  -9.116  0.00  0.00    +0.000 A 
ATOM     16  C   UNL     1       2.458  -7.143  -9.710  0.00  0.00    +0.000 A 
ATOM     17  C   UNL     1       2.451  -8.290  -8.924  0.00  0.00    +0.000 A 
ATOM     18  C   UNL     1       2.543  -8.188  -7.542  0.00  0.00    +0.000 A 
ATOM     19  C   UNL     1       2.640  -6.934  -6.943  0.00  0.00    +0.000 A 
ATOM     20  C   UNL     1       2.656  -5.765  -7.721  0.00  0.00    +0.000 A 
ENDBRANCH   7  10
ENDBRANCH   1   2
BRANCH   1  24
ATOM     21  C   UNL     1       4.919   3.644  -1.549  0.00  0.00    +0.000 A 
ATOM     22  C   UNL     1       5.446   3.940  -2.780  0.00  0.00    +0.000 A 
ATOM     23  C   UNL     1       5.325   2.989  -3.874  0.00  0.00    +0.000 A 
ATOM     24  C   UNL     1       4.565   1.799  -3.781  0.00  0.00    +0.000 A 
ATOM     25  C   UNL     1       3.818   1.759  -2.677  0.00  0.00    +0.000 A 
ATOM     26  C   UNL     1       4.183   2.518  -1.613  0.00  0.00    +0.000 A 
BRANCH  25  27
ATOM     27  O   UNL     1       2.677   1.043  -2.529  0.00  0.00    +0.000 OA
ATOM     28  H   UNL     1       3.000   0.128  -2.292  0.00  0.00    +0.000 HD
ENDBRANCH  25  27
BRANCH  21  29
ATOM     29  O   UNL     1       5.022   4.399  -0.422  0.00  0.00    +0.000 OA
BRANCH  29  33
ATOM     30  N   UNL     1       3.191   1.342   1.054  0.00  0.00    +0.000 NA
ATOM     31  C   UNL     1       4.760   1.466   1.054  0.00  0.00    +0.000 C 
ATOM     32  C   UNL     1       5.210   2.821   1.566  0.00  0.00    +0.000 C 
ATOM     33  C   UNL     1       4.489   4.000   0.895  0.00  0.00    +0.000 C 
ATOM     34  C   UNL     1       2.958   3.884   1.051  0.00  0.00    +0.000 C 
ATOM     35  C   UNL     1       2.367   2.576   0.549  0.00  0.00    +0.000 C 
BRANCH  30  37
ATOM     36  C   UNL     1       0.988  -0.060   0.030  0.00  0.00    +0.000 C 
ATOM     37  S   UNL     1       2.736  -0.227   0.437  0.00  0.00    +0.000 S 
ATOM     38  O   UNL     1       2.898  -1.187   1.490  0.00  0.00    +0.000 OA
ATOM     39  O   UNL     1       3.503  -0.442  -0.780  0.00  0.00    +0.000 OA
ENDBRANCH  30  37
ENDBRANCH  29  33
ENDBRANCH  21  29
ENDBRANCH   1  24
TORSDOF 7
