REMARK  Name = CHEMBL411148
REMARK  18 active torsions:
REMARK  status: ('A' for Active; 'I' for Inactive)
REMARK    1  A    between atoms: C_1  and  C_2
REMARK    2  A    between atoms: C_6  and  C_7
REMARK    3  A    between atoms: C_7  and  C_8
REMARK    4  A    between atoms: C_17  and  C_18
REMARK    5  A    between atoms: C_18  and  C_19
REMARK    6  A    between atoms: C_22  and  O_23
REMARK    7  A    between atoms: C_34  and  C_35
REMARK    8  A    between atoms: C_41  and  C_42
REMARK    9  A    between atoms: N_44  and  C_45
REMARK   10  A    between atoms: C_45  and  C_46
REMARK   11  A    between atoms: C_45  and  C_53
REMARK   12  A    between atoms: C_46  and  C_47
REMARK   13  A    between atoms: C_47  and  C_48
REMARK   14  A    between atoms: C_48  and  N_49
REMARK   15  A    between atoms: N_55  and  C_56
REMARK   16  A    between atoms: C_56  and  C_57
REMARK   17  A    between atoms: C_63  and  C_64
REMARK   18  A    between atoms: C_64  and  C_65
REMARK                            x       y       z     vdW  Elec       q    Type
REMARK                         _______ _______ _______ _____ _____    ______ ____
ROOT
ATOM      1  C   UNL     1       2.867  -1.197  -0.697  0.00  0.00    +0.000 C 
ATOM      2  C   UNL     1       2.992   0.226  -0.140  0.00  0.00    +0.000 C 
ATOM      3  N   UNL     1       3.905   1.416  -0.516  0.00  0.00    +0.000 N 
ATOM      4  C   UNL     1       3.570   2.609  -1.158  0.00  0.00    +0.000 C 
ATOM      5  O   UNL     1       3.979   3.719  -0.807  0.00  0.00    +0.000 OA
ATOM      6  C   UNL     1       2.749   2.434  -2.435  0.00  0.00    +0.000 C 
ATOM      7  N   UNL     1       1.342   2.402  -2.184  0.00  0.00    +0.000 N 
ATOM      8  C   UNL     1       0.583   3.539  -2.238  0.00  0.00    +0.000 C 
ATOM      9  O   UNL     1      -0.567   3.319  -2.643  0.00  0.00    +0.000 OA
ATOM     10  C   UNL     1       1.188   5.074  -1.654  0.00  0.00    +0.000 C 
ATOM     11  N   UNL     1       0.553   6.009  -2.530  0.00  0.00    +0.000 N 
ATOM     12  C   UNL     1      -0.746   6.392  -2.480  0.00  0.00    +0.000 C 
ATOM     13  O   UNL     1      -1.101   7.245  -3.299  0.00  0.00    +0.000 OA
ATOM     14  C   UNL     1      -1.768   5.801  -1.491  0.00  0.00    +0.000 C 
ATOM     15  C   UNL     1      -1.411   4.773  -0.420  0.00  0.00    +0.000 C 
ATOM     16  S   UNL     1      -2.680   3.562  -0.121  0.00  0.00    +0.000 S 
ATOM     17  S   UNL     1      -1.452   1.509   0.553  0.00  0.00    +0.000 S 
ATOM     18  C   UNL     1      -1.960   0.910   2.868  0.00  0.00    +0.000 C 
ATOM     19  C   UNL     1      -1.136   0.286   3.933  0.00  0.00    +0.000 C 
ATOM     20  N   UNL     1      -0.570  -0.753   3.179  0.00  0.00    +0.000 N 
ATOM     21  C   UNL     1       0.127  -0.447   2.065  0.00  0.00    +0.000 C 
ATOM     22  O   UNL     1       0.395  -1.326   1.256  0.00  0.00    +0.000 OA
ATOM     23  C   UNL     1       0.688   0.962   1.943  0.00  0.00    +0.000 C 
ATOM     24  N   UNL     1       2.316   0.453   2.224  0.00  0.00    +0.000 N 
ATOM     25  C   UNL     1       3.324   0.183   1.314  0.00  0.00    +0.000 C 
ATOM     26  O   UNL     1       4.475   0.472   1.695  0.00  0.00    +0.000 OA
ATOM     27  H   UNL     1       4.643   1.641   0.164  0.00  0.00    +0.000 HD
ATOM     28  H   UNL     1       0.824   1.553  -2.399  0.00  0.00    +0.000 HD
ATOM     29  H   UNL     1       1.141   6.498  -3.193  0.00  0.00    +0.000 HD
ATOM     30  H   UNL     1      -1.075  -1.621   3.135  0.00  0.00    +0.000 HD
ATOM     31  H   UNL     1       3.015   1.123   2.592  0.00  0.00    +0.000 HD
ENDROOT
BRANCH  19  32
ATOM     32  C   UNL     1      -0.344   1.207   4.962  0.00  0.00    +0.000 C 
ATOM     33  O   UNL     1      -0.610   2.389   5.156  0.00  0.00    +0.000 OA
ATOM     34  N   UNL     1       0.637   0.591   5.666  0.00  0.00    +0.000 N 
ATOM     35  C   UNL     1       1.287  -0.639   5.316  0.00  0.00    +0.000 C 
ATOM     36  C   UNL     1       1.161  -1.378   6.594  0.00  0.00    +0.000 C 
ATOM     37  C   UNL     1       1.520  -0.277   7.606  0.00  0.00    +0.000 C 
ATOM     38  C   UNL     1       1.041   1.061   6.996  0.00  0.00    +0.000 C 
BRANCH  38  39
ATOM     39  C   UNL     1      -0.067   1.791   7.807  0.00  0.00    +0.000 C 
ATOM     40  O   UNL     1      -0.940   2.490   7.310  0.00  0.00    +0.000 OA
ATOM     41  N   UNL     1      -0.073   1.739   9.165  0.00  0.00    +0.000 N 
ATOM     42  H   UNL     1       0.773   1.524   9.675  0.00  0.00    +0.000 HD
BRANCH  41  43
ATOM     43  C   UNL     1      -1.216   2.323   9.892  0.00  0.00    +0.000 C 
BRANCH  43  44
ATOM     44  C   UNL     1      -0.811   2.412  11.381  0.00  0.00    +0.000 C 
ATOM     45  O   UNL     1       0.296   2.042  11.772  0.00  0.00    +0.000 OA
ATOM     46  N   UNL     1      -1.761   2.930  12.234  0.00  0.00    +0.000 N 
ATOM     47  H   UNL     1      -2.634   3.248  11.851  0.00  0.00    +0.000 HD
BRANCH  46  48
ATOM     48  C   UNL     1      -1.521   3.046  13.668  0.00  0.00    +0.000 C 
BRANCH  48  49
ATOM     49  C   UNL     1      -2.677   3.628  14.497  0.00  0.00    +0.000 C 
ATOM     50  N   UNL     1      -3.826   3.980  13.845  0.00  0.00    +0.000 N 
ATOM     51  O   UNL     1      -2.606   3.779  15.715  0.00  0.00    +0.000 OA
ATOM     52  H   UNL     1      -3.988   3.918  12.856  0.00  0.00    +0.000 HD
ATOM     53  H   UNL     1      -4.572   4.374  14.405  0.00  0.00    +0.000 HD
ENDBRANCH  48  49
ENDBRANCH  46  48
ENDBRANCH  43  44
BRANCH  43  54
ATOM     54  C   UNL     1      -2.488   1.451   9.721  0.00  0.00    +0.000 C 
BRANCH  54  55
ATOM     55  C   UNL     1      -2.957   1.314   8.271  0.00  0.00    +0.000 C 
BRANCH  55  56
ATOM     56  C   UNL     1      -4.172   0.467   8.055  0.00  0.00    +0.000 C 
BRANCH  56  57
ATOM     57  N   UNL     1      -4.433   0.420   6.610  0.00  0.00    +0.000 NA
ATOM     58  C   UNL     1      -5.427  -0.304   6.248  0.00  0.00    +0.000 C 
ATOM     59  N   UNL     1      -6.216  -1.018   7.070  0.00  0.00    +0.000 N 
ATOM     60  N   UNL     1      -5.724  -0.451   4.943  0.00  0.00    +0.000 N 
ATOM     61  H   UNL     1      -6.045  -0.979   8.064  0.00  0.00    +0.000 HD
ATOM     62  H   UNL     1      -7.020  -1.534   6.765  0.00  0.00    +0.000 HD
ATOM     63  H   UNL     1      -5.246   0.171   4.300  0.00  0.00    +0.000 HD
ATOM     64  H   UNL     1      -6.582  -0.869   4.624  0.00  0.00    +0.000 HD
ENDBRANCH  56  57
ENDBRANCH  55  56
ENDBRANCH  54  55
ENDBRANCH  43  54
ENDBRANCH  41  43
ENDBRANCH  38  39
ENDBRANCH  19  32
BRANCH  23  65
ATOM     65  C   UNL     1      -0.367   2.487   2.528  0.00  0.00    +0.000 C 
BRANCH  65  66
ATOM     66  C   UNL     1      -2.287   3.042   2.428  0.00  0.00    +0.000 C 
ATOM     67  N   UNL     1      -3.389   1.924   1.730  0.00  0.00    +0.000 N 
ATOM     68  O   UNL     1      -2.807   3.914   3.078  0.00  0.00    +0.000 OA
ATOM     69  H   UNL     1      -2.844   1.235   1.143  0.00  0.00    +0.000 HD
ATOM     70  H   UNL     1      -4.153   1.906   1.061  0.00  0.00    +0.000 HD
ENDBRANCH  65  66
ENDBRANCH  23  65
BRANCH  10  71
ATOM     71  C   UNL     1       1.215   5.807  -0.144  0.00  0.00    +0.000 C 
BRANCH  71  72
ATOM     72  C   UNL     1       1.544   4.981   1.039  0.00  0.00    +0.000 A 
ATOM     73  C   UNL     1       1.754   3.726   0.696  0.00  0.00    +0.000 A 
ATOM     74  C   UNL     1       2.317   2.899   1.586  0.00  0.00    +0.000 A 
ATOM     75  C   UNL     1       2.398   3.064   2.955  0.00  0.00    +0.000 A 
ATOM     76  C   UNL     1       1.934   4.255   3.388  0.00  0.00    +0.000 A 
ATOM     77  C   UNL     1       1.557   5.230   2.423  0.00  0.00    +0.000 A 
BRANCH  75  78
ATOM     78  O   UNL     1       2.547   2.071   3.904  0.00  0.00    +0.000 OA
ATOM     79  H   UNL     1       2.168   1.169   3.742  0.00  0.00    +0.000 HD
ENDBRANCH  75  78
ENDBRANCH  71  72
ENDBRANCH  10  71
BRANCH   6  80
ATOM     80  C   UNL     1       3.307   1.154  -3.043  0.00  0.00    +0.000 C 
BRANCH  80  81
ATOM     81  C   UNL     1       4.825   1.203  -3.102  0.00  0.00    +0.000 A 
ATOM     82  C   UNL     1       5.569   0.034  -2.941  0.00  0.00    +0.000 A 
ATOM     83  C   UNL     1       6.949   0.125  -2.766  0.00  0.00    +0.000 A 
ATOM     84  C   UNL     1       7.593   1.367  -2.785  0.00  0.00    +0.000 A 
ATOM     85  C   UNL     1       6.861   2.535  -2.869  0.00  0.00    +0.000 A 
ATOM     86  C   UNL     1       5.500   2.446  -3.058  0.00  0.00    +0.000 A 
ENDBRANCH  80  81
ENDBRANCH   6  80
TORSDOF 17
