REMARK  Name = CHEMBL401910
REMARK  12 active torsions:
REMARK  status: ('A' for Active; 'I' for Inactive)
REMARK    1  A    between atoms: C_1  and  C_2
REMARK    2  A    between atoms: C_4  and  C_5
REMARK    3  A    between atoms: C_5  and  C_6
REMARK    4  A    between atoms: C_5  and  N_12
REMARK    5  A    between atoms: N_8  and  C_9
REMARK    6  A    between atoms: C_9  and  C_10
REMARK    7  A    between atoms: C_9  and  C_11
REMARK    8  A    between atoms: C_15  and  C_16
REMARK    9  A    between atoms: CA_28  and  CB_29
REMARK   10  A    between atoms: CB_29  and  CG_30
REMARK   11  A    between atoms: CG_30  and  CD1_31
REMARK   12  A    between atoms: CG_30  and  CD2_32
REMARK                            x       y       z     vdW  Elec       q    Type
REMARK                         _______ _______ _______ _____ _____    ______ ____
ROOT
ATOM      1  N   LEU A   1      -2.357   2.931   0.193  0.00  0.00    +0.000 N 
ATOM      2  C   UNK A   2      -1.772   3.577  -0.906  0.00  0.00    +0.000 C 
ATOM      3  O   UNK A   2      -1.564   2.990  -1.964  0.00  0.00    +0.000 OA
ATOM      4  C   UNK A   2      -1.285   5.038  -0.654  0.00  0.00    +0.000 C 
ATOM      5  N   UNK A   2      -2.339   5.750  -0.003  0.00  0.00    +0.000 N 
ATOM      6  C   LEU A   1      -2.712   5.307   1.227  0.00  0.00    +0.000 C 
ATOM      7  O   LEU A   1      -3.150   6.106   2.017  0.00  0.00    +0.000 OA
ATOM      8  CA  LEU A   1      -2.522   3.767   1.441  0.00  0.00    +0.000 C 
ATOM      9  H   UNK A   2      -2.504   6.740  -0.140  0.00  0.00    +0.000 HD
ENDROOT
BRANCH   4  10
ATOM     10  C   UNK A   2      -0.892   5.797  -1.896  0.00  0.00    +0.000 C 
ATOM     11  C   UNK A   2       0.339   5.182  -2.573  0.00  0.00    +0.000 C 
ATOM     12  C   UNK A   2       0.107   5.608  -3.979  0.00  0.00    +0.000 A 
ATOM     13  C   UNK A   2       1.026   5.588  -5.007  0.00  0.00    +0.000 A 
ATOM     14  C   UNK A   2       0.613   6.045  -6.255  0.00  0.00    +0.000 A 
ATOM     15  C   UNK A   2      -0.707   6.480  -6.462  0.00  0.00    +0.000 A 
ATOM     16  C   UNK A   2      -1.640   6.455  -5.425  0.00  0.00    +0.000 A 
ATOM     17  C   UNK A   2      -1.215   6.020  -4.186  0.00  0.00    +0.000 A 
ATOM     18  C   UNK A   2      -2.024   5.880  -2.943  0.00  0.00    +0.000 C 
ENDBRANCH   4  10
BRANCH   1  19
ATOM     19  C   UNK A   0      -2.669   1.378   0.079  0.00  0.00    +0.000 C 
BRANCH  19  23
ATOM     20  C   UNK A   0      -6.318   0.724   3.626  0.00  0.00    +0.000 C 
ATOM     21  C   UNK A   0      -5.172   0.491   2.676  0.00  0.00    +0.000 A 
ATOM     22  N   UNK A   0      -4.954   0.814   1.398  0.00  0.00    +0.000 NA
ATOM     23  C   UNK A   0      -3.543   0.664   1.212  0.00  0.00    +0.000 A 
ATOM     24  C   UNK A   0      -3.105  -0.036   2.321  0.00  0.00    +0.000 A 
ATOM     25  O   UNK A   0      -4.075  -0.057   3.270  0.00  0.00    +0.000 OA
ENDBRANCH  19  23
BRANCH  19  26
ATOM     26  C   UNK A   0      -1.266   0.689   0.025  0.00  0.00    +0.000 C 
ATOM     27  O   UNK A   0      -0.779   0.075   0.974  0.00  0.00    +0.000 OA
ATOM     28  N   UNK A   0      -0.523   0.864  -1.124  0.00  0.00    +0.000 N 
ATOM     29  H   UNK A   0      -0.864   1.532  -1.820  0.00  0.00    +0.000 HD
BRANCH  28  30
ATOM     30  C   UNK A   0       0.875   0.476  -1.161  0.00  0.00    +0.000 C 
ATOM     31  C   UNK A   0       0.979  -1.044  -1.126  0.00  0.00    +0.000 C 
ATOM     32  C   UNK A   0       1.561   1.022  -2.406  0.00  0.00    +0.000 C 
ENDBRANCH  28  30
ENDBRANCH  19  26
ENDBRANCH   1  19
BRANCH   8  33
ATOM     33  CB  LEU A   1      -3.793   3.346   2.130  0.00  0.00    +0.000 C 
BRANCH  33  34
ATOM     34  CG  LEU A   1      -5.072   4.172   2.033  0.00  0.00    +0.000 C 
ATOM     35  CD1 LEU A   1      -5.471   4.376   0.558  0.00  0.00    +0.000 C 
ATOM     36  CD2 LEU A   1      -6.245   3.469   2.648  0.00  0.00    +0.000 C 
ENDBRANCH  33  34
ENDBRANCH   8  33
TORSDOF 7
