REMARK  Name = CHEMBL1779406
REMARK  13 active torsions:
REMARK  status: ('A' for Active; 'I' for Inactive)
REMARK    1  A    between atoms: C_1  and  O_2
REMARK    2  A    between atoms: O_2  and  C_3
REMARK    3  A    between atoms: C_6  and  S_7
REMARK    4  A    between atoms: S_7  and  N_10
REMARK    5  A    between atoms: C_13  and  C_14
REMARK    6  A    between atoms: C_13  and  N_28
REMARK    7  A    between atoms: C_17  and  C_18
REMARK    8  A    between atoms: C_18  and  N_19
REMARK    9  A    between atoms: C_25  and  O_26
REMARK   10  A    between atoms: O_26  and  C_27
REMARK   11  A    between atoms: C_32  and  C_33
REMARK   12  A    between atoms: N_35  and  C_36
REMARK   13  A    between atoms: N_35  and  C_37
REMARK                            x       y       z     vdW  Elec       q    Type
REMARK                         _______ _______ _______ _____ _____    ______ ____
ROOT
ATOM      1  N   UNL     1       5.439   3.410   7.139  0.00  0.00    +0.000 N 
ATOM      2  C   UNL     1       5.888   2.065   7.440  0.00  0.00    +0.000 C 
ATOM      3  O   UNL     1       7.033   1.776   7.434  0.00  0.00    +0.000 OA
ATOM      4  C   UNL     1       4.836   1.593   8.458  0.00  0.00    +0.000 C 
ATOM      5  C   UNL     1       5.705   2.127   9.494  0.00  0.00    +0.000 A 
ATOM      6  C   UNL     1       6.048   1.481  10.716  0.00  0.00    +0.000 A 
ATOM      7  C   UNL     1       6.481   2.186  11.781  0.00  0.00    +0.000 A 
ATOM      8 CL   UNL     1       6.851   1.330  13.234  0.00  0.00    +0.000 Cl
ATOM      9  C   UNL     1       6.418   3.551  11.567  0.00  0.00    +0.000 A 
ATOM     10  C   UNL     1       6.079   4.178  10.167  0.00  0.00    +0.000 A 
ATOM     11  C   UNL     1       5.974   3.416   8.939  0.00  0.00    +0.000 A 
ENDROOT
BRANCH   4  12
ATOM     12  C   UNL     1       3.406   2.472   8.565  0.00  0.00    +0.000 A 
ATOM     13  C   UNL     1       3.124   3.894   8.548  0.00  0.00    +0.000 A 
ATOM     14  C   UNL     1       1.826   4.420   8.710  0.00  0.00    +0.000 A 
ATOM     15  C   UNL     1       0.766   3.554   8.536  0.00  0.00    +0.000 A 
ATOM     16  C   UNL     1       1.109   2.203   8.359  0.00  0.00    +0.000 A 
ATOM     17  C   UNL     1       2.331   1.691   8.801  0.00  0.00    +0.000 A 
BRANCH  17  18
ATOM     18  O   UNL     1       2.632   0.673   9.625  0.00  0.00    +0.000 OA
ATOM     19  C   UNL     1       2.897  -0.692   9.932  0.00  0.00    +0.000 C 
ENDBRANCH  17  18
BRANCH  15  20
ATOM     20  C   UNL     1      -0.682   4.033   8.623  0.00  0.00    +0.000 C 
BRANCH  20  21
ATOM     21  N   UNL     1      -1.692   3.064   9.104  0.00  0.00    +0.000 NA
ATOM     22  C   UNL     1      -1.285   2.476  10.395  0.00  0.00    +0.000 C 
ATOM     23  C   UNL     1      -0.858   1.049  10.137  0.00  0.00    +0.000 C 
ATOM     24  C   UNL     1      -1.775   0.676   8.996  0.00  0.00    +0.000 C 
ATOM     25  C   UNL     1      -2.123   1.963   8.239  0.00  0.00    +0.000 C 
ENDBRANCH  20  21
ENDBRANCH  15  20
ENDBRANCH   4  12
BRANCH   4  26
ATOM     26  N   UNL     1       4.721   0.168   8.240  0.00  0.00    +0.000 NA
ATOM     27  C   UNL     1       5.569  -0.903   8.795  0.00  0.00    +0.000 C 
ATOM     28  C   UNL     1       5.903  -1.620   7.542  0.00  0.00    +0.000 C 
ATOM     29  C   UNL     1       4.676  -1.440   6.635  0.00  0.00    +0.000 C 
ATOM     30  C   UNL     1       3.872  -0.230   7.072  0.00  0.00    +0.000 C 
BRANCH  30  31
ATOM     31  C   UNL     1       2.173  -0.610   7.226  0.00  0.00    +0.000 C 
ATOM     32  O   UNL     1       1.502  -0.946   8.197  0.00  0.00    +0.000 OA
ATOM     33  N   UNL     1       1.349  -0.616   6.147  0.00  0.00    +0.000 N 
ATOM     34  C   UNL     1       1.873  -0.816   4.887  0.00  0.00    +0.000 C 
ATOM     35  C   UNL     1      -0.082  -0.854   6.278  0.00  0.00    +0.000 C 
ENDBRANCH  30  31
ENDBRANCH   4  26
BRANCH   1  36
ATOM     36  S   UNL     1       5.841   2.676   5.117  0.00  0.00    +0.000 S 
ATOM     37  O   UNL     1       6.823   1.646   5.128  0.00  0.00    +0.000 OA
ATOM     38  O   UNL     1       6.058   3.967   4.432  0.00  0.00    +0.000 OA
BRANCH  36  42
ATOM     39  C   UNL     1       3.199   0.612   1.104  0.00  0.00    +0.000 A 
ATOM     40  C   UNL     1       4.416   1.273   0.976  0.00  0.00    +0.000 A 
ATOM     41  C   UNL     1       5.186   1.794   2.146  0.00  0.00    +0.000 A 
ATOM     42  C   UNL     1       4.696   1.819   3.507  0.00  0.00    +0.000 A 
ATOM     43  C   UNL     1       3.508   1.124   3.577  0.00  0.00    +0.000 A 
ATOM     44  C   UNL     1       2.795   0.490   2.415  0.00  0.00    +0.000 A 
BRANCH  39  46
ATOM     45  C   UNL     1       1.114  -0.034   0.019  0.00  0.00    +0.000 C 
ATOM     46  O   UNL     1       2.553   0.098   0.002  0.00  0.00    +0.000 OA
ENDBRANCH  39  46
ENDBRANCH  36  42
ENDBRANCH   1  36
TORSDOF 9
