REMARK  Name = CHEMBL2113204
REMARK  6 active torsions:
REMARK  status: ('A' for Active; 'I' for Inactive)
REMARK    1  A    between atoms: C_2  and  C_3
REMARK    2  A    between atoms: C_3  and  N_4
REMARK    3  A    between atoms: N_4  and  C_5
REMARK    4  A    between atoms: N_4  and  S_12
REMARK    5  A    between atoms: S_12  and  C_15
REMARK    6  A    between atoms: N_20  and  N_21
REMARK                            x       y       z     vdW  Elec       q    Type
REMARK                         _______ _______ _______ _____ _____    ______ ____
ROOT
ATOM      1  C   UNL     1       2.952  -1.147   0.807  0.00  0.00    +0.000 C 
ENDROOT
BRANCH   1   3
ATOM      2  O   UNL     1       1.261   0.616   0.458  0.00  0.00    +0.000 OA
ATOM      3  C   UNL     1       2.414   0.210   0.264  0.00  0.00    +0.000 C 
ATOM      4  N   UNL     1       3.190   1.106  -0.428  0.00  0.00    +0.000 N 
ATOM      5  H   UNL     1       2.704   1.997  -0.517  0.00  0.00    +0.000 HD
BRANCH   4   6
ATOM      6  N   UNL     1       4.538   1.184  -0.410  0.00  0.00    +0.000 NA
ATOM      7  C   UNL     1       5.182   0.229  -0.995  0.00  0.00    +0.000 C 
ATOM      8  C   UNL     1       4.633  -1.016  -1.724  0.00  0.00    +0.000 C 
ATOM      9  O   UNL     1       3.504  -1.197  -2.099  0.00  0.00    +0.000 OA
ATOM     10  N   UNL     1       5.688  -1.900  -1.720  0.00  0.00    +0.000 N 
ATOM     11  C   UNL     1       6.856  -1.259  -1.328  0.00  0.00    +0.000 A 
ATOM     12  C   UNL     1       8.125  -1.778  -1.352  0.00  0.00    +0.000 A 
ATOM     13  C   UNL     1       9.170  -0.915  -1.007  0.00  0.00    +0.000 A 
ATOM     14  C   UNL     1       8.925   0.424  -0.628  0.00  0.00    +0.000 A 
ATOM     15  C   UNL     1       7.625   0.925  -0.567  0.00  0.00    +0.000 A 
ATOM     16  C   UNL     1       6.620   0.057  -0.937  0.00  0.00    +0.000 A 
ATOM     17  H   UNL     1       5.590  -2.863  -2.003  0.00  0.00    +0.000 HD
ENDBRANCH   4   6
ENDBRANCH   1   3
BRANCH   1  18
ATOM     18  N   UNL     1       1.981  -2.273   0.931  0.00  0.00    +0.000 N 
BRANCH  18  19
ATOM     19  C   UNL     1       0.601  -1.999   0.791  0.00  0.00    +0.000 A 
ATOM     20  C   UNL     1       0.058  -1.601  -0.433  0.00  0.00    +0.000 A 
ATOM     21  C   UNL     1      -1.285  -1.227  -0.495  0.00  0.00    +0.000 A 
ATOM     22  C   UNL     1      -2.110  -1.445   0.604  0.00  0.00    +0.000 A 
ATOM     23 CL   UNL     1      -3.798  -1.153   0.503  0.00  0.00    +0.000 Cl
ATOM     24  C   UNL     1      -1.568  -1.868   1.807  0.00  0.00    +0.000 A 
ATOM     25  C   UNL     1      -0.187  -1.966   1.931  0.00  0.00    +0.000 A 
ENDBRANCH  18  19
BRANCH  18  26
ATOM     26  S   UNL     1       2.567  -3.795   1.422  0.00  0.00    +0.000 S 
ATOM     27  O   UNL     1       3.330  -4.329   0.305  0.00  0.00    +0.000 OA
ATOM     28  O   UNL     1       3.244  -3.606   2.692  0.00  0.00    +0.000 OA
BRANCH  26  29
ATOM     29  C   UNL     1       1.360  -5.119   1.763  0.00  0.00    +0.000 A 
ATOM     30  C   UNL     1       1.472  -6.505   1.757  0.00  0.00    +0.000 A 
ATOM     31  C   UNL     1       0.241  -7.180   2.085  0.00  0.00    +0.000 A 
ATOM     32  C   UNL     1      -0.779  -6.304   2.347  0.00  0.00    +0.000 A 
ATOM     33  S   UNL     1      -0.190  -4.741   2.333  0.00  0.00    +0.000 S 
ENDBRANCH  26  29
ENDBRANCH  18  26
ENDBRANCH   1  18
TORSDOF 6
