REMARK  Name = CHEMBL2037504
REMARK  12 active torsions:
REMARK  status: ('A' for Active; 'I' for Inactive)
REMARK    1  A    between atoms: CD1_1  and  CG1_2
REMARK    2  A    between atoms: CG1_2  and  CB_3
REMARK    3  A    between atoms: CB_3  and  CG2_4
REMARK    4  A    between atoms: CB_3  and  CA_5
REMARK    5  A    between atoms: C_9  and  C_10
REMARK    6  A    between atoms: N_21  and  C_22
REMARK    7  A    between atoms: C_22  and  C_23
REMARK    8  A    between atoms: C_22  and  C_28
REMARK    9  A    between atoms: N_25  and  C_26
REMARK   10  A    between atoms: N_25  and  C_27
REMARK   11  A    between atoms: C_30  and  C_31
REMARK   12  A    between atoms: C_34  and  C_35
REMARK                            x       y       z     vdW  Elec       q    Type
REMARK                         _______ _______ _______ _____ _____    ______ ____
ROOT
ATOM      1  CA  ILE A   2       4.943   0.753  -1.345  0.00  0.00    +0.000 C 
ATOM      2  C   ILE A   2       5.416  -0.705  -1.016  0.00  0.00    +0.000 C 
ATOM      3  O   ILE A   2       4.921  -1.758  -1.335  0.00  0.00    +0.000 OA
ATOM      4  N   UNK A   1       6.545  -0.689  -0.285  0.00  0.00    +0.000 N 
ATOM      5  C   UNK A   1       7.408   0.451  -0.416  0.00  0.00    +0.000 C 
ATOM      6  C   UNK A   1       6.672   1.726  -0.011  0.00  0.00    +0.000 C 
ATOM      7  O   UNK A   1       7.277   2.608   0.543  0.00  0.00    +0.000 OA
ATOM      8  N   ILE A   2       5.337   1.734  -0.379  0.00  0.00    +0.000 N 
ATOM      9  H   UNK A   1       6.834  -1.614   0.004  0.00  0.00    +0.000 HD
ENDROOT
BRANCH   5  10
ATOM     10  C   UNK A   1       8.570   0.383   0.552  0.00  0.00    +0.000 C 
ATOM     11  C   UNK A   1       9.398  -0.862   0.269  0.00  0.00    +0.000 C 
ATOM     12  C   UNK A   1       8.741  -1.852   1.184  0.00  0.00    +0.000 A 
ATOM     13  C   UNK A   1       8.717  -3.224   1.041  0.00  0.00    +0.000 A 
ATOM     14  C   UNK A   1       7.918  -3.962   1.915  0.00  0.00    +0.000 A 
ATOM     15  C   UNK A   1       7.134  -3.326   2.892  0.00  0.00    +0.000 A 
ATOM     16  C   UNK A   1       7.130  -1.937   3.009  0.00  0.00    +0.000 A 
ATOM     17  C   UNK A   1       7.954  -1.216   2.161  0.00  0.00    +0.000 A 
ATOM     18  C   UNK A   1       8.030   0.270   2.011  0.00  0.00    +0.000 C 
ENDBRANCH   5  10
BRANCH   1  19
ATOM     19  CB  ILE A   2       3.478   0.670  -1.266  0.00  0.00    +0.000 C 
ATOM     20  CG2 ILE A   2       3.203  -0.421   0.204  0.00  0.00    +0.000 C 
BRANCH  19  22
ATOM     21  CD1 ILE A   2       0.724   2.604  -1.698  0.00  0.00    +0.000 C 
ATOM     22  CG1 ILE A   2       2.463   2.265  -1.812  0.00  0.00    +0.000 C 
ENDBRANCH  19  22
ENDBRANCH   1  19
BRANCH   8  23
ATOM     23  C   UNK A   0       4.357   2.782  -0.031  0.00  0.00    +0.000 C 
BRANCH  23  24
ATOM     24  C   UNK A   0       4.999   3.990   0.683  0.00  0.00    +0.000 A 
ATOM     25  C   UNK A   0       4.708   4.223   2.012  0.00  0.00    +0.000 A 
ATOM     26  C   UNK A   0       5.407   5.112   2.792  0.00  0.00    +0.000 A 
ATOM     27  C   UNK A   0       4.977   5.228   4.215  0.00  0.00    +0.000 C 
ATOM     28  C   UNK A   0       6.451   5.776   2.186  0.00  0.00    +0.000 A 
ATOM     29  N   UNK A   0       6.744   5.680   0.860  0.00  0.00    +0.000 NA
ATOM     30  C   UNK A   0       6.018   4.800   0.107  0.00  0.00    +0.000 A 
ATOM     31  C   UNK A   0       6.470   4.638  -1.337  0.00  0.00    +0.000 C 
ENDBRANCH  23  24
BRANCH  23  32
ATOM     32  C   UNK A   0       2.767   2.184   0.704  0.00  0.00    +0.000 C 
ATOM     33  O   UNK A   0       2.515   2.576   1.857  0.00  0.00    +0.000 OA
ATOM     34  N   UNK A   0       1.619   1.197   0.097  0.00  0.00    +0.000 N 
ATOM     35  C   UNK A   0       1.270   0.218  -1.429  0.00  0.00    +0.000 C 
ATOM     36  C   UNK A   0       0.724   0.843   1.203  0.00  0.00    +0.000 C 
ENDBRANCH  23  32
ENDBRANCH   8  23
TORSDOF 6
