REMARK  Name = CHEMBL2017867
REMARK  10 active torsions:
REMARK  status: ('A' for Active; 'I' for Inactive)
REMARK    1  A    between atoms: C_1  and  S_2
REMARK    2  A    between atoms: S_2  and  N_5
REMARK    3  A    between atoms: C_8  and  O_9
REMARK    4  A    between atoms: O_9  and  C_10
REMARK    5  A    between atoms: C_13  and  C_14
REMARK    6  A    between atoms: C_14  and  C_15
REMARK    7  A    between atoms: C_20  and  N_21
REMARK    8  A    between atoms: C_34  and  O_35
REMARK    9  A    between atoms: O_35  and  C_36
REMARK   10  A    between atoms: C_36  and  C_37
REMARK                            x       y       z     vdW  Elec       q    Type
REMARK                         _______ _______ _______ _____ _____    ______ ____
ROOT
ATOM      1  C   UNL     1       6.818   4.248   0.979  0.00  0.00    +0.000 A 
ATOM      2  C   UNL     1       7.462   5.437   0.684  0.00  0.00    +0.000 A 
ATOM      3  C   UNL     1       8.871   5.452   0.542  0.00  0.00    +0.000 A 
ATOM      4  C   UNL     1       9.667   4.307   0.825  0.00  0.00    +0.000 A 
ATOM      5  C   UNL     1       8.974   3.118   1.046  0.00  0.00    +0.000 A 
ATOM      6  C   UNL     1       7.597   3.117   1.103  0.00  0.00    +0.000 A 
ENDROOT
BRANCH   1   7
ATOM      7  O   UNL     1       5.456   4.145   0.905  0.00  0.00    +0.000 OA
BRANCH   7  11
ATOM      8  N   UNL     1       3.382   1.124   1.137  0.00  0.00    +0.000 NA
ATOM      9  C   UNL     1       4.862   1.141   1.385  0.00  0.00    +0.000 C 
ATOM     10  C   UNL     1       5.182   2.167   2.488  0.00  0.00    +0.000 C 
ATOM     11  C   UNL     1       4.786   3.588   2.059  0.00  0.00    +0.000 C 
ATOM     12  C   UNL     1       3.288   3.546   1.737  0.00  0.00    +0.000 C 
ATOM     13  C   UNL     1       2.961   2.485   0.689  0.00  0.00    +0.000 C 
BRANCH   8  15
ATOM     14  C   UNL     1       1.109  -0.064   0.076  0.00  0.00    +0.000 C 
ATOM     15  S   UNL     1       2.907  -0.113   0.021  0.00  0.00    +0.000 S 
ATOM     16  O   UNL     1       3.341  -1.384   0.558  0.00  0.00    +0.000 OA
ATOM     17  O   UNL     1       3.333   0.316  -1.295  0.00  0.00    +0.000 OA
ENDBRANCH   8  15
ENDBRANCH   7  11
ENDBRANCH   1   7
BRANCH   4  18
ATOM     18  C   UNL     1      11.204   4.427   0.883  0.00  0.00    +0.000 C 
BRANCH  18  19
ATOM     19  C   UNL     1      12.067   3.185   1.314  0.00  0.00    +0.000 C 
ATOM     20  O   UNL     1      11.659   2.135   1.793  0.00  0.00    +0.000 OA
ATOM     21  N   UNL     1      13.446   3.228   1.196  0.00  0.00    +0.000 N 
ATOM     22  C   UNL     1      14.138   2.041   0.694  0.00  0.00    +0.000 C 
ATOM     23  C   UNL     1      15.157   1.434   1.640  0.00  0.00    +0.000 C 
ATOM     24  C   UNL     1      16.504   2.654   1.986  0.00  0.00    +0.000 C 
ATOM     25  C   UNL     1      15.294   3.594   2.864  0.00  0.00    +0.000 C 
ATOM     26  C   UNL     1      14.243   4.194   1.923  0.00  0.00    +0.000 C 
BRANCH  24  27
ATOM     27  N   UNL     1      18.056   3.059   0.878  0.00  0.00    +0.000 N 
ATOM     28  C   UNL     1      17.685   1.408   1.373  0.00  0.00    +0.000 C 
ATOM     29  O   UNL     1      17.593   0.234   1.619  0.00  0.00    +0.000 OA
ATOM     30  C   UNL     1      18.755   1.350   0.582  0.00  0.00    +0.000 C 
ATOM     31  C   UNL     1      19.569   0.351   0.091  0.00  0.00    +0.000 C 
ATOM     32  C   UNL     1      20.304   1.484  -0.519  0.00  0.00    +0.000 A 
ATOM     33  C   UNL     1      21.497   0.682  -1.231  0.00  0.00    +0.000 A 
ATOM     34  C   UNL     1      22.572   1.228  -1.830  0.00  0.00    +0.000 A 
ATOM     35  C   UNL     1      22.309   2.589  -1.832  0.00  0.00    +0.000 A 
ATOM     36  C   UNL     1      20.971   3.436  -1.074  0.00  0.00    +0.000 A 
ATOM     37  C   UNL     1      19.681   2.939  -0.185  0.00  0.00    +0.000 A 
ENDBRANCH  24  27
ENDBRANCH  18  19
ENDBRANCH   4  18
BRANCH   5  38
ATOM     38  O   UNL     1       9.624   1.928   1.014  0.00  0.00    +0.000 OA
BRANCH  38  39
ATOM     39  C   UNL     1       9.059   0.722   1.524  0.00  0.00    +0.000 C 
BRANCH  39  40
ATOM     40  C   UNL     1      10.126  -0.330   1.683  0.00  0.00    +0.000 C 
ATOM     41  C   UNL     1       9.831  -1.604   1.970  0.00  0.00    +0.000 C 
ATOM     42  I   UNL     1      11.239  -3.066   2.176  0.00  0.00    +0.000 I 
ENDBRANCH  39  40
ENDBRANCH  38  39
ENDBRANCH   5  38
TORSDOF 9
