REMARK  Name = CHEMBL3763342
REMARK  9 active torsions:
REMARK  status: ('A' for Active; 'I' for Inactive)
REMARK    1  A    between atoms: C_1  and  C_2
REMARK    2  A    between atoms: C_4  and  C_5
REMARK    3  A    between atoms: N_12  and  C_13
REMARK    4  A    between atoms: C_24  and  C_25
REMARK    5  A    between atoms: C_25  and  N_26
REMARK    6  A    between atoms: N_32  and  C_33
REMARK    7  A    between atoms: C_33  and  C_34
REMARK    8  A    between atoms: C_36  and  O_37
REMARK    9  A    between atoms: C_39  and  O_40
REMARK                            x       y       z     vdW  Elec       q    Type
REMARK                         _______ _______ _______ _____ _____    ______ ____
ROOT
ATOM      1  C   UNL     1       2.430  -0.327   0.003  0.00  0.00    +0.000 C 
ATOM      2  C   UNL     1       0.949  -0.095  -0.011  0.00  0.00    +0.000 A 
ATOM      3  C   UNL     1       0.145  -1.253  -0.049  0.00  0.00    +0.000 A 
ATOM      4  C   UNL     1      -1.258  -1.175  -0.095  0.00  0.00    +0.000 A 
ATOM      5  C   UNL     1      -1.840   0.078  -0.022  0.00  0.00    +0.000 A 
ATOM      6  C   UNL     1      -1.065   1.235  -0.007  0.00  0.00    +0.000 A 
ATOM      7  C   UNL     1       0.341   1.186  -0.027  0.00  0.00    +0.000 A 
ENDROOT
BRANCH   4   8
ATOM      8  C   UNL     1      -2.081  -2.423  -0.106  0.00  0.00    +0.000 C 
ATOM      9  O   UNL     1      -1.429  -3.468  -0.072  0.00  0.00    +0.000 OA
ATOM     10  N   UNL     1      -3.495  -2.317   0.029  0.00  0.00    +0.000 N 
ATOM     11  C   UNL     1      -4.340  -1.633  -1.011  0.00  0.00    +0.000 C 
ATOM     12  C   UNL     1      -5.267  -0.580  -0.461  0.00  0.00    +0.000 A 
ATOM     13  C   UNL     1      -5.687   0.688  -0.974  0.00  0.00    +0.000 A 
ATOM     14  N   UNL     1      -6.564   1.325  -0.179  0.00  0.00    +0.000 NA
ATOM     15  N   UNL     1      -6.729   0.469   0.844  0.00  0.00    +0.000 N 
ATOM     16  C   UNL     1      -7.619   0.752   1.953  0.00  0.00    +0.000 C 
ATOM     17  C   UNL     1      -5.956  -0.659   0.721  0.00  0.00    +0.000 A 
ATOM     18  N   UNL     1      -5.984  -1.589   1.679  0.00  0.00    +0.000 N 
ATOM     19  C   UNL     1      -5.241  -2.773   1.791  0.00  0.00    +0.000 A 
ATOM     20  C   UNL     1      -5.643  -3.579   2.890  0.00  0.00    +0.000 A 
ATOM     21  C   UNL     1      -5.050  -4.796   3.178  0.00  0.00    +0.000 A 
ATOM     22  C   UNL     1      -4.046  -5.249   2.351  0.00  0.00    +0.000 A 
ATOM     23  C   UNL     1      -3.611  -4.457   1.283  0.00  0.00    +0.000 A 
ATOM     24  C   UNL     1      -4.158  -3.191   0.987  0.00  0.00    +0.000 A 
ATOM     25  H   UNL     1      -6.641  -1.484   2.442  0.00  0.00    +0.000 HD
ENDBRANCH   4   8
BRANCH   7  26
ATOM     26  C   UNL     1       1.031   2.551  -0.046  0.00  0.00    +0.000 C 
BRANCH  26  27
ATOM     27  N   UNL     1       2.449   2.510  -0.243  0.00  0.00    +0.000 N 
ATOM     28  C   UNL     1       3.305   3.499   0.146  0.00  0.00    +0.000 C 
ATOM     29  O   UNL     1       2.978   4.623   0.410  0.00  0.00    +0.000 OA
ATOM     30  N   UNL     1       4.560   2.896   0.388  0.00  0.00    +0.000 N 
ATOM     31  C   UNL     1       5.487   3.700   1.304  0.00  0.00    +0.000 C 
ATOM     32  C   UNL     1       6.580   2.780   1.857  0.00  0.00    +0.000 C 
ATOM     33  N   UNL     1       7.289   1.949   0.844  0.00  0.00    +0.000 NA
ATOM     34  C   UNL     1       6.331   1.040   0.156  0.00  0.00    +0.000 C 
ATOM     35  C   UNL     1       5.182   1.749  -0.568  0.00  0.00    +0.000 C 
ATOM     36  H   UNL     1       2.906   1.703   0.094  0.00  0.00    +0.000 HD
BRANCH  33  37
ATOM     37  C   UNL     1       8.334   2.657  -0.014  0.00  0.00    +0.000 C 
BRANCH  37  38
ATOM     38  C   UNL     1       7.969   3.752  -1.038  0.00  0.00    +0.000 A 
ATOM     39  C   UNL     1       8.716   4.559  -1.843  0.00  0.00    +0.000 A 
ATOM     40  C   UNL     1       8.042   5.540  -2.672  0.00  0.00    +0.000 A 
ATOM     41  C   UNL     1       6.649   5.744  -2.748  0.00  0.00    +0.000 A 
ATOM     42  C   UNL     1       5.911   4.905  -2.024  0.00  0.00    +0.000 A 
ATOM     43  C   UNL     1       6.654   4.038  -1.261  0.00  0.00    +0.000 A 
BRANCH  40  44
ATOM     44  O   UNL     1       8.774   6.345  -3.489  0.00  0.00    +0.000 OA
ATOM     45  H   UNL     1       9.690   6.057  -3.377  0.00  0.00    +0.000 HD
ENDBRANCH  40  44
BRANCH  42  46
ATOM     46  O   UNL     1       4.567   4.783  -1.983  0.00  0.00    +0.000 OA
ATOM     47  H   UNL     1       4.087   5.591  -2.216  0.00  0.00    +0.000 HD
ENDBRANCH  42  46
ENDBRANCH  37  38
ENDBRANCH  33  37
ENDBRANCH  26  27
ENDBRANCH   7  26
TORSDOF 7
