REMARK  Name = CHEMBL30587
REMARK  6 active torsions:
REMARK  status: ('A' for Active; 'I' for Inactive)
REMARK    1  A    between atoms: C_2  and  C_3
REMARK    2  A    between atoms: C_8  and  C_9
REMARK    3  A    between atoms: C_9  and  N_10
REMARK    4  A    between atoms: C_13  and  N_14
REMARK    5  A    between atoms: C_16  and  C_17
REMARK    6  A    between atoms: C_33  and  N_34
REMARK                            x       y       z     vdW  Elec       q    Type
REMARK                         _______ _______ _______ _____ _____    ______ ____
ROOT
ATOM      1  C   UNL     1       3.238   1.033  -0.347  0.00  0.00    +0.000 A 
ATOM      2  C   UNL     1       3.058   2.211   0.357  0.00  0.00    +0.000 A 
ATOM      3  C   UNL     1       4.057   3.195   0.305  0.00  0.00    +0.000 A 
ATOM      4  C   UNL     1       4.950   3.103  -0.763  0.00  0.00    +0.000 A 
ATOM      5  O   UNL     1       5.731   4.106  -1.215  0.00  0.00    +0.000 OA
ATOM      6  C   UNL     1       6.439   3.680  -2.293  0.00  0.00    +0.000 A 
ATOM      7  C   UNL     1       6.144   2.345  -2.483  0.00  0.00    +0.000 A 
ATOM      8  C   UNL     1       5.088   2.010  -1.586  0.00  0.00    +0.000 A 
ATOM      9  C   UNL     1       4.278   0.903  -1.294  0.00  0.00    +0.000 A 
ENDROOT
BRANCH   1  11
ATOM     10  O   UNL     1       1.171  -0.067  -0.106  0.00  0.00    +0.000 OA
ATOM     11  C   UNL     1       2.389  -0.140  -0.014  0.00  0.00    +0.000 C 
ATOM     12  N   UNL     1       3.111  -1.301   0.300  0.00  0.00    +0.000 N 
ATOM     13  C   UNL     1       3.936  -1.342   1.514  0.00  0.00    +0.000 C 
ATOM     14  C   UNL     1       5.105  -2.296   1.355  0.00  0.00    +0.000 C 
ATOM     15  C   UNL     1       4.484  -3.953   1.323  0.00  0.00    +0.000 C 
ATOM     16  C   UNL     1       3.712  -3.619  -0.214  0.00  0.00    +0.000 C 
ATOM     17  C   UNL     1       2.583  -2.596  -0.110  0.00  0.00    +0.000 C 
BRANCH  15  18
ATOM     18  N   UNL     1       4.122  -4.768   2.959  0.00  0.00    +0.000 N 
ATOM     19  C   UNL     1       5.574  -4.835   2.947  0.00  0.00    +0.000 C 
ATOM     20  O   UNL     1       6.429  -3.904   2.728  0.00  0.00    +0.000 OA
ATOM     21  O   UNL     1       6.117  -6.019   3.017  0.00  0.00    +0.000 OA
ATOM     22  C   UNL     1       6.409  -5.958   4.361  0.00  0.00    +0.000 C 
ATOM     23  C   UNL     1       5.233  -6.753   4.632  0.00  0.00    +0.000 A 
ATOM     24  C   UNL     1       5.573  -8.088   5.211  0.00  0.00    +0.000 A 
ATOM     25  C   UNL     1       4.723  -8.961   5.823  0.00  0.00    +0.000 A 
ATOM     26  C   UNL     1       3.569  -8.293   6.123  0.00  0.00    +0.000 A 
ATOM     27  C   UNL     1       3.223  -6.843   5.422  0.00  0.00    +0.000 A 
ATOM     28  C   UNL     1       4.026  -6.124   4.265  0.00  0.00    +0.000 A 
ENDBRANCH  15  18
ENDBRANCH   1  11
BRANCH   6  29
ATOM     29  C   UNL     1       7.446   4.614  -2.912  0.00  0.00    +0.000 C 
BRANCH  29  30
ATOM     30  N   UNL     1       7.370   6.049  -2.573  0.00  0.00    +0.000 NA
ATOM     31  C   UNL     1       6.186   6.686  -3.163  0.00  0.00    +0.000 C 
ATOM     32  C   UNL     1       6.059   8.156  -2.761  0.00  0.00    +0.000 C 
ATOM     33  C   UNL     1       6.175   8.370  -1.234  0.00  0.00    +0.000 C 
ATOM     34  C   UNL     1       7.473   7.731  -0.725  0.00  0.00    +0.000 C 
ATOM     35  C   UNL     1       7.592   6.273  -1.135  0.00  0.00    +0.000 C 
BRANCH  33  36
ATOM     36  N   UNL     1       4.949   7.943  -0.473  0.00  0.00    +0.000 N 
ATOM     37  C   UNL     1       4.400   6.695  -0.706  0.00  0.00    +0.000 A 
ATOM     38  C   UNL     1       3.124   6.370  -0.469  0.00  0.00    +0.000 A 
ATOM     39  C   UNL     1       2.464   7.156   0.527  0.00  0.00    +0.000 A 
ATOM     40  C   UNL     1       2.990   8.318   0.921  0.00  0.00    +0.000 A 
ATOM     41  C   UNL     1       4.206   8.872   0.250  0.00  0.00    +0.000 A 
ATOM     42  O   UNL     1       4.482  10.057   0.378  0.00  0.00    +0.000 OA
BRANCH  38  43
ATOM     43  C   UNL     1       2.367   5.160  -0.931  0.00  0.00    +0.000 C 
ATOM     44  F   UNL     1       1.959   4.473   0.166  0.00  0.00    +0.000 F 
ATOM     45  F   UNL     1       1.220   5.420  -1.599  0.00  0.00    +0.000 F 
ATOM     46  F   UNL     1       3.075   4.369  -1.764  0.00  0.00    +0.000 F 
ENDBRANCH  38  43
ENDBRANCH  33  36
ENDBRANCH  29  30
ENDBRANCH   6  29
TORSDOF 6
