REMARK  Name = CHEMBL592732
REMARK  9 active torsions:
REMARK  status: ('A' for Active; 'I' for Inactive)
REMARK    1  A    between atoms: C_1  and  O_2
REMARK    2  A    between atoms: O_2  and  C_3
REMARK    3  A    between atoms: C_3  and  C_4
REMARK    4  A    between atoms: C_11  and  O_12
REMARK    5  A    between atoms: O_12  and  C_13
REMARK    6  A    between atoms: C_19  and  C_20
REMARK    7  A    between atoms: N_22  and  C_23
REMARK    8  A    between atoms: C_26  and  O_27
REMARK    9  A    between atoms: O_27  and  C_28
REMARK                            x       y       z     vdW  Elec       q    Type
REMARK                         _______ _______ _______ _____ _____    ______ ____
ROOT
ATOM      1  C   UNL     1       4.481  -0.104   1.184  0.00  0.00    +0.000 A 
ATOM      2  N   UNL     1       5.314   0.921   1.282  0.00  0.00    +0.000 NA
ATOM      3  N   UNL     1       6.597   0.436   1.429  0.00  0.00    +0.000 NA
ATOM      4  C   UNL     1       6.565  -0.893   1.383  0.00  0.00    +0.000 A 
ATOM      5  N   UNL     1       7.620  -1.740   1.299  0.00  0.00    +0.000 N 
ATOM      6  C   UNL     1       7.655  -2.834   0.372  0.00  0.00    +0.000 C 
ATOM      7  C   UNL     1       8.044  -3.963   1.284  0.00  0.00    +0.000 C 
ATOM      8  C   UNL     1       9.174  -3.456   2.134  0.00  0.00    +0.000 C 
ATOM      9  C   UNL     1       8.653  -1.966   2.345  0.00  0.00    +0.000 C 
ATOM     10  N   UNL     1       5.222  -1.266   1.247  0.00  0.00    +0.000 N 
ENDROOT
BRANCH  10  11
ATOM     11  C   UNL     1       4.688  -2.569   1.282  0.00  0.00    +0.000 A 
ATOM     12  C   UNL     1       3.874  -3.014   0.247  0.00  0.00    +0.000 A 
ATOM     13  C   UNL     1       3.458  -4.341   0.259  0.00  0.00    +0.000 A 
ATOM     14  C   UNL     1       3.848  -5.166   1.308  0.00  0.00    +0.000 A 
ATOM     15  N   UNL     1       4.612  -4.725   2.334  0.00  0.00    +0.000 NA
ATOM     16  C   UNL     1       5.017  -3.435   2.305  0.00  0.00    +0.000 A 
BRANCH  14  17
ATOM     17  O   UNL     1       3.524  -6.490   1.414  0.00  0.00    +0.000 OA
ATOM     18  C   UNL     1       2.723  -7.024   0.369  0.00  0.00    +0.000 C 
ENDBRANCH  14  17
ENDBRANCH  10  11
BRANCH   1  19
ATOM     19  C   UNL     1       2.986  -0.056   1.256  0.00  0.00    +0.000 C 
BRANCH  19  21
ATOM     20  C   UNL     1       1.026  -0.016  -0.059  0.00  0.00    +0.000 C 
ATOM     21  O   UNL     1       2.453  -0.030  -0.071  0.00  0.00    +0.000 OA
ENDBRANCH  19  21
ENDBRANCH   1  19
BRANCH   8  22
ATOM     22  O   UNL     1      10.433  -3.557   1.399  0.00  0.00    +0.000 OA
BRANCH  22  23
ATOM     23  C   UNL     1      11.049  -4.798   1.221  0.00  0.00    +0.000 A 
ATOM     24  C   UNL     1      12.311  -4.950   1.843  0.00  0.00    +0.000 A 
ATOM     25  C   UNL     1      13.134  -6.066   1.579  0.00  0.00    +0.000 A 
ATOM     26  C   UNL     1      12.727  -7.026   0.670  0.00  0.00    +0.000 A 
ATOM     27  F   UNL     1      13.501  -8.077   0.376  0.00  0.00    +0.000 F 
ATOM     28  C   UNL     1      11.513  -6.903   0.040  0.00  0.00    +0.000 A 
ATOM     29  C   UNL     1      10.667  -5.806   0.286  0.00  0.00    +0.000 A 
ATOM     30  C   UNL     1       9.412  -5.928  -0.528  0.00  0.00    +0.000 C 
ENDBRANCH  22  23
ENDBRANCH   8  22
TORSDOF 6
