REMARK  Name = CHEMBL375324
REMARK  21 active torsions:
REMARK  status: ('A' for Active; 'I' for Inactive)
REMARK    1  A    between atoms: C_2  and  C_4
REMARK    2  A    between atoms: C_4  and  N_5
REMARK    3  A    between atoms: C_6  and  C_8
REMARK    4  A    between atoms: C_8  and  C_9
REMARK    5  A    between atoms: C_8  and  N_16
REMARK    6  A    between atoms: C_9  and  C_10
REMARK    7  A    between atoms: C_10  and  C_11
REMARK    8  A    between atoms: C_11  and  N_12
REMARK    9  A    between atoms: C_17  and  C_19
REMARK   10  A    between atoms: C_24  and  C_26
REMARK   11  A    between atoms: C_35  and  C_36
REMARK   12  A    between atoms: C_36  and  C_37
REMARK   13  A    between atoms: C_40  and  O_41
REMARK   14  A    between atoms: C_47  and  C_48
REMARK   15  A    between atoms: C_48  and  C_49
REMARK   16  A    between atoms: C_58  and  C_59
REMARK   17  A    between atoms: C_59  and  C_60
REMARK   18  A    between atoms: C_60  and  C_61
REMARK   19  A    between atoms: C_61  and  N_62
REMARK   20  A    between atoms: C_69  and  C_70
REMARK   21  A    between atoms: C_70  and  C_71
REMARK                            x       y       z     vdW  Elec       q    Type
REMARK                         _______ _______ _______ _____ _____    ______ ____
ROOT
ATOM      1  C   UNL     1       6.937   4.965  -3.102  0.00  0.00    +0.000 C 
ATOM      2  C   UNL     1       6.332   5.341  -5.429  0.00  0.00    +0.000 C 
ATOM      3  S   UNL     1       5.833   5.097  -8.116  0.00  0.00    +0.000 S 
ATOM      4  S   UNL     1       5.823   4.949 -10.901  0.00  0.00    +0.000 S 
ATOM      5  C   UNL     1       6.749   3.322 -11.955  0.00  0.00    +0.000 C 
ATOM      6  C   UNL     1       7.785   2.839 -13.000  0.00  0.00    +0.000 C 
ATOM      7  C   UNL     1       8.734   1.665 -12.600  0.00  0.00    +0.000 C 
ATOM      8  O   UNL     1       9.447   1.124 -13.451  0.00  0.00    +0.000 OA
ATOM      9  N   UNL     1       8.788   1.259 -11.291  0.00  0.00    +0.000 N 
ATOM     10  C   UNL     1       8.048   1.849 -10.208  0.00  0.00    +0.000 C 
ATOM     11  C   UNL     1       8.591   3.439 -10.025  0.00  0.00    +0.000 C 
ATOM     12  O   UNL     1       8.712   4.312 -10.914  0.00  0.00    +0.000 OA
ATOM     13  N   UNL     1       8.761   3.908  -8.822  0.00  0.00    +0.000 N 
ATOM     14  C   UNL     1       8.870   3.125  -7.682  0.00  0.00    +0.000 C 
ATOM     15  C   UNL     1       7.315   2.655  -7.338  0.00  0.00    +0.000 C 
ATOM     16  O   UNL     1       6.464   2.015  -7.972  0.00  0.00    +0.000 OA
ATOM     17  N   UNL     1       6.824   2.983  -6.217  0.00  0.00    +0.000 N 
ATOM     18  C   UNL     1       7.630   3.459  -5.271  0.00  0.00    +0.000 C 
ATOM     19  C   UNL     1       9.332   2.429  -4.853  0.00  0.00    +0.000 C 
ATOM     20  O   UNL     1      10.256   2.158  -5.577  0.00  0.00    +0.000 OA
ATOM     21  N   UNL     1       9.420   1.757  -3.475  0.00  0.00    +0.000 N 
ATOM     22  C   UNL     1       8.244   2.539  -2.076  0.00  0.00    +0.000 C 
ATOM     23  C   UNL     1       7.819   4.421  -2.809  0.00  0.00    +0.000 C 
ATOM     24  O   UNL     1       8.264   4.831  -4.108  0.00  0.00    +0.000 OA
ATOM     25  N   UNL     1       7.447   5.277  -1.614  0.00  0.00    +0.000 N 
ATOM     26  H   UNL     1       9.385   0.480 -11.008  0.00  0.00    +0.000 HD
ATOM     27  H   UNL     1       9.010   4.883  -8.804  0.00  0.00    +0.000 HD
ATOM     28  H   UNL     1       6.041   2.453  -5.959  0.00  0.00    +0.000 HD
ATOM     29  H   UNL     1      10.411   2.035  -3.257  0.00  0.00    +0.000 HD
ATOM     30  H   UNL     1       8.085   5.955  -0.929  0.00  0.00    +0.000 HD
ENDROOT
BRANCH   1  36
ATOM     31  C   UNL     1      11.383   2.832  -0.552  0.00  0.00    +0.000 C 
ATOM     32  C   UNL     1      11.846   1.293  -0.982  0.00  0.00    +0.000 C 
ATOM     33  C   UNL     1      12.071   0.622   0.295  0.00  0.00    +0.000 C 
ATOM     34  C   UNL     1      10.660   1.748   1.109  0.00  0.00    +0.000 C 
ATOM     35  N   UNL     1       9.749   3.354   0.063  0.00  0.00    +0.000 N 
ATOM     36  C   UNL     1       8.221   4.159  -1.082  0.00  0.00    +0.000 C 
ATOM     37  O   UNL     1       8.050   3.912   0.322  0.00  0.00    +0.000 OA
BRANCH  31  39
ATOM     38  N   UNL     1      10.159   3.012  -2.358  0.00  0.00    +0.000 N 
ATOM     39  C   UNL     1      11.058   3.537  -1.670  0.00  0.00    +0.000 C 
ATOM     40  O   UNL     1      11.324   4.621  -2.051  0.00  0.00    +0.000 OA
ATOM     41  H   UNL     1       9.734   1.890  -2.198  0.00  0.00    +0.000 HD
BRANCH  38  42
ATOM     42  C   UNL     1       9.253   3.614  -3.299  0.00  0.00    +0.000 C 
BRANCH  42  44
ATOM     43  N   UNL     1       7.889   6.587  -3.614  0.00  0.00    +0.000 N 
ATOM     44  C   UNL     1       9.304   5.668  -2.871  0.00  0.00    +0.000 C 
ATOM     45  O   UNL     1       9.493   5.860  -1.645  0.00  0.00    +0.000 OA
ATOM     46  H   UNL     1       7.233   5.988  -4.358  0.00  0.00    +0.000 HD
BRANCH  43  47
ATOM     47  C   UNL     1       6.901   7.268  -2.746  0.00  0.00    +0.000 C 
BRANCH  47  49
ATOM     48  N   UNL     1       5.347   8.942  -3.370  0.00  0.00    +0.000 N 
ATOM     49  C   UNL     1       5.819   7.725  -3.670  0.00  0.00    +0.000 C 
ATOM     50  O   UNL     1       5.392   7.135  -4.645  0.00  0.00    +0.000 OA
ATOM     51  H   UNL     1       4.660   9.371  -3.969  0.00  0.00    +0.000 HD
ATOM     52  H   UNL     1       5.683   9.460  -2.578  0.00  0.00    +0.000 HD
ENDBRANCH  47  49
ENDBRANCH  43  47
ENDBRANCH  42  44
BRANCH  42  53
ATOM     53  C   UNL     1       7.594   2.145  -3.725  0.00  0.00    +0.000 C 
BRANCH  53  54
ATOM     54  C   UNL     1       7.671   1.167  -4.743  0.00  0.00    +0.000 C 
BRANCH  54  55
ATOM     55  C   UNL     1       6.401   0.591  -4.937  0.00  0.00    +0.000 C 
BRANCH  55  56
ATOM     56  N   UNL     1       6.759  -0.221  -5.978  0.00  0.00    +0.000 NA
ATOM     57  C   UNL     1       5.780  -0.927  -6.359  0.00  0.00    +0.000 C 
ATOM     58  N   UNL     1       4.529  -0.878  -5.871  0.00  0.00    +0.000 N 
ATOM     59  N   UNL     1       6.036  -1.908  -7.196  0.00  0.00    +0.000 N 
ATOM     60  H   UNL     1       4.278  -0.220  -5.142  0.00  0.00    +0.000 HD
ATOM     61  H   UNL     1       3.782  -1.465  -6.191  0.00  0.00    +0.000 HD
ATOM     62  H   UNL     1       6.959  -1.883  -7.627  0.00  0.00    +0.000 HD
ATOM     63  H   UNL     1       5.399  -2.474  -7.731  0.00  0.00    +0.000 HD
ENDBRANCH  55  56
ENDBRANCH  54  55
ENDBRANCH  53  54
ENDBRANCH  42  53
ENDBRANCH  38  42
ENDBRANCH  31  39
ENDBRANCH   1  36
BRANCH  10  64
ATOM     64  C   UNL     1       8.336   1.010  -9.065  0.00  0.00    +0.000 C 
BRANCH  64  65
ATOM     65  C   UNL     1       7.847  -0.331  -9.017  0.00  0.00    +0.000 A 
ATOM     66  C   UNL     1       6.580  -0.686  -9.453  0.00  0.00    +0.000 A 
ATOM     67  C   UNL     1       6.288  -2.041  -9.628  0.00  0.00    +0.000 A 
ATOM     68  C   UNL     1       7.254  -2.997  -9.265  0.00  0.00    +0.000 A 
ATOM     69  C   UNL     1       8.489  -2.588  -8.753  0.00  0.00    +0.000 A 
ATOM     70  C   UNL     1       8.785  -1.253  -8.626  0.00  0.00    +0.000 A 
BRANCH  68  71
ATOM     71  O   UNL     1       7.017  -4.331  -9.219  0.00  0.00    +0.000 OA
ATOM     72  H   UNL     1       6.141  -4.584  -9.545  0.00  0.00    +0.000 HD
ENDBRANCH  68  71
ENDBRANCH  64  65
ENDBRANCH  10  64
BRANCH  22  73
ATOM     73  C   UNL     1       8.575   1.866  -0.821  0.00  0.00    +0.000 C 
BRANCH  73  74
ATOM     74  C   UNL     1       9.083   0.544  -0.920  0.00  0.00    +0.000 C 
ATOM     75  N   UNL     1       8.981  -0.004  -2.128  0.00  0.00    +0.000 N 
ATOM     76  O   UNL     1       9.665  -0.005  -0.027  0.00  0.00    +0.000 OA
ATOM     77  H   UNL     1       8.644   0.468  -2.940  0.00  0.00    +0.000 HD
ATOM     78  H   UNL     1       9.229  -0.938  -2.319  0.00  0.00    +0.000 HD
ENDBRANCH  73  74
ENDBRANCH  22  73
BRANCH  18  79
ATOM     79  C   UNL     1       6.400   3.640  -4.231  0.00  0.00    +0.000 C 
BRANCH  79  80
ATOM     80  C   UNL     1       5.145   4.236  -4.131  0.00  0.00    +0.000 C 
BRANCH  80  81
ATOM     81  C   UNL     1       4.555   4.387  -2.786  0.00  0.00    +0.000 C 
BRANCH  81  82
ATOM     82  N   UNL     1       3.321   5.015  -3.095  0.00  0.00    +0.000 NA
ATOM     83  C   UNL     1       2.494   5.199  -2.134  0.00  0.00    +0.000 C 
ATOM     84  N   UNL     1       2.769   4.846  -0.839  0.00  0.00    +0.000 N 
ATOM     85  N   UNL     1       1.276   5.766  -2.417  0.00  0.00    +0.000 N 
ATOM     86  H   UNL     1       3.663   4.423  -0.569  0.00  0.00    +0.000 HD
ATOM     87  H   UNL     1       2.138   4.970  -0.063  0.00  0.00    +0.000 HD
ATOM     88  H   UNL     1       1.018   6.047  -3.375  0.00  0.00    +0.000 HD
ATOM     89  H   UNL     1       0.548   5.944  -1.740  0.00  0.00    +0.000 HD
ENDBRANCH  81  82
ENDBRANCH  80  81
ENDBRANCH  79  80
ENDBRANCH  18  79
BRANCH  14  90
ATOM     90  C   UNL     1       9.474   4.066  -6.779  0.00  0.00    +0.000 C 
BRANCH  90  91
ATOM     91  C   UNL     1      10.823   4.483  -6.920  0.00  0.00    +0.000 A 
ATOM     92  C   UNL     1      11.894   3.659  -7.099  0.00  0.00    +0.000 A 
ATOM     93  C   UNL     1      13.120   4.255  -7.144  0.00  0.00    +0.000 A 
ATOM     94  C   UNL     1      13.248   5.613  -7.281  0.00  0.00    +0.000 A 
ATOM     95  C   UNL     1      12.144   6.395  -7.103  0.00  0.00    +0.000 A 
ATOM     96  C   UNL     1      10.928   5.834  -6.915  0.00  0.00    +0.000 A 
ENDBRANCH  90  91
ENDBRANCH  14  90
TORSDOF 21
