REMARK  Name = CHEMBL1094049
REMARK  7 active torsions:
REMARK  status: ('A' for Active; 'I' for Inactive)
REMARK    1  A    between atoms: C_1  and  C_2
REMARK    2  A    between atoms: C_2  and  N_3
REMARK    3  A    between atoms: N_3  and  C_19
REMARK    4  A    between atoms: C_8  and  O_9
REMARK    5  A    between atoms: O_9  and  C_10
REMARK    6  A    between atoms: C_22  and  O_23
REMARK    7  A    between atoms: O_23  and  C_24
REMARK                            x       y       z     vdW  Elec       q    Type
REMARK                         _______ _______ _______ _____ _____    ______ ____
ROOT
ATOM      1  N   UNL     1       2.874  -0.524  -1.210  0.00  0.00    +0.000 N 
ATOM      2  C   UNL     1       1.910  -1.006  -2.157  0.00  0.00    +0.000 C 
ATOM      3  O   UNL     1       2.272  -1.635  -3.167  0.00  0.00    +0.000 OA
ATOM      4  N   UNL     1       0.549  -0.952  -1.844  0.00  0.00    +0.000 N 
ATOM      5  C   UNL     1      -0.552  -1.839  -2.242  0.00  0.00    +0.000 C 
ATOM      6  C   UNL     1      -1.429  -0.579  -2.454  0.00  0.00    +0.000 C 
ATOM      7  C   UNL     1      -0.422   0.124  -1.573  0.00  0.00    +0.000 C 
ENDROOT
BRANCH   1   8
ATOM      8  C   UNL     1       4.314  -0.693  -1.467  0.00  0.00    +0.000 A 
ATOM      9  C   UNL     1       5.207  -1.087  -0.453  0.00  0.00    +0.000 A 
ATOM     10  C   UNL     1       6.585  -1.205  -0.680  0.00  0.00    +0.000 A 
ATOM     11  C   UNL     1       7.087  -0.896  -1.929  0.00  0.00    +0.000 A 
ATOM     12  N   UNL     1       6.275  -0.474  -2.924  0.00  0.00    +0.000 NA
ATOM     13  C   UNL     1       4.924  -0.401  -2.683  0.00  0.00    +0.000 A 
BRANCH  11  14
ATOM     14  O   UNL     1       8.410  -0.985  -2.278  0.00  0.00    +0.000 OA
ATOM     15  C   UNL     1       9.311  -1.481  -1.292  0.00  0.00    +0.000 C 
ENDBRANCH  11  14
ENDBRANCH   1   8
BRANCH   1  17
ATOM     16  C   UNL     1       1.219   0.209   0.550  0.00  0.00    +0.000 C 
ATOM     17  C   UNL     1       2.635   0.017   0.157  0.00  0.00    +0.000 C 
ENDBRANCH   1  17
BRANCH   6  18
ATOM     18  O   UNL     1      -1.572  -0.031  -3.784  0.00  0.00    +0.000 OA
BRANCH  18  19
ATOM     19  C   UNL     1      -2.377   1.084  -3.890  0.00  0.00    +0.000 A 
ATOM     20  C   UNL     1      -2.013   2.320  -3.333  0.00  0.00    +0.000 A 
ATOM     21  C   UNL     1      -2.805   3.449  -3.538  0.00  0.00    +0.000 A 
ATOM     22  C   UNL     1      -3.941   3.345  -4.326  0.00  0.00    +0.000 A 
ATOM     23  F   UNL     1      -4.682   4.437  -4.550  0.00  0.00    +0.000 F 
ATOM     24  C   UNL     1      -4.312   2.133  -4.896  0.00  0.00    +0.000 A 
ATOM     25  C   UNL     1      -3.532   0.999  -4.671  0.00  0.00    +0.000 A 
ATOM     26 CL   UNL     1      -4.022  -0.501  -5.371  0.00  0.00    +0.000 Cl
ENDBRANCH  18  19
ENDBRANCH   6  18
TORSDOF 5
