REMARK  Name = CHEMBL2035012
REMARK  12 active torsions:
REMARK  status: ('A' for Active; 'I' for Inactive)
REMARK    1  A    between atoms: CD1_1  and  CG_2
REMARK    2  A    between atoms: CG_2  and  CD2_3
REMARK    3  A    between atoms: CG_2  and  CB_4
REMARK    4  A    between atoms: CB_4  and  CA_5
REMARK    5  A    between atoms: C_9  and  C_10
REMARK    6  A    between atoms: N_21  and  C_22
REMARK    7  A    between atoms: C_22  and  C_23
REMARK    8  A    between atoms: C_22  and  C_29
REMARK    9  A    between atoms: N_25  and  C_26
REMARK   10  A    between atoms: C_26  and  C_27
REMARK   11  A    between atoms: C_26  and  C_28
REMARK   12  A    between atoms: C_34  and  C_35
REMARK                            x       y       z     vdW  Elec       q    Type
REMARK                         _______ _______ _______ _____ _____    ______ ____
ROOT
ATOM      1  CA  LEU A   2       4.580  -1.126   0.872  0.00  0.00    +0.000 C 
ATOM      2  C   LEU A   2       5.018  -2.489   1.480  0.00  0.00    +0.000 C 
ATOM      3  O   LEU A   2       4.348  -3.490   1.569  0.00  0.00    +0.000 OA
ATOM      4  N   UNK A   1       6.311  -2.484   1.919  0.00  0.00    +0.000 N 
ATOM      5  C   UNK A   1       7.164  -1.322   1.813  0.00  0.00    +0.000 C 
ATOM      6  C   UNK A   1       6.365  -0.121   2.268  0.00  0.00    +0.000 C 
ATOM      7  O   UNK A   1       6.941   0.779   2.861  0.00  0.00    +0.000 OA
ATOM      8  N   LEU A   2       5.022  -0.100   1.906  0.00  0.00    +0.000 N 
ATOM      9  H   UNK A   1       6.589  -3.334   2.392  0.00  0.00    +0.000 HD
ENDROOT
BRANCH   5  10
ATOM     10  C   UNK A   1       8.373  -1.319   2.773  0.00  0.00    +0.000 C 
ATOM     11  C   UNK A   1       9.251  -2.545   2.557  0.00  0.00    +0.000 C 
ATOM     12  C   UNK A   1       8.612  -3.504   3.513  0.00  0.00    +0.000 A 
ATOM     13  C   UNK A   1       8.608  -4.879   3.438  0.00  0.00    +0.000 A 
ATOM     14  C   UNK A   1       7.819  -5.582   4.349  0.00  0.00    +0.000 A 
ATOM     15  C   UNK A   1       7.035  -4.910   5.304  0.00  0.00    +0.000 A 
ATOM     16  C   UNK A   1       7.027  -3.520   5.364  0.00  0.00    +0.000 A 
ATOM     17  C   UNK A   1       7.834  -2.837   4.472  0.00  0.00    +0.000 A 
ATOM     18  C   UNK A   1       7.906  -1.364   4.265  0.00  0.00    +0.000 C 
ENDBRANCH   5  10
BRANCH   1  19
ATOM     19  CB  LEU A   2       3.096  -1.275   0.570  0.00  0.00    +0.000 C 
BRANCH  19  21
ATOM     20  CD1 LEU A   2       0.876  -0.181  -0.315  0.00  0.00    +0.000 C 
ATOM     21  CG  LEU A   2       2.408  -0.182  -0.329  0.00  0.00    +0.000 C 
ATOM     22  CD2 LEU A   2       2.759   1.285  -0.143  0.00  0.00    +0.000 C 
ENDBRANCH  19  21
ENDBRANCH   1  19
BRANCH   8  23
ATOM     23  C   UNK A   0       4.204   1.014   2.458  0.00  0.00    +0.000 C 
BRANCH  23  24
ATOM     24  C   UNK A   0       4.937   2.323   2.845  0.00  0.00    +0.000 A 
ATOM     25  C   UNK A   0       4.591   2.950   4.052  0.00  0.00    +0.000 A 
ATOM     26  C   UNK A   0       5.149   4.148   4.444  0.00  0.00    +0.000 A 
ATOM     27  C   UNK A   0       6.178   4.689   3.701  0.00  0.00    +0.000 A 
ATOM     28  C   UNK A   0       6.561   4.104   2.494  0.00  0.00    +0.000 A 
ATOM     29  C   UNK A   0       5.917   2.955   1.999  0.00  0.00    +0.000 A 
BRANCH  29  30
ATOM     30  C   UNK A   0       6.481   2.429   0.669  0.00  0.00    +0.000 C 
ATOM     31  F   UNK A   0       6.413   3.364  -0.325  0.00  0.00    +0.000 F 
ATOM     32  F   UNK A   0       7.805   2.087   0.737  0.00  0.00    +0.000 F 
ATOM     33  F   UNK A   0       5.885   1.337   0.116  0.00  0.00    +0.000 F 
ENDBRANCH  29  30
ENDBRANCH  23  24
BRANCH  23  34
ATOM     34  C   UNK A   0       2.942   0.586   3.353  0.00  0.00    +0.000 C 
ATOM     35  O   UNK A   0       2.779   0.874   4.533  0.00  0.00    +0.000 OA
ATOM     36  N   UNK A   0       1.942  -0.144   2.764  0.00  0.00    +0.000 N 
ATOM     37  H   UNK A   0       1.790  -0.050   1.789  0.00  0.00    +0.000 HD
BRANCH  36  38
ATOM     38  C   UNK A   0       0.838  -0.780   3.446  0.00  0.00    +0.000 C 
ATOM     39  C   UNK A   0      -0.164   0.318   3.726  0.00  0.00    +0.000 C 
ATOM     40  C   UNK A   0       0.189  -1.907   2.616  0.00  0.00    +0.000 C 
ENDBRANCH  36  38
ENDBRANCH  23  34
ENDBRANCH   8  23
TORSDOF 8
