REMARK  Name = CHEMBL194431
REMARK  11 active torsions:
REMARK  status: ('A' for Active; 'I' for Inactive)
REMARK    1  A    between atoms: C_1  and  C_2
REMARK    2  A    between atoms: C_2  and  C_3
REMARK    3  A    between atoms: C_2  and  C_4
REMARK    4  A    between atoms: C_4  and  C_5
REMARK    5  A    between atoms: C_8  and  C_9
REMARK    6  A    between atoms: N_20  and  C_21
REMARK    7  A    between atoms: C_21  and  C_22
REMARK    8  A    between atoms: C_21  and  C_28
REMARK    9  A    between atoms: N_24  and  C_25
REMARK   10  A    between atoms: C_25  and  C_26
REMARK   11  A    between atoms: C_25  and  C_27
REMARK                            x       y       z     vdW  Elec       q    Type
REMARK                         _______ _______ _______ _____ _____    ______ ____
ROOT
ATOM      1  C   UNL     1       4.557   0.713   1.165  0.00  0.00    +0.000 C 
ATOM      2  C   UNL     1       5.100  -0.729   1.273  0.00  0.00    +0.000 C 
ATOM      3  N   UNL     1       4.568  -1.332   2.493  0.00  0.00    +0.000 NA
ATOM      4  C   UNL     1       5.007  -0.570   3.686  0.00  0.00    +0.000 C 
ATOM      5  C   UNL     1       5.083   0.952   3.502  0.00  0.00    +0.000 C 
ATOM      6  O   UNL     1       5.223   1.645   4.514  0.00  0.00    +0.000 OA
ATOM      7  N   UNL     1       5.056   1.533   2.265  0.00  0.00    +0.000 N 
ATOM      8  H   UNL     1       4.861  -2.305   2.572  0.00  0.00    +0.000 HD
ENDROOT
BRANCH   4   9
ATOM      9  C   UNL     1       4.048  -0.794   4.870  0.00  0.00    +0.000 C 
ATOM     10  C   UNL     1       4.537  -0.218   6.237  0.00  0.00    +0.000 C 
ATOM     11  C   UNL     1       3.242   0.096   6.907  0.00  0.00    +0.000 A 
ATOM     12  C   UNL     1       3.065   0.444   8.230  0.00  0.00    +0.000 A 
ATOM     13  C   UNL     1       1.769   0.697   8.670  0.00  0.00    +0.000 A 
ATOM     14  C   UNL     1       0.687   0.652   7.776  0.00  0.00    +0.000 A 
ATOM     15  C   UNL     1       0.888   0.373   6.425  0.00  0.00    +0.000 A 
ATOM     16  C   UNL     1       2.174   0.088   6.008  0.00  0.00    +0.000 A 
ATOM     17  C   UNL     1       2.644  -0.174   4.618  0.00  0.00    +0.000 C 
ENDBRANCH   4   9
BRANCH   1  18
ATOM     18  C   UNL     1       3.005   0.658   1.126  0.00  0.00    +0.000 C 
BRANCH  18  20
ATOM     19  C   UNL     1       0.940   0.017  -0.108  0.00  0.00    +0.000 C 
ATOM     20  C   UNL     1       2.466  -0.022  -0.138  0.00  0.00    +0.000 C 
ATOM     21  C   UNL     1       3.051   0.577  -1.413  0.00  0.00    +0.000 C 
ENDBRANCH  18  20
ENDBRANCH   1  18
BRANCH   7  22
ATOM     22  C   UNL     1       5.213   3.028   2.114  0.00  0.00    +0.000 C 
BRANCH  22  23
ATOM     23  C   UNL     1       5.905   3.757   3.307  0.00  0.00    +0.000 A 
ATOM     24  C   UNL     1       5.331   4.852   3.979  0.00  0.00    +0.000 A 
ATOM     25  C   UNL     1       5.957   5.490   5.043  0.00  0.00    +0.000 A 
ATOM     26  C   UNL     1       7.097   4.938   5.596  0.00  0.00    +0.000 A 
ATOM     27  C   UNL     1       7.651   3.796   5.027  0.00  0.00    +0.000 A 
ATOM     28  C   UNL     1       7.108   3.256   3.854  0.00  0.00    +0.000 A 
ENDBRANCH  22  23
BRANCH  22  29
ATOM     29  C   UNL     1       3.900   3.746   1.619  0.00  0.00    +0.000 C 
ATOM     30  O   UNL     1       3.204   4.493   2.305  0.00  0.00    +0.000 OA
ATOM     31  N   UNL     1       3.482   3.528   0.313  0.00  0.00    +0.000 N 
ATOM     32  H   UNL     1       3.904   2.795  -0.231  0.00  0.00    +0.000 HD
BRANCH  31  33
ATOM     33  C   UNL     1       2.221   4.145  -0.107  0.00  0.00    +0.000 C 
ATOM     34  C   UNL     1       2.467   5.633  -0.291  0.00  0.00    +0.000 C 
ATOM     35  C   UNL     1       1.639   3.601  -1.404  0.00  0.00    +0.000 C 
ENDBRANCH  31  33
ENDBRANCH  22  29
ENDBRANCH   7  22
TORSDOF 7
