REMARK  Name = CHEMBL4474284
REMARK  26 active torsions:
REMARK  status: ('A' for Active; 'I' for Inactive)
REMARK    1  A    between atoms: C_1  and  C_2
REMARK    2  A    between atoms: C_2  and  C_3
REMARK    3  A    between atoms: C_3  and  C_4
REMARK    4  A    between atoms: C_3  and  C_5
REMARK    5  A    between atoms: C_9  and  C_10
REMARK    6  A    between atoms: C_10  and  C_11
REMARK    7  A    between atoms: C_14  and  O_15
REMARK    8  A    between atoms: C_21  and  N_22
REMARK    9  A    between atoms: C_27  and  C_28
REMARK   10  A    between atoms: N_30  and  C_31
REMARK   11  A    between atoms: N_30  and  C_47
REMARK   12  A    between atoms: C_31  and  C_32
REMARK   13  A    between atoms: N_34  and  C_35
REMARK   14  A    between atoms: C_35  and  C_36
REMARK   15  A    between atoms: C_35  and  C_40
REMARK   16  A    between atoms: C_36  and  C_37
REMARK   17  A    between atoms: C_37  and  C_38
REMARK   18  A    between atoms: C_37  and  C_39
REMARK   19  A    between atoms: N_42  and  C_43
REMARK   20  A    between atoms: C_43  and  C_44
REMARK   21  A    between atoms: C_47  and  C_48
REMARK   22  A    between atoms: C_58  and  C_59
REMARK   23  A    between atoms: C_59  and  C_60
REMARK   24  A    between atoms: C_66  and  C_67
REMARK   25  A    between atoms: C_67  and  C_68
REMARK   26  A    between atoms: C_68  and  C_69
REMARK                            x       y       z     vdW  Elec       q    Type
REMARK                         _______ _______ _______ _____ _____    ______ ____
ROOT
ATOM      1  C   UNL     1       4.858   3.740   3.404  0.00  0.00    +0.000 C 
ATOM      2  N   UNL     1       5.324   5.086   5.045  0.00  0.00    +0.000 N 
ATOM      3  C   UNL     1       5.742   6.297   6.708  0.00  0.00    +0.000 C 
ATOM      4  O   UNL     1       6.033   7.780   7.018  0.00  0.00    +0.000 OA
ATOM      5  C   UNL     1       4.921   6.684   8.614  0.00  0.00    +0.000 C 
ATOM      6  N   UNL     1       3.417   7.141   9.070  0.00  0.00    +0.000 N 
ATOM      7  C   UNL     1       2.529   7.526   8.132  0.00  0.00    +0.000 C 
ATOM      8  O   UNL     1       1.341   7.733   8.364  0.00  0.00    +0.000 OA
ATOM      9  C   UNL     1       2.910   7.643   6.675  0.00  0.00    +0.000 C 
ATOM     10  C   UNL     1       2.797   6.458   5.833  0.00  0.00    +0.000 C 
ATOM     11  S   UNL     1       1.306   7.124   5.834  0.00  0.00    +0.000 S 
ATOM     12  S   UNL     1       0.848   5.168   4.456  0.00  0.00    +0.000 S 
ATOM     13  C   UNL     1      -1.413   5.594   3.383  0.00  0.00    +0.000 C 
ATOM     14  C   UNL     1      -2.278   4.561   2.726  0.00  0.00    +0.000 C 
ATOM     15  N   UNL     1      -1.582   4.589   1.572  0.00  0.00    +0.000 N 
ATOM     16  C   UNL     1      -0.281   4.445   1.604  0.00  0.00    +0.000 C 
ATOM     17  O   UNL     1       0.237   4.687   0.530  0.00  0.00    +0.000 OA
ATOM     18  C   UNL     1       0.552   3.881   2.834  0.00  0.00    +0.000 C 
ATOM     19  N   UNL     1       1.235   2.734   3.324  0.00  0.00    +0.000 N 
ATOM     20  C   UNL     1       2.149   2.414   2.494  0.00  0.00    +0.000 C 
ATOM     21  O   UNL     1       2.814   1.338   3.200  0.00  0.00    +0.000 OA
ATOM     22  C   UNL     1       2.535   3.391   0.484  0.00  0.00    +0.000 C 
ATOM     23  N   UNL     1       4.283   4.009   0.508  0.00  0.00    +0.000 N 
ATOM     24  C   UNL     1       5.323   3.646   1.502  0.00  0.00    +0.000 C 
ATOM     25  O   UNL     1       6.241   3.031   0.932  0.00  0.00    +0.000 OA
ATOM     26  H   UNL     1       6.091   6.134   5.580  0.00  0.00    +0.000 HD
ATOM     27  H   UNL     1       2.950   7.156  10.042  0.00  0.00    +0.000 HD
ATOM     28  H   UNL     1      -2.074   4.926   0.788  0.00  0.00    +0.000 HD
ATOM     29  H   UNL     1       0.896   1.891   3.766  0.00  0.00    +0.000 HD
ATOM     30  H   UNL     1       4.332   4.908   0.934  0.00  0.00    +0.000 HD
ENDROOT
BRANCH   9  31
ATOM     31  N   UNL     1       4.181   7.415   6.443  0.00  0.00    +0.000 NA
ATOM     32  H   UNL     1       4.189   6.562   6.985  0.00  0.00    +0.000 HD
ATOM     33  H   UNL     1       4.639   8.045   7.107  0.00  0.00    +0.000 HD
ENDBRANCH   9  31
BRANCH  14  34
ATOM     34  C   UNL     1      -3.839   4.919   2.753  0.00  0.00    +0.000 C 
ATOM     35  O   UNL     1      -4.289   5.227   1.649  0.00  0.00    +0.000 OA
ATOM     36  N   UNL     1      -4.641   4.926   3.962  0.00  0.00    +0.000 N 
BRANCH  36  37
ATOM     37  C   UNL     1      -4.186   4.663   5.426  0.00  0.00    +0.000 C 
BRANCH  37  38
ATOM     38  C   UNL     1      -2.887   3.868   5.644  0.00  0.00    +0.000 C 
ATOM     39  O   UNL     1      -2.296   3.416   4.681  0.00  0.00    +0.000 OA
ATOM     40  N   UNL     1      -2.073   3.927   6.720  0.00  0.00    +0.000 N 
ATOM     41  H   UNL     1      -2.420   4.228   7.595  0.00  0.00    +0.000 HD
BRANCH  40  42
ATOM     42  C   UNL     1      -0.598   3.737   6.664  0.00  0.00    +0.000 C 
BRANCH  42  43
ATOM     43  C   UNL     1       0.046   3.562   7.998  0.00  0.00    +0.000 C 
ATOM     44  O   UNL     1      -0.709   3.682   8.957  0.00  0.00    +0.000 OA
ATOM     45  N   UNL     1       1.413   3.357   8.111  0.00  0.00    +0.000 N 
ATOM     46  H   UNL     1       2.031   3.340   7.313  0.00  0.00    +0.000 HD
BRANCH  45  47
ATOM     47  C   UNL     1       1.997   3.110   9.417  0.00  0.00    +0.000 C 
BRANCH  47  48
ATOM     48  C   UNL     1       3.496   2.787   9.385  0.00  0.00    +0.000 C 
ATOM     49  N   UNL     1       4.117   2.766   8.149  0.00  0.00    +0.000 N 
ATOM     50  O   UNL     1       4.135   2.589  10.416  0.00  0.00    +0.000 OA
ATOM     51  H   UNL     1       3.709   3.026   7.267  0.00  0.00    +0.000 HD
ATOM     52  H   UNL     1       5.121   2.625   8.110  0.00  0.00    +0.000 HD
ENDBRANCH  47  48
ENDBRANCH  45  47
ENDBRANCH  42  43
BRANCH  42  53
ATOM     53  C   UNL     1       0.011   5.037   6.457  0.00  0.00    +0.000 C 
BRANCH  53  54
ATOM     54  C   UNL     1      -0.784   5.928   5.197  0.00  0.00    +0.000 C 
ATOM     55  C   UNL     1      -2.072   6.485   5.213  0.00  0.00    +0.000 C 
ATOM     56  C   UNL     1       0.160   7.131   3.848  0.00  0.00    +0.000 C 
ENDBRANCH  53  54
ENDBRANCH  42  53
ENDBRANCH  40  42
ENDBRANCH  37  38
ENDBRANCH  36  37
BRANCH  36  57
ATOM     57  C   UNL     1      -6.051   5.305   3.808  0.00  0.00    +0.000 C 
BRANCH  57  58
ATOM     58  C   UNL     1      -6.820   5.299   5.106  0.00  0.00    +0.000 A 
ATOM     59  C   UNL     1      -7.141   4.092   5.734  0.00  0.00    +0.000 A 
ATOM     60  C   UNL     1      -7.784   4.074   6.961  0.00  0.00    +0.000 A 
ATOM     61  C   UNL     1      -8.111   5.264   7.570  0.00  0.00    +0.000 A 
ATOM     62  F   UNL     1      -8.747   5.250   8.743  0.00  0.00    +0.000 F 
ATOM     63  C   UNL     1      -7.793   6.469   6.976  0.00  0.00    +0.000 A 
ATOM     64  C   UNL     1      -7.148   6.487   5.747  0.00  0.00    +0.000 A 
ENDBRANCH  57  58
ENDBRANCH  36  57
ENDBRANCH  14  34
BRANCH   1  65
ATOM     65  C   UNL     1       4.230   2.055   1.851  0.00  0.00    +0.000 C 
ATOM     66  C   UNL     1       3.305   0.425   0.830  0.00  0.00    +0.000 C 
BRANCH  65  68
ATOM     67  C   UNL     1       0.785   2.014   0.989  0.00  0.00    +0.000 C 
ATOM     68  C   UNL     1       2.522   1.284   1.210  0.00  0.00    +0.000 C 
ENDBRANCH  65  68
ENDBRANCH   1  65
BRANCH  18  69
ATOM     69  C   UNL     1       1.975   5.327   2.790  0.00  0.00    +0.000 C 
BRANCH  69  70
ATOM     70  C   UNL     1       3.201   5.078   2.429  0.00  0.00    +0.000 C 
ATOM     71  N   UNL     1       2.584   4.086   2.103  0.00  0.00    +0.000 N 
ATOM     72  O   UNL     1       4.271   5.495   2.272  0.00  0.00    +0.000 OA
ATOM     73  H   UNL     1       1.578   3.888   1.659  0.00  0.00    +0.000 HD
ATOM     74  H   UNL     1       3.163   3.341   1.751  0.00  0.00    +0.000 HD
ENDBRANCH  69  70
ENDBRANCH  18  69
BRANCH   5  75
ATOM     75  C   UNL     1       5.069   5.319   8.468  0.00  0.00    +0.000 C 
BRANCH  75  76
ATOM     76  C   UNL     1       6.568   5.265   8.530  0.00  0.00    +0.000 A 
ATOM     77  C   UNL     1       7.425   6.301   9.012  0.00  0.00    +0.000 A 
ATOM     78  C   UNL     1       8.790   6.161   8.933  0.00  0.00    +0.000 A 
ATOM     79  C   UNL     1       9.284   5.028   8.322  0.00  0.00    +0.000 A 
ATOM     80  C   UNL     1       8.440   4.123   7.699  0.00  0.00    +0.000 A 
ATOM     81  C   UNL     1       7.089   4.269   7.753  0.00  0.00    +0.000 A 
BRANCH  79  82
ATOM     82  O   UNL     1      10.603   4.716   8.277  0.00  0.00    +0.000 OA
ATOM     83  H   UNL     1      11.156   5.367   8.733  0.00  0.00    +0.000 HD
ENDBRANCH  79  82
ENDBRANCH  75  76
ENDBRANCH   5  75
BRANCH  22  84
ATOM     84  C   UNL     1       2.214   3.133  -0.934  0.00  0.00    +0.000 C 
BRANCH  84  85
ATOM     85  C   UNL     1       2.212   1.674  -1.102  0.00  0.00    +0.000 C 
BRANCH  85  86
ATOM     86  C   UNL     1       1.900   1.047  -2.318  0.00  0.00    +0.000 C 
ATOM     87  N   UNL     1       1.757   2.030  -3.202  0.00  0.00    +0.000 N 
ATOM     88  O   UNL     1       1.867  -0.160  -2.452  0.00  0.00    +0.000 OA
ATOM     89  H   UNL     1       1.806   3.015  -2.968  0.00  0.00    +0.000 HD
ATOM     90  H   UNL     1       1.617   1.731  -4.125  0.00  0.00    +0.000 HD
ENDBRANCH  85  86
ENDBRANCH  84  85
ENDBRANCH  22  84
TORSDOF 22
