REMARK  Name = CHEMBL4206482
REMARK  4 active torsions:
REMARK  status: ('A' for Active; 'I' for Inactive)
REMARK    1  A    between atoms: C_1  and  C_2
REMARK    2  A    between atoms: C_2  and  C_3
REMARK    3  A    between atoms: C_3  and  C_4
REMARK    4  A    between atoms: C_7  and  C_8
REMARK                            x       y       z     vdW  Elec       q    Type
REMARK                         _______ _______ _______ _____ _____    ______ ____
ROOT
ATOM      1  C   UNL     1      10.131   2.725   0.210  0.00  0.00    +0.000 C 
ATOM      2  O   UNL     1      10.169   1.353   0.318  0.00  0.00    +0.000 OA
ATOM      3  N   UNL     1      11.765   3.820  -0.204  0.00  0.00    +0.000 N 
ATOM      4  C   UNL     1      11.796   2.675   0.568  0.00  0.00    +0.000 C 
ATOM      5  C   UNL     1      11.439   4.129   1.047  0.00  0.00    +0.000 C 
ATOM      6  C   UNL     1      13.155   3.571   1.120  0.00  0.00    +0.000 C 
ATOM      7  C   UNL     1      13.226   5.433   1.174  0.00  0.00    +0.000 C 
ATOM      8  C   UNL     1      14.579   4.801   0.959  0.00  0.00    +0.000 A 
ATOM      9  C   UNL     1      15.752   3.823   0.860  0.00  0.00    +0.000 A 
ATOM     10  C   UNL     1      17.037   4.193   1.104  0.00  0.00    +0.000 A 
ATOM     11  C   UNL     1      16.968   5.492   0.953  0.00  0.00    +0.000 A 
ATOM     12  C   UNL     1      15.242   5.872   0.455  0.00  0.00    +0.000 A 
ATOM     13  C   UNL     1      13.585   5.029  -0.043  0.00  0.00    +0.000 A 
ENDROOT
BRANCH   1  17
ATOM     14  C   UNL     1       4.624   1.349   0.139  0.00  0.00    +0.000 A 
ATOM     15  C   UNL     1       5.509   0.308  -0.010  0.00  0.00    +0.000 A 
ATOM     16  C   UNL     1       7.179   0.573   0.176  0.00  0.00    +0.000 A 
ATOM     17  C   UNL     1       8.198   2.012   0.267  0.00  0.00    +0.000 A 
ATOM     18  C   UNL     1       6.983   2.744   0.455  0.00  0.00    +0.000 A 
ATOM     19  C   UNL     1       5.356   2.511   0.373  0.00  0.00    +0.000 A 
BRANCH  14  20
ATOM     20  C   UNL     1       3.102   1.336   0.135  0.00  0.00    +0.000 C 
BRANCH  20  22
ATOM     21  C   UNL     1       1.023  -0.075   0.058  0.00  0.00    +0.000 C 
ATOM     22  C   UNL     1       2.532  -0.075   0.056  0.00  0.00    +0.000 C 
ENDBRANCH  20  22
ENDBRANCH  14  20
ENDBRANCH   1  17
TORSDOF 3
