REMARK  Name = CHEMBL256692
REMARK  11 active torsions:
REMARK  status: ('A' for Active; 'I' for Inactive)
REMARK    1  A    between atoms: CD1_1  and  CG_2
REMARK    2  A    between atoms: CG_2  and  CD2_3
REMARK    3  A    between atoms: CG_2  and  CB_4
REMARK    4  A    between atoms: CB_4  and  CA_5
REMARK    5  A    between atoms: C_9  and  C_10
REMARK    6  A    between atoms: N_21  and  C_22
REMARK    7  A    between atoms: C_22  and  C_23
REMARK    8  A    between atoms: C_22  and  C_28
REMARK    9  A    between atoms: N_25  and  C_26
REMARK   10  A    between atoms: N_25  and  C_27
REMARK   11  A    between atoms: C_31  and  C_32
REMARK                            x       y       z     vdW  Elec       q    Type
REMARK                         _______ _______ _______ _____ _____    ______ ____
ROOT
ATOM      1  CA  LEU A   2       4.861   0.265  -1.303  0.00  0.00    +0.000 C 
ATOM      2  C   LEU A   2       5.227  -0.872  -2.289  0.00  0.00    +0.000 C 
ATOM      3  O   LEU A   2       4.634  -1.297  -3.276  0.00  0.00    +0.000 OA
ATOM      4  N   UNK A   1       6.392  -1.394  -1.971  0.00  0.00    +0.000 N 
ATOM      5  C   UNK A   1       7.251  -0.718  -1.033  0.00  0.00    +0.000 C 
ATOM      6  C   UNK A   1       6.543  -0.374   0.305  0.00  0.00    +0.000 C 
ATOM      7  O   UNK A   1       7.166  -0.480   1.355  0.00  0.00    +0.000 OA
ATOM      8  N   LEU A   2       5.226   0.079   0.175  0.00  0.00    +0.000 N 
ATOM      9  H   UNK A   1       6.655  -2.087  -2.661  0.00  0.00    +0.000 HD
ENDROOT
BRANCH   5  10
ATOM     10  C   UNK A   1       8.431  -1.625  -0.727  0.00  0.00    +0.000 C 
ATOM     11  C   UNK A   1       9.193  -1.866  -2.038  0.00  0.00    +0.000 C 
ATOM     12  C   UNK A   1       8.530  -3.122  -2.542  0.00  0.00    +0.000 A 
ATOM     13  C   UNK A   1       8.378  -3.512  -3.863  0.00  0.00    +0.000 A 
ATOM     14  C   UNK A   1       7.555  -4.607  -4.140  0.00  0.00    +0.000 A 
ATOM     15  C   UNK A   1       6.874  -5.276  -3.110  0.00  0.00    +0.000 A 
ATOM     16  C   UNK A   1       6.983  -4.847  -1.786  0.00  0.00    +0.000 A 
ATOM     17  C   UNK A   1       7.818  -3.773  -1.514  0.00  0.00    +0.000 A 
ATOM     18  C   UNK A   1       7.958  -3.020  -0.219  0.00  0.00    +0.000 C 
ENDBRANCH   5  10
BRANCH   1  19
ATOM     19  CB  LEU A   2       3.431   0.269  -1.546  0.00  0.00    +0.000 C 
BRANCH  19  21
ATOM     20  CD1 LEU A   2       0.980   0.797   0.489  0.00  0.00    +0.000 C 
ATOM     21  CG  LEU A   2       2.772   0.219  -0.195  0.00  0.00    +0.000 C 
ATOM     22  CD2 LEU A   2       3.486  -1.663   0.000  0.00  0.00    +0.000 C 
ENDBRANCH  19  21
ENDBRANCH   1  19
BRANCH   8  23
ATOM     23  C   UNK A   0       4.055   0.079   1.503  0.00  0.00    +0.000 C 
BRANCH  23  24
ATOM     24  C   UNK A   0       2.301  -0.835   1.511  0.00  0.00    +0.000 C 
ATOM     25  O   UNK A   0       1.939  -1.449   2.589  0.00  0.00    +0.000 OA
ATOM     26  N   UNK A   0       1.370  -1.173  -0.015  0.00  0.00    +0.000 N 
ATOM     27  C   UNK A   0       1.081  -0.116  -1.572  0.00  0.00    +0.000 C 
ATOM     28  C   UNK A   0       0.573  -2.343  -0.045  0.00  0.00    +0.000 C 
ENDBRANCH  23  24
BRANCH  23  29
ATOM     29  C   UNK A   0       4.810  -0.127   2.752  0.00  0.00    +0.000 A 
ATOM     30  C   UNK A   0       4.720  -1.148   3.643  0.00  0.00    +0.000 A 
ATOM     31  O   UNK A   0       5.696  -0.993   4.559  0.00  0.00    +0.000 OA
ATOM     32  C   UNK A   0       6.317   0.163   4.188  0.00  0.00    +0.000 A 
ATOM     33  N   UNK A   0       5.761   0.782   3.170  0.00  0.00    +0.000 NA
BRANCH  32  34
ATOM     34  C   UNK A   0       7.514   0.680   4.925  0.00  0.00    +0.000 C 
ATOM     35  C   UNK A   0       8.410   1.696   4.255  0.00  0.00    +0.000 C 
ATOM     36  C   UNK A   0       7.475   2.131   5.340  0.00  0.00    +0.000 C 
ENDBRANCH  32  34
ENDBRANCH  23  29
ENDBRANCH   8  23
TORSDOF 7
