REMARK  Name = CHEMBL603708
REMARK  4 active torsions:
REMARK  status: ('A' for Active; 'I' for Inactive)
REMARK    1  A    between atoms: C_2  and  C_23
REMARK    2  A    between atoms: N_3  and  C_4
REMARK    3  A    between atoms: C_7  and  C_8
REMARK    4  A    between atoms: C_28  and  C_29
REMARK                            x       y       z     vdW  Elec       q    Type
REMARK                         _______ _______ _______ _____ _____    ______ ____
ROOT
ATOM      1  C   UNL     1       2.266   2.251  -1.123  0.00  0.00    +0.000 A 
ATOM      2  C   UNL     1       2.556   2.956  -2.266  0.00  0.00    +0.000 A 
ATOM      3  C   UNL     1       1.572   4.271  -2.767  0.00  0.00    +0.000 A 
ATOM      4  C   UNL     1       0.014   4.897  -2.283  0.00  0.00    +0.000 A 
ATOM      5  C   UNL     1       0.186   4.124  -1.057  0.00  0.00    +0.000 A 
ATOM      6  C   UNL     1       1.163   2.870  -0.526  0.00  0.00    +0.000 A 
ENDROOT
BRANCH   4   7
ATOM      7  C   UNL     1      -1.427   6.204  -2.913  0.00  0.00    +0.000 C 
ATOM      8  O   UNL     1      -0.358   6.614  -3.578  0.00  0.00    +0.000 OA
ATOM      9  N   UNL     1      -3.137   7.133  -3.149  0.00  0.00    +0.000 N 
ATOM     10  C   UNL     1      -1.966   7.806  -2.754  0.00  0.00    +0.000 C 
ATOM     11  C   UNL     1      -2.637   7.865  -1.476  0.00  0.00    +0.000 C 
ATOM     12  C   UNL     1      -3.113   9.153  -1.983  0.00  0.00    +0.000 C 
ATOM     13  C   UNL     1      -4.395   9.107  -1.187  0.00  0.00    +0.000 C 
ATOM     14  C   UNL     1      -4.664   9.804  -2.399  0.00  0.00    +0.000 A 
ATOM     15  C   UNL     1      -4.767  11.512  -1.966  0.00  0.00    +0.000 A 
ATOM     16  C   UNL     1      -5.508  12.547  -2.419  0.00  0.00    +0.000 A 
ATOM     17  C   UNL     1      -6.250  11.800  -3.250  0.00  0.00    +0.000 A 
ATOM     18  C   UNL     1      -5.812  10.010  -3.571  0.00  0.00    +0.000 A 
ATOM     19  C   UNL     1      -4.743   8.495  -3.390  0.00  0.00    +0.000 A 
ENDBRANCH   4   7
BRANCH   1  22
ATOM     20  O   UNL     1       1.043  -0.038   0.019  0.00  0.00    +0.000 OA
ATOM     21  C   UNL     1       2.268   0.015  -0.006  0.00  0.00    +0.000 C 
ATOM     22  N   UNL     1       2.969   1.106  -0.563  0.00  0.00    +0.000 N 
ATOM     23  H   UNL     1       3.982   1.041  -0.655  0.00  0.00    +0.000 HD
BRANCH  21  24
ATOM     24  C   UNL     1       3.054  -1.182   0.472  0.00  0.00    +0.000 A 
ATOM     25  C   UNL     1       4.206  -1.005   1.227  0.00  0.00    +0.000 A 
ATOM     26  C   UNL     1       5.060  -2.084   1.474  0.00  0.00    +0.000 A 
ATOM     27  C   UNL     1       4.683  -3.383   1.171  0.00  0.00    +0.000 A 
ATOM     28  C   UNL     1       3.502  -3.588   0.482  0.00  0.00    +0.000 A 
ATOM     29  C   UNL     1       2.663  -2.500   0.152  0.00  0.00    +0.000 A 
BRANCH  29  30
ATOM     30  C   UNL     1       1.422  -2.788  -0.546  0.00  0.00    +0.000 A 
ATOM     31  C   UNL     1       0.447  -3.616   0.008  0.00  0.00    +0.000 A 
ATOM     32  C   UNL     1      -0.638  -4.002  -0.769  0.00  0.00    +0.000 A 
ATOM     33  C   UNL     1      -0.881  -3.391  -1.992  0.00  0.00    +0.000 A 
ATOM     34  C   UNL     1       0.055  -2.524  -2.522  0.00  0.00    +0.000 A 
ATOM     35  C   UNL     1       1.204  -2.239  -1.808  0.00  0.00    +0.000 A 
ENDBRANCH  29  30
ENDBRANCH  21  24
ENDBRANCH   1  22
TORSDOF 4
