REMARK  Name = CHEMBL2369836
REMARK  22 active torsions:
REMARK  status: ('A' for Active; 'I' for Inactive)
REMARK    1  A    between atoms: C_2  and  C_4
REMARK    2  A    between atoms: C_4  and  N_5
REMARK    3  A    between atoms: C_6  and  C_8
REMARK    4  A    between atoms: C_8  and  C_9
REMARK    5  A    between atoms: C_8  and  N_16
REMARK    6  A    between atoms: C_9  and  C_10
REMARK    7  A    between atoms: C_10  and  C_11
REMARK    8  A    between atoms: C_11  and  N_12
REMARK    9  A    between atoms: C_17  and  C_19
REMARK   10  A    between atoms: C_24  and  C_26
REMARK   11  A    between atoms: C_35  and  C_36
REMARK   12  A    between atoms: C_36  and  C_37
REMARK   13  A    between atoms: C_40  and  O_41
REMARK   14  A    between atoms: C_47  and  C_48
REMARK   15  A    between atoms: C_48  and  C_49
REMARK   16  A    between atoms: C_58  and  C_59
REMARK   17  A    between atoms: C_59  and  C_60
REMARK   18  A    between atoms: C_60  and  C_61
REMARK   19  A    between atoms: C_61  and  C_62
REMARK   20  A    between atoms: C_62  and  N_63
REMARK   21  A    between atoms: C_70  and  C_71
REMARK   22  A    between atoms: C_71  and  C_72
REMARK                            x       y       z     vdW  Elec       q    Type
REMARK                         _______ _______ _______ _____ _____    ______ ____
ROOT
ATOM      1  C   UNL     1       7.788   3.924   4.931  0.00  0.00    +0.000 C 
ATOM      2  C   UNL     1       7.119   6.469   5.037  0.00  0.00    +0.000 C 
ATOM      3  S   UNL     1       6.695   9.131   4.530  0.00  0.00    +0.000 S 
ATOM      4  S   UNL     1       6.955  11.918   3.906  0.00  0.00    +0.000 S 
ATOM      5  C   UNL     1       7.909  12.361   2.222  0.00  0.00    +0.000 C 
ATOM      6  C   UNL     1       8.938  13.294   1.628  0.00  0.00    +0.000 C 
ATOM      7  C   UNL     1       9.810  12.738   0.478  0.00  0.00    +0.000 C 
ATOM      8  O   UNL     1      10.548  13.497  -0.157  0.00  0.00    +0.000 OA
ATOM      9  N   UNL     1       9.779  11.387   0.207  0.00  0.00    +0.000 N 
ATOM     10  C   UNL     1       8.940  10.411   0.882  0.00  0.00    +0.000 C 
ATOM     11  C   UNL     1       9.502  10.329   2.453  0.00  0.00    +0.000 C 
ATOM     12  O   UNL     1       9.712  11.297   3.254  0.00  0.00    +0.000 OA
ATOM     13  N   UNL     1       9.584   9.148   3.001  0.00  0.00    +0.000 N 
ATOM     14  C   UNL     1       9.684   7.940   2.298  0.00  0.00    +0.000 C 
ATOM     15  C   UNL     1       8.165   7.712   1.872  0.00  0.00    +0.000 C 
ATOM     16  O   UNL     1       7.300   8.334   1.199  0.00  0.00    +0.000 OA
ATOM     17  N   UNL     1       7.585   6.824   2.471  0.00  0.00    +0.000 N 
ATOM     18  C   UNL     1       8.267   5.707   2.998  0.00  0.00    +0.000 C 
ATOM     19  C   UNL     1       9.760   5.175   1.704  0.00  0.00    +0.000 C 
ATOM     20  O   UNL     1      10.819   5.718   1.511  0.00  0.00    +0.000 OA
ATOM     21  N   UNL     1       9.803   3.767   1.271  0.00  0.00    +0.000 N 
ATOM     22  C   UNL     1       8.699   2.133   2.129  0.00  0.00    +0.000 C 
ATOM     23  C   UNL     1       9.673   3.012   3.816  0.00  0.00    +0.000 C 
ATOM     24  O   UNL     1       9.555   4.284   4.252  0.00  0.00    +0.000 OA
ATOM     25  N   UNL     1       8.596   1.958   4.853  0.00  0.00    +0.000 N 
ATOM     26  H   UNL     1      10.306  10.999  -0.587  0.00  0.00    +0.000 HD
ATOM     27  H   UNL     1       9.876   9.189   3.973  0.00  0.00    +0.000 HD
ATOM     28  H   UNL     1       6.751   6.678   1.803  0.00  0.00    +0.000 HD
ATOM     29  H   UNL     1      10.794   3.376   1.548  0.00  0.00    +0.000 HD
ATOM     30  H   UNL     1       8.661   1.191   5.666  0.00  0.00    +0.000 HD
ENDROOT
BRANCH   1  36
ATOM     31  C   UNL     1      11.672   0.822   2.519  0.00  0.00    +0.000 C 
ATOM     32  C   UNL     1      12.070   1.088   0.972  0.00  0.00    +0.000 C 
ATOM     33  C   UNL     1      12.371  -0.235   0.451  0.00  0.00    +0.000 C 
ATOM     34  C   UNL     1      11.017  -0.929   1.684  0.00  0.00    +0.000 C 
ATOM     35  N   UNL     1      10.138   0.266   3.269  0.00  0.00    +0.000 N 
ATOM     36  C   UNL     1       8.741   1.710   4.172  0.00  0.00    +0.000 C 
ATOM     37  O   UNL     1       8.614   0.146   3.803  0.00  0.00    +0.000 OA
BRANCH  31  39
ATOM     38  N   UNL     1      10.351   2.495   2.176  0.00  0.00    +0.000 N 
ATOM     39  C   UNL     1      11.253   1.995   2.988  0.00  0.00    +0.000 C 
ATOM     40  O   UNL     1      11.378   2.416   4.110  0.00  0.00    +0.000 OA
ATOM     41  H   UNL     1       9.830   2.298   1.168  0.00  0.00    +0.000 HD
BRANCH  38  42
ATOM     42  C   UNL     1       8.643   3.689   2.521  0.00  0.00    +0.000 C 
BRANCH  42  44
ATOM     43  N   UNL     1       9.024   3.322   5.549  0.00  0.00    +0.000 N 
ATOM     44  C   UNL     1       7.671   2.875   3.883  0.00  0.00    +0.000 C 
ATOM     45  O   UNL     1       6.656   2.164   4.089  0.00  0.00    +0.000 OA
ATOM     46  H   UNL     1      10.011   3.628   5.274  0.00  0.00    +0.000 HD
BRANCH  43  47
ATOM     47  C   UNL     1       8.568   2.855   6.828  0.00  0.00    +0.000 C 
BRANCH  47  49
ATOM     48  N   UNL     1       9.364   2.773   8.989  0.00  0.00    +0.000 N 
ATOM     49  C   UNL     1       9.663   3.103   7.696  0.00  0.00    +0.000 C 
ATOM     50  O   UNL     1      10.720   3.588   7.315  0.00  0.00    +0.000 OA
ATOM     51  H   UNL     1      10.052   2.951   9.708  0.00  0.00    +0.000 HD
ATOM     52  H   UNL     1       8.489   2.359   9.296  0.00  0.00    +0.000 HD
ENDBRANCH  47  49
ENDBRANCH  43  47
ENDBRANCH  42  44
BRANCH  42  53
ATOM     53  C   UNL     1       7.562   3.871   1.299  0.00  0.00    +0.000 C 
BRANCH  53  54
ATOM     54  C   UNL     1       6.872   5.040   1.508  0.00  0.00    +0.000 C 
BRANCH  54  55
ATOM     55  C   UNL     1       5.683   5.323   0.917  0.00  0.00    +0.000 C 
BRANCH  55  56
ATOM     56  N   UNL     1       5.233   6.632   1.356  0.00  0.00    +0.000 NA
ATOM     57  C   UNL     1       4.238   7.076   0.664  0.00  0.00    +0.000 C 
ATOM     58  N   UNL     1       3.697   6.307  -0.348  0.00  0.00    +0.000 N 
ATOM     59  N   UNL     1       3.685   8.314   0.939  0.00  0.00    +0.000 N 
ATOM     60  H   UNL     1       4.072   5.380  -0.587  0.00  0.00    +0.000 HD
ATOM     61  H   UNL     1       2.920   6.588  -0.921  0.00  0.00    +0.000 HD
ATOM     62  H   UNL     1       4.059   8.932   1.681  0.00  0.00    +0.000 HD
ATOM     63  H   UNL     1       2.906   8.718   0.435  0.00  0.00    +0.000 HD
ENDBRANCH  55  56
ENDBRANCH  54  55
ENDBRANCH  53  54
ENDBRANCH  42  53
ENDBRANCH  38  42
ENDBRANCH  31  39
ENDBRANCH   1  36
BRANCH  10  64
ATOM     64  C   UNL     1       9.130   9.190   0.126  0.00  0.00    +0.000 C 
BRANCH  64  65
ATOM     65  C   UNL     1       8.583   9.027  -1.181  0.00  0.00    +0.000 A 
ATOM     66  C   UNL     1       8.365  10.194  -1.849  0.00  0.00    +0.000 A 
ATOM     67  C   UNL     1       8.023  10.202  -3.166  0.00  0.00    +0.000 A 
ATOM     68  C   UNL     1       7.874   9.001  -3.814  0.00  0.00    +0.000 A 
ATOM     69  C   UNL     1       8.035   7.813  -3.126  0.00  0.00    +0.000 A 
ATOM     70  C   UNL     1       8.390   7.818  -1.800  0.00  0.00    +0.000 A 
BRANCH  68  71
ATOM     71  O   UNL     1       7.553   8.888  -5.128  0.00  0.00    +0.000 OA
ATOM     72  H   UNL     1       7.446   9.728  -5.601  0.00  0.00    +0.000 HD
ENDBRANCH  68  71
ENDBRANCH  64  65
ENDBRANCH  10  64
BRANCH  22  73
ATOM     73  C   UNL     1       8.928   0.861   1.640  0.00  0.00    +0.000 C 
BRANCH  73  74
ATOM     74  C   UNL     1       9.345   0.933   0.297  0.00  0.00    +0.000 C 
ATOM     75  N   UNL     1       9.296   2.184  -0.327  0.00  0.00    +0.000 N 
ATOM     76  O   UNL     1       9.885  -0.025  -0.177  0.00  0.00    +0.000 OA
ATOM     77  H   UNL     1       9.124   3.115   0.047  0.00  0.00    +0.000 HD
ATOM     78  H   UNL     1       9.504   2.276  -1.296  0.00  0.00    +0.000 HD
ENDBRANCH  73  74
ENDBRANCH  22  73
BRANCH  18  79
ATOM     79  C   UNL     1       6.801   4.392   3.305  0.00  0.00    +0.000 C 
BRANCH  79  80
ATOM     80  C   UNL     1       5.754   4.722   4.052  0.00  0.00    +0.000 C 
BRANCH  80  81
ATOM     81  C   UNL     1       5.036   3.499   4.160  0.00  0.00    +0.000 C 
BRANCH  81  82
ATOM     82  C   UNL     1       3.840   3.934   4.785  0.00  0.00    +0.000 C 
BRANCH  82  83
ATOM     83  N   UNL     1       3.015   2.772   5.010  0.00  0.00    +0.000 NA
ATOM     84  C   UNL     1       1.858   2.965   5.554  0.00  0.00    +0.000 C 
ATOM     85  N   UNL     1       1.414   4.223   5.922  0.00  0.00    +0.000 N 
ATOM     86  N   UNL     1       1.023   1.875   5.782  0.00  0.00    +0.000 N 
ATOM     87  H   UNL     1       1.992   5.062   5.774  0.00  0.00    +0.000 HD
ATOM     88  H   UNL     1       0.520   4.417   6.346  0.00  0.00    +0.000 HD
ATOM     89  H   UNL     1       1.302   0.913   5.528  0.00  0.00    +0.000 HD
ATOM     90  H   UNL     1       0.103   1.932   6.200  0.00  0.00    +0.000 HD
ENDBRANCH  82  83
ENDBRANCH  81  82
ENDBRANCH  80  81
ENDBRANCH  79  80
ENDBRANCH  18  79
BRANCH  14  91
ATOM     91  C   UNL     1      10.237   7.023   3.288  0.00  0.00    +0.000 C 
BRANCH  91  92
ATOM     92  C   UNL     1      11.600   7.099   3.676  0.00  0.00    +0.000 A 
ATOM     93  C   UNL     1      12.445   6.073   3.971  0.00  0.00    +0.000 A 
ATOM     94  C   UNL     1      13.567   6.404   4.688  0.00  0.00    +0.000 A 
ATOM     95  C   UNL     1      13.988   7.697   4.823  0.00  0.00    +0.000 A 
ATOM     96  C   UNL     1      13.144   8.682   4.453  0.00  0.00    +0.000 A 
ATOM     97  C   UNL     1      11.992   8.370   3.856  0.00  0.00    +0.000 A 
ENDBRANCH  91  92
ENDBRANCH  14  91
TORSDOF 22
