REMARK  Name = CHEMBL24682
REMARK  8 active torsions:
REMARK  status: ('A' for Active; 'I' for Inactive)
REMARK    1  A    between atoms: C_1  and  C_2
REMARK    2  A    between atoms: C_7  and  O_8
REMARK    3  A    between atoms: O_8  and  C_9
REMARK    4  A    between atoms: C_12  and  C_13
REMARK    5  A    between atoms: C_13  and  C_14
REMARK    6  A    between atoms: C_19  and  N_20
REMARK    7  A    between atoms: C_33  and  O_34
REMARK    8  A    between atoms: O_34  and  C_35
REMARK                            x       y       z     vdW  Elec       q    Type
REMARK                         _______ _______ _______ _____ _____    ______ ____
ROOT
ATOM      1  C   UNL     1       6.424  -2.463   4.020  0.00  0.00    +0.000 A 
ATOM      2  C   UNL     1       7.002  -3.307   4.952  0.00  0.00    +0.000 A 
ATOM      3  C   UNL     1       7.923  -2.788   5.902  0.00  0.00    +0.000 A 
ATOM      4  C   UNL     1       8.389  -1.446   5.842  0.00  0.00    +0.000 A 
ATOM      5  C   UNL     1       7.732  -0.627   4.929  0.00  0.00    +0.000 A 
ATOM      6  C   UNL     1       6.779  -1.137   4.077  0.00  0.00    +0.000 A 
ENDROOT
BRANCH   1   7
ATOM      7  O   UNL     1       5.366  -2.855   3.249  0.00  0.00    +0.000 OA
BRANCH   7  14
ATOM      8  C   UNL     1       1.142  -0.097   0.068  0.00  0.00    +0.000 C 
ATOM      9  C   UNL     1       2.659  -0.079   0.087  0.00  0.00    +0.000 C 
ATOM     10  O   UNL     1       3.282   0.622  -0.711  0.00  0.00    +0.000 OA
ATOM     11  N   UNL     1       3.275  -0.771   1.124  0.00  0.00    +0.000 N 
ATOM     12  C   UNL     1       4.507  -0.275   1.714  0.00  0.00    +0.000 C 
ATOM     13  C   UNL     1       5.694  -1.168   1.345  0.00  0.00    +0.000 C 
ATOM     14  C   UNL     1       5.468  -2.615   1.823  0.00  0.00    +0.000 C 
ATOM     15  C   UNL     1       4.146  -3.093   1.188  0.00  0.00    +0.000 C 
ATOM     16  C   UNL     1       2.966  -2.146   1.502  0.00  0.00    +0.000 C 
ENDBRANCH   7  14
ENDBRANCH   1   7
BRANCH   4  17
ATOM     17  C   UNL     1       9.560  -0.965   6.746  0.00  0.00    +0.000 C 
BRANCH  17  18
ATOM     18  C   UNL     1      10.138   0.518   6.593  0.00  0.00    +0.000 C 
ATOM     19  O   UNL     1       9.809   1.328   5.729  0.00  0.00    +0.000 OA
ATOM     20  N   UNL     1      11.087   1.027   7.486  0.00  0.00    +0.000 N 
ATOM     21  C   UNL     1      10.937   2.394   7.993  0.00  0.00    +0.000 C 
ATOM     22  C   UNL     1      12.123   3.380   7.762  0.00  0.00    +0.000 C 
ATOM     23  C   UNL     1      13.714   2.941   8.607  0.00  0.00    +0.000 C 
ATOM     24  C   UNL     1      13.621   1.415   7.545  0.00  0.00    +0.000 C 
ATOM     25  C   UNL     1      12.384   0.434   7.729  0.00  0.00    +0.000 C 
BRANCH  23  26
ATOM     26  N   UNL     1      14.429   3.479  10.248  0.00  0.00    +0.000 N 
ATOM     27  C   UNL     1      13.633   4.637   9.884  0.00  0.00    +0.000 C 
ATOM     28  O   UNL     1      13.675   5.344   8.867  0.00  0.00    +0.000 OA
ATOM     29  O   UNL     1      12.616   4.755  10.716  0.00  0.00    +0.000 OA
ATOM     30  C   UNL     1      13.293   5.489  11.653  0.00  0.00    +0.000 C 
ATOM     31  C   UNL     1      13.753   4.418  12.569  0.00  0.00    +0.000 A 
ATOM     32  C   UNL     1      13.867   3.197  13.321  0.00  0.00    +0.000 A 
ATOM     33  C   UNL     1      14.330   3.264  14.678  0.00  0.00    +0.000 A 
ATOM     34  C   UNL     1      15.005   4.399  14.885  0.00  0.00    +0.000 A 
ATOM     35  C   UNL     1      15.390   4.918  13.454  0.00  0.00    +0.000 A 
ATOM     36  C   UNL     1      14.850   4.412  11.934  0.00  0.00    +0.000 A 
ENDBRANCH  23  26
ENDBRANCH  17  18
ENDBRANCH   4  17
BRANCH   5  37
ATOM     37  O   UNL     1       7.889   0.706   4.990  0.00  0.00    +0.000 OA
BRANCH  37  38
ATOM     38  C   UNL     1       7.489   1.607   3.982  0.00  0.00    +0.000 C 
ATOM     39  F   UNL     1       7.837   1.197   2.741  0.00  0.00    +0.000 F 
ATOM     40  F   UNL     1       6.146   1.750   4.037  0.00  0.00    +0.000 F 
ATOM     41  F   UNL     1       8.045   2.816   4.204  0.00  0.00    +0.000 F 
ENDBRANCH  37  38
ENDBRANCH   5  37
TORSDOF 7
