REMARK  Name = CHEMBL592495
REMARK  9 active torsions:
REMARK  status: ('A' for Active; 'I' for Inactive)
REMARK    1  A    between atoms: C_1  and  O_2
REMARK    2  A    between atoms: O_2  and  C_3
REMARK    3  A    between atoms: C_3  and  C_4
REMARK    4  A    between atoms: C_11  and  O_12
REMARK    5  A    between atoms: O_12  and  C_13
REMARK    6  A    between atoms: C_18  and  C_19
REMARK    7  A    between atoms: N_22  and  C_23
REMARK    8  A    between atoms: C_26  and  O_27
REMARK    9  A    between atoms: O_27  and  C_28
REMARK                            x       y       z     vdW  Elec       q    Type
REMARK                         _______ _______ _______ _____ _____    ______ ____
ROOT
ATOM      1  C   UNL     1       4.607  -1.053   0.853  0.00  0.00    +0.000 A 
ATOM      2  N   UNL     1       5.462  -0.057   0.960  0.00  0.00    +0.000 NA
ATOM      3  N   UNL     1       6.748  -0.585   0.999  0.00  0.00    +0.000 NA
ATOM      4  C   UNL     1       6.672  -1.885   0.870  0.00  0.00    +0.000 A 
ATOM      5  N   UNL     1       7.688  -2.771   0.593  0.00  0.00    +0.000 N 
ATOM      6  C   UNL     1       8.640  -3.140   1.624  0.00  0.00    +0.000 C 
ATOM      7  C   UNL     1      10.038  -3.239   0.968  0.00  0.00    +0.000 C 
ATOM      8  C   UNL     1      10.042  -4.361  -0.072  0.00  0.00    +0.000 C 
ATOM      9  C   UNL     1       8.949  -3.975  -1.099  0.00  0.00    +0.000 C 
ATOM     10  C   UNL     1       7.575  -3.802  -0.439  0.00  0.00    +0.000 C 
ATOM     11  N   UNL     1       5.328  -2.239   0.886  0.00  0.00    +0.000 N 
ENDROOT
BRANCH  11  12
ATOM     12  C   UNL     1       4.813  -3.532   0.930  0.00  0.00    +0.000 A 
ATOM     13  C   UNL     1       4.011  -3.983  -0.108  0.00  0.00    +0.000 A 
ATOM     14  C   UNL     1       3.599  -5.303  -0.094  0.00  0.00    +0.000 A 
ATOM     15  C   UNL     1       3.993  -6.127   0.958  0.00  0.00    +0.000 A 
ATOM     16  N   UNL     1       4.770  -5.687   1.976  0.00  0.00    +0.000 NA
ATOM     17  C   UNL     1       5.180  -4.405   1.944  0.00  0.00    +0.000 A 
BRANCH  15  18
ATOM     18  O   UNL     1       3.655  -7.445   1.070  0.00  0.00    +0.000 OA
ATOM     19  C   UNL     1       2.857  -7.974   0.020  0.00  0.00    +0.000 C 
ENDBRANCH  15  18
ENDBRANCH  11  12
BRANCH   1  20
ATOM     20  C   UNL     1       3.107  -1.005   0.931  0.00  0.00    +0.000 C 
BRANCH  20  22
ATOM     21  C   UNL     1       1.157  -0.057   0.013  0.00  0.00    +0.000 C 
ATOM     22  O   UNL     1       2.586  -0.053  -0.001  0.00  0.00    +0.000 OA
ENDBRANCH  20  22
ENDBRANCH   1  20
BRANCH   8  23
ATOM     23  O   UNL     1       9.763  -5.670   0.503  0.00  0.00    +0.000 OA
BRANCH  23  24
ATOM     24  C   UNL     1      10.737  -6.214   1.321  0.00  0.00    +0.000 A 
ATOM     25  C   UNL     1      11.461  -7.318   0.827  0.00  0.00    +0.000 A 
ATOM     26  C   UNL     1      12.403  -7.983   1.634  0.00  0.00    +0.000 A 
ATOM     27  C   UNL     1      12.653  -7.541   2.926  0.00  0.00    +0.000 A 
ATOM     28  C   UNL     1      11.919  -6.485   3.432  0.00  0.00    +0.000 A 
ATOM     29  C   UNL     1      10.911  -5.862   2.680  0.00  0.00    +0.000 A 
ATOM     30  C   UNL     1      10.055  -4.948   3.505  0.00  0.00    +0.000 C 
ENDBRANCH  23  24
ENDBRANCH   8  23
TORSDOF 6
