REMARK  Name = CHEMBL1630523
REMARK  23 active torsions:
REMARK  status: ('A' for Active; 'I' for Inactive)
REMARK    1  A    between atoms: C_1  and  C_2
REMARK    2  A    between atoms: C_2  and  C_3
REMARK    3  A    between atoms: C_3  and  C_4
REMARK    4  A    between atoms: C_3  and  C_5
REMARK    5  A    between atoms: C_9  and  C_10
REMARK    6  A    between atoms: C_10  and  C_11
REMARK    7  A    between atoms: C_14  and  O_15
REMARK    8  A    between atoms: C_21  and  N_22
REMARK    9  A    between atoms: C_27  and  C_28
REMARK   10  A    between atoms: C_34  and  C_35
REMARK   11  A    between atoms: N_37  and  C_38
REMARK   12  A    between atoms: C_38  and  C_39
REMARK   13  A    between atoms: C_38  and  N_43
REMARK   14  A    between atoms: C_39  and  C_40
REMARK   15  A    between atoms: C_40  and  C_41
REMARK   16  A    between atoms: C_40  and  C_42
REMARK   17  A    between atoms: N_43  and  C_44
REMARK   18  A    between atoms: C_44  and  C_45
REMARK   19  A    between atoms: C_51  and  C_52
REMARK   20  A    between atoms: C_52  and  C_53
REMARK   21  A    between atoms: C_59  and  C_60
REMARK   22  A    between atoms: C_60  and  C_61
REMARK   23  A    between atoms: C_61  and  C_62
REMARK                            x       y       z     vdW  Elec       q    Type
REMARK                         _______ _______ _______ _____ _____    ______ ____
ROOT
ATOM      1  C   UNL     1       4.560   1.309   0.795  0.00  0.00    +0.000 C 
ATOM      2  N   UNL     1       6.790   5.658  11.904  0.00  0.00    +0.000 N 
ATOM      3  C   UNL     1       5.766   5.229  10.940  0.00  0.00    +0.000 C 
ATOM      4  O   UNL     1       5.481   5.967   9.945  0.00  0.00    +0.000 OA
ATOM      5  C   UNL     1       5.048   3.903  11.133  0.00  0.00    +0.000 C 
ATOM      6  N   UNL     1       3.604   4.143  11.271  0.00  0.00    +0.000 N 
ATOM      7  C   UNL     1       2.860   4.795  10.183  0.00  0.00    +0.000 C 
ATOM      8  O   UNL     1       1.612   5.002  10.303  0.00  0.00    +0.000 OA
ATOM      9  C   UNL     1       3.584   5.220   8.916  0.00  0.00    +0.000 C 
ATOM     10  C   UNL     1       2.977   4.503   7.721  0.00  0.00    +0.000 C 
ATOM     11  S   UNL     1       1.223   4.932   7.588  0.00  0.00    +0.000 S 
ATOM     12 SE   UNL     1       0.325   3.871   5.819  0.00  0.00    +0.000 Se
ATOM     13  C   UNL     1      -1.574   4.335   5.674  0.00  0.00    +0.000 C 
ATOM     14  C   UNL     1      -2.181   3.618   4.479  0.00  0.00    +0.000 C 
ATOM     15  N   UNL     1      -1.482   4.030   3.254  0.00  0.00    +0.000 N 
ATOM     16  C   UNL     1      -0.038   3.790   3.116  0.00  0.00    +0.000 C 
ATOM     17  O   UNL     1       0.567   4.145   2.056  0.00  0.00    +0.000 OA
ATOM     18  C   UNL     1       0.731   3.116   4.240  0.00  0.00    +0.000 C 
ATOM     19  N   UNL     1       1.338   1.873   3.743  0.00  0.00    +0.000 N 
ATOM     20  C   UNL     1       2.299   1.917   2.632  0.00  0.00    +0.000 C 
ATOM     21  O   UNL     1       2.823   0.842   2.202  0.00  0.00    +0.000 OA
ATOM     22  C   UNL     1       2.666   3.248   1.997  0.00  0.00    +0.000 C 
ATOM     23  N   UNL     1       4.112   3.476   2.139  0.00  0.00    +0.000 N 
ATOM     24  C   UNL     1       5.067   2.527   1.550  0.00  0.00    +0.000 C 
ATOM     25  O   UNL     1       6.316   2.724   1.672  0.00  0.00    +0.000 OA
ATOM     26  H   UNL     1       7.243   5.992  12.712  0.00  0.00    +0.000 HD
ATOM     27  H   UNL     1       3.136   3.868  12.092  0.00  0.00    +0.000 HD
ATOM     28  H   UNL     1      -1.980   4.466   2.525  0.00  0.00    +0.000 HD
ATOM     29  H   UNL     1       1.100   1.010   4.155  0.00  0.00    +0.000 HD
ATOM     30  H   UNL     1       4.440   4.265   2.628  0.00  0.00    +0.000 HD
ENDROOT
BRANCH  14  31
ATOM     31  C   UNL     1      -3.654   3.978   4.367  0.00  0.00    +0.000 C 
ATOM     32  O   UNL     1      -4.091   4.547   3.318  0.00  0.00    +0.000 OA
ATOM     33  N   UNL     1      -4.573   3.668   5.472  0.00  0.00    +0.000 N 
ATOM     34  C   UNL     1      -4.329   3.900   6.907  0.00  0.00    +0.000 C 
ATOM     35  C   UNL     1      -4.951   2.681   7.530  0.00  0.00    +0.000 C 
ATOM     36  C   UNL     1      -6.290   2.533   6.747  0.00  0.00    +0.000 C 
ATOM     37  C   UNL     1      -5.931   3.017   5.340  0.00  0.00    +0.000 C 
BRANCH  37  38
ATOM     38  C   UNL     1      -6.957   4.025   4.847  0.00  0.00    +0.000 C 
ATOM     39  O   UNL     1      -6.607   5.224   4.610  0.00  0.00    +0.000 OA
ATOM     40  N   UNL     1      -8.353   3.613   4.644  0.00  0.00    +0.000 N 
ATOM     41  H   UNL     1      -8.624   2.684   4.827  0.00  0.00    +0.000 HD
BRANCH  40  42
ATOM     42  C   UNL     1      -9.345   4.587   4.167  0.00  0.00    +0.000 C 
BRANCH  42  43
ATOM     43  N   UNL     1     -10.656   3.932   4.047  0.00  0.00    +0.000 NA
ATOM     44  H   UNL     1     -10.942   3.574   4.958  0.00  0.00    +0.000 HD
BRANCH  43  45
ATOM     45  C   UNL     1     -11.648   4.907   3.570  0.00  0.00    +0.000 C 
BRANCH  45  46
ATOM     46  C   UNL     1     -13.004   4.230   3.446  0.00  0.00    +0.000 C 
ATOM     47  N   UNL     1     -13.149   2.808   3.786  0.00  0.00    +0.000 N 
ATOM     48  O   UNL     1     -14.011   4.894   3.047  0.00  0.00    +0.000 OA
ATOM     49  H   UNL     1     -12.369   2.293   4.095  0.00  0.00    +0.000 HD
ATOM     50  H   UNL     1     -14.027   2.369   3.706  0.00  0.00    +0.000 HD
ENDBRANCH  45  46
ENDBRANCH  43  45
ENDBRANCH  42  43
BRANCH  42  51
ATOM     51  C   UNL     1      -8.919   5.121   2.809  0.00  0.00    +0.000 C 
BRANCH  51  52
ATOM     52  C   UNL     1      -7.564   5.798   2.934  0.00  0.00    +0.000 C 
ATOM     53  C   UNL     1      -6.538   4.790   3.427  0.00  0.00    +0.000 C 
ATOM     54  C   UNL     1      -7.138   6.332   1.576  0.00  0.00    +0.000 C 
ENDBRANCH  51  52
ENDBRANCH  42  51
ENDBRANCH  40  42
ENDBRANCH  37  38
ENDBRANCH  14  31
BRANCH   9  55
ATOM     55  N   UNL     1       5.008   4.872   9.025  0.00  0.00    +0.000 NA
ATOM     56  H   UNL     1       5.103   3.864   9.149  0.00  0.00    +0.000 HD
ATOM     57  H   UNL     1       5.416   5.353   9.827  0.00  0.00    +0.000 HD
ENDBRANCH   9  55
BRANCH   1  58
ATOM     58  C   UNL     1       3.040   1.309   0.795  0.00  0.00    +0.000 C 
ATOM     59  C   UNL     1       2.534   0.091   0.040  0.00  0.00    +0.000 C 
BRANCH  58  61
ATOM     60  C   UNL     1       2.618   0.245   3.353  0.00  0.00    +0.000 C 
ATOM     61  C   UNL     1       2.534   1.264   2.227  0.00  0.00    +0.000 C 
ENDBRANCH  58  61
ENDBRANCH   1  58
BRANCH  18  62
ATOM     62  C   UNL     1       1.824   4.049   4.737  0.00  0.00    +0.000 C 
BRANCH  62  63
ATOM     63  C   UNL     1       2.996   3.086   4.835  0.00  0.00    +0.000 C 
ATOM     64  N   UNL     1       2.799   1.657   4.551  0.00  0.00    +0.000 N 
ATOM     65  O   UNL     1       4.146   3.516   5.163  0.00  0.00    +0.000 OA
ATOM     66  H   UNL     1       1.908   1.324   4.297  0.00  0.00    +0.000 HD
ATOM     67  H   UNL     1       3.558   1.034   4.614  0.00  0.00    +0.000 HD
ENDBRANCH  62  63
ENDBRANCH  18  62
BRANCH   5  68
ATOM     68  C   UNL     1       5.301   3.010   9.930  0.00  0.00    +0.000 C 
BRANCH  68  69
ATOM     69  C   UNL     1       6.804   2.805   9.848  0.00  0.00    +0.000 A 
ATOM     70  C   UNL     1       7.639   3.492  10.702  0.00  0.00    +0.000 A 
ATOM     71  C   UNL     1       9.025   3.312  10.655  0.00  0.00    +0.000 A 
ATOM     72  C   UNL     1       9.533   2.391   9.716  0.00  0.00    +0.000 A 
ATOM     73  C   UNL     1       8.693   1.733   8.850  0.00  0.00    +0.000 A 
ATOM     74  C   UNL     1       7.328   1.934   8.923  0.00  0.00    +0.000 A 
BRANCH  72  75
ATOM     75  O   UNL     1      10.857   2.135   9.616  0.00  0.00    +0.000 OA
ATOM     76  H   UNL     1      11.462   2.564  10.190  0.00  0.00    +0.000 HD
ENDBRANCH  72  75
ENDBRANCH  68  69
ENDBRANCH   5  68
BRANCH  22  77
ATOM     77  C   UNL     1       2.299   3.224   0.523  0.00  0.00    +0.000 C 
BRANCH  77  78
ATOM     78  C   UNL     1       2.569   1.840  -0.045  0.00  0.00    +0.000 C 
BRANCH  78  79
ATOM     79  C   UNL     1       2.202   1.817  -1.519  0.00  0.00    +0.000 C 
ATOM     80  N   UNL     1       1.677   3.028  -2.166  0.00  0.00    +0.000 N 
ATOM     81  O   UNL     1       2.350   0.750  -2.194  0.00  0.00    +0.000 OA
ATOM     82  H   UNL     1       1.562   3.855  -1.643  0.00  0.00    +0.000 HD
ATOM     83  H   UNL     1       1.439   3.013  -3.121  0.00  0.00    +0.000 HD
ENDBRANCH  78  79
ENDBRANCH  77  78
ENDBRANCH  22  77
TORSDOF 19
