REMARK  Name = CHEMBL2113214
REMARK  11 active torsions:
REMARK  status: ('A' for Active; 'I' for Inactive)
REMARK    1  A    between atoms: C_1  and  C_2
REMARK    2  A    between atoms: C_2  and  C_3
REMARK    3  A    between atoms: C_3  and  C_4
REMARK    4  A    between atoms: C_3  and  C_5
REMARK    5  A    between atoms: C_3  and  C_6
REMARK    6  A    between atoms: C_9  and  S_10
REMARK    7  A    between atoms: S_10  and  N_13
REMARK    8  A    between atoms: N_13  and  C_14
REMARK    9  A    between atoms: N_13  and  C_29
REMARK   10  A    between atoms: C_14  and  C_15
REMARK   11  A    between atoms: N_17  and  N_18
REMARK                            x       y       z     vdW  Elec       q    Type
REMARK                         _______ _______ _______ _____ _____    ______ ____
ROOT
ATOM      1  N   UNL     1       9.539   3.168   0.529  0.00  0.00    +0.000 N 
ENDROOT
BRANCH   1   2
ATOM      2  C   UNL     1      11.023   3.378   0.431  0.00  0.00    +0.000 A 
ATOM      3  C   UNL     1      11.618   4.322   1.290  0.00  0.00    +0.000 A 
ATOM      4  C   UNL     1      12.961   4.726   1.155  0.00  0.00    +0.000 A 
ATOM      5  C   UNL     1      13.775   4.123   0.206  0.00  0.00    +0.000 A 
ATOM      6 CL   UNL     1      15.453   4.510   0.146  0.00  0.00    +0.000 Cl
ATOM      7  C   UNL     1      13.229   3.185  -0.664  0.00  0.00    +0.000 A 
ATOM      8  C   UNL     1      11.858   2.833  -0.566  0.00  0.00    +0.000 A 
ENDBRANCH   1   2
BRANCH   1   9
ATOM      9  S   UNL     1       8.969   1.522   0.292  0.00  0.00    +0.000 S 
ATOM     10  O   UNL     1       9.524   0.750   1.385  0.00  0.00    +0.000 OA
ATOM     11  O   UNL     1       9.311   1.134  -1.072  0.00  0.00    +0.000 OA
BRANCH   9  15
ATOM     12  C   UNL     1       4.427   1.233  -0.179  0.00  0.00    +0.000 A 
ATOM     13  C   UNL     1       5.196   0.064  -0.332  0.00  0.00    +0.000 A 
ATOM     14  C   UNL     1       6.587   0.097  -0.087  0.00  0.00    +0.000 A 
ATOM     15  C   UNL     1       7.178   1.264   0.426  0.00  0.00    +0.000 A 
ATOM     16  C   UNL     1       6.330   2.268   0.823  0.00  0.00    +0.000 A 
ATOM     17  C   UNL     1       5.090   2.366   0.224  0.00  0.00    +0.000 A 
BRANCH  12  18
ATOM     18  C   UNL     1       2.902   1.383  -0.175  0.00  0.00    +0.000 C 
ATOM     19  C   UNL     1       2.439   2.165  -1.422  0.00  0.00    +0.000 C 
ATOM     20  C   UNL     1       2.448   2.196   1.099  0.00  0.00    +0.000 C 
BRANCH  18  22
ATOM     21  C   UNL     1       0.801  -0.056  -0.062  0.00  0.00    +0.000 C 
ATOM     22  C   UNL     1       2.308  -0.027  -0.098  0.00  0.00    +0.000 C 
ENDBRANCH  18  22
ENDBRANCH  12  18
ENDBRANCH   9  15
ENDBRANCH   1   9
BRANCH   1  23
ATOM     23  C   UNL     1       8.715   4.459   0.424  0.00  0.00    +0.000 C 
BRANCH  23  24
ATOM     24  C   UNL     1       7.346   4.555  -0.288  0.00  0.00    +0.000 C 
ATOM     25  O   UNL     1       7.166   3.782  -1.256  0.00  0.00    +0.000 OA
ATOM     26  N   UNL     1       6.373   5.496   0.194  0.00  0.00    +0.000 N 
ATOM     27  H   UNL     1       6.659   6.128   0.945  0.00  0.00    +0.000 HD
BRANCH  26  28
ATOM     28  N   UNL     1       5.267   6.165  -0.611  0.00  0.00    +0.000 NA
ATOM     29  C   UNL     1       4.571   7.046   0.109  0.00  0.00    +0.000 C 
ATOM     30  C   UNL     1       4.217   6.691   1.520  0.00  0.00    +0.000 C 
ATOM     31  O   UNL     1       5.139   6.794   2.286  0.00  0.00    +0.000 OA
ATOM     32  N   UNL     1       2.883   7.092   1.674  0.00  0.00    +0.000 N 
ATOM     33  C   UNL     1       2.880   8.375   1.119  0.00  0.00    +0.000 A 
ATOM     34  C   UNL     1       2.169   9.333   1.878  0.00  0.00    +0.000 A 
ATOM     35  C   UNL     1       2.414  10.672   1.760  0.00  0.00    +0.000 A 
ATOM     36  C   UNL     1       3.440  10.974   0.875  0.00  0.00    +0.000 A 
ATOM     37  C   UNL     1       4.156   9.935   0.053  0.00  0.00    +0.000 A 
ATOM     38  C   UNL     1       3.851   8.539   0.118  0.00  0.00    +0.000 A 
ATOM     39  H   UNL     1       2.191   6.603   1.111  0.00  0.00    +0.000 HD
ENDBRANCH  26  28
ENDBRANCH  23  24
ENDBRANCH   1  23
TORSDOF 8
