REMARK  Name = CHEMBL382065
REMARK  14 active torsions:
REMARK  status: ('A' for Active; 'I' for Inactive)
REMARK    1  A    between atoms: CD1_1  and  CG_2
REMARK    2  A    between atoms: CG_2  and  CD2_3
REMARK    3  A    between atoms: CG_2  and  CB_4
REMARK    4  A    between atoms: CB_4  and  CA_5
REMARK    5  A    between atoms: C_9  and  C_10
REMARK    6  A    between atoms: N_21  and  C_22
REMARK    7  A    between atoms: C_22  and  C_23
REMARK    8  A    between atoms: C_22  and  C_30
REMARK    9  A    between atoms: N_25  and  C_26
REMARK   10  A    between atoms: C_26  and  C_27
REMARK   11  A    between atoms: C_26  and  C_28
REMARK   12  A    between atoms: C_26  and  C_29
REMARK   13  A    between atoms: C_33  and  N_34
REMARK   14  A    between atoms: N_37  and  C_38
REMARK                            x       y       z     vdW  Elec       q    Type
REMARK                         _______ _______ _______ _____ _____    ______ ____
ROOT
ATOM      1  CA  LEU A   2       4.701   1.101  -1.001  0.00  0.00    +0.000 C 
ATOM      2  C   LEU A   2       5.250  -0.061  -0.164  0.00  0.00    +0.000 C 
ATOM      3  O   LEU A   2       4.716  -0.742   0.705  0.00  0.00    +0.000 OA
ATOM      4  N   UNK A   1       6.587  -0.188  -0.250  0.00  0.00    +0.000 N 
ATOM      5  C   UNK A   1       7.314   1.061  -0.203  0.00  0.00    +0.000 C 
ATOM      6  C   UNK A   1       6.462   2.306   0.164  0.00  0.00    +0.000 C 
ATOM      7  O   UNK A   1       7.062   3.237   0.696  0.00  0.00    +0.000 OA
ATOM      8  N   LEU A   2       5.099   2.290  -0.195  0.00  0.00    +0.000 N 
ATOM      9  H   UNK A   1       6.804  -0.889   0.448  0.00  0.00    +0.000 HD
ENDROOT
BRANCH   5  10
ATOM     10  C   UNK A   1       8.466   1.011   0.833  0.00  0.00    +0.000 C 
ATOM     11  C   UNK A   1       9.330  -0.242   0.637  0.00  0.00    +0.000 C 
ATOM     12  C   UNK A   1       8.680  -1.204   1.590  0.00  0.00    +0.000 A 
ATOM     13  C   UNK A   1       8.676  -2.585   1.518  0.00  0.00    +0.000 A 
ATOM     14  C   UNK A   1       7.885  -3.293   2.424  0.00  0.00    +0.000 A 
ATOM     15  C   UNK A   1       7.101  -2.621   3.376  0.00  0.00    +0.000 A 
ATOM     16  C   UNK A   1       7.086  -1.227   3.427  0.00  0.00    +0.000 A 
ATOM     17  C   UNK A   1       7.882  -0.533   2.529  0.00  0.00    +0.000 A 
ATOM     18  C   UNK A   1       7.940   0.945   2.304  0.00  0.00    +0.000 C 
ENDBRANCH   5  10
BRANCH   1  19
ATOM     19  CB  LEU A   2       3.261   0.921  -1.447  0.00  0.00    +0.000 C 
BRANCH  19  21
ATOM     20  CD1 LEU A   2       1.053  -0.170  -1.128  0.00  0.00    +0.000 C 
ATOM     21  CG  LEU A   2       2.506  -0.200  -0.717  0.00  0.00    +0.000 C 
ATOM     22  CD2 LEU A   2       2.925  -1.634  -1.017  0.00  0.00    +0.000 C 
ENDBRANCH  19  21
ENDBRANCH   1  19
BRANCH   8  23
ATOM     23  C   UNK A   0       4.136   3.392   0.237  0.00  0.00    +0.000 C 
BRANCH  23  24
ATOM     24  C   UNK A   0       4.838   4.689   0.752  0.00  0.00    +0.000 A 
ATOM     25  C   UNK A   0       4.596   5.238   2.021  0.00  0.00    +0.000 A 
ATOM     26  C   UNK A   0       5.212   6.382   2.489  0.00  0.00    +0.000 A 
ATOM     27  C   UNK A   0       6.258   6.929   1.785  0.00  0.00    +0.000 A 
ATOM     28  C   UNK A   0       6.558   6.401   0.527  0.00  0.00    +0.000 A 
ATOM     29  C   UNK A   0       5.816   5.344  -0.018  0.00  0.00    +0.000 A 
BRANCH  27  30
ATOM     30  N   UNK A   0       7.027   7.912   2.336  0.00  0.00    +0.000 N 
ATOM     31  C   UNK A   0       7.099   9.206   1.679  0.00  0.00    +0.000 C 
ATOM     32  C   UNK A   0       8.548   9.708   1.767  0.00  0.00    +0.000 C 
ATOM     33  N   UNK A   0       9.011   9.770   3.175  0.00  0.00    +0.000 NA
ATOM     34  C   UNK A   0      10.358  10.312   3.245  0.00  0.00    +0.000 C 
ATOM     35  C   UNK A   0       8.959   8.399   3.744  0.00  0.00    +0.000 C 
ATOM     36  C   UNK A   0       7.525   7.822   3.710  0.00  0.00    +0.000 C 
ENDBRANCH  27  30
ENDBRANCH  23  24
BRANCH  23  37
ATOM     37  C   UNK A   0       2.939   2.925   1.224  0.00  0.00    +0.000 C 
ATOM     38  O   UNK A   0       2.781   3.374   2.375  0.00  0.00    +0.000 OA
ATOM     39  N   UNK A   0       1.954   2.049   0.820  0.00  0.00    +0.000 N 
ATOM     40  H   UNK A   0       1.657   2.171  -0.130  0.00  0.00    +0.000 HD
BRANCH  39  41
ATOM     41  C   UNK A   0       0.892   1.574   1.757  0.00  0.00    +0.000 C 
ATOM     42  C   UNK A   0       1.579   0.936   2.972  0.00  0.00    +0.000 C 
ATOM     43  C   UNK A   0      -0.061   2.746   1.926  0.00  0.00    +0.000 C 
ATOM     44  C   UNK A   0      -0.036   0.420   1.309  0.00  0.00    +0.000 C 
ENDBRANCH  39  41
ENDBRANCH  23  37
ENDBRANCH   8  23
TORSDOF 8
