REMARK  Name = CHEMBL467153
REMARK  6 active torsions:
REMARK  status: ('A' for Active; 'I' for Inactive)
REMARK    1  A    between atoms: C_1  and  O_2
REMARK    2  A    between atoms: O_2  and  N_3
REMARK    3  A    between atoms: C_6  and  C_7
REMARK    4  A    between atoms: C_13  and  C_15
REMARK    5  A    between atoms: C_18  and  C_19
REMARK    6  A    between atoms: C_24  and  C_25
REMARK                            x       y       z     vdW  Elec       q    Type
REMARK                         _______ _______ _______ _____ _____    ______ ____
ROOT
ATOM      1  N   UNL     1       3.157   0.112  -1.322  0.00  0.00    +0.000 NA
ATOM      2  C   UNL     1       4.457   0.063  -1.254  0.00  0.00    +0.000 C 
ATOM      3  C   UNL     1       5.324   0.091  -2.487  0.00  0.00    +0.000 C 
ATOM      4  C   UNL     1       6.457  -0.824  -2.012  0.00  0.00    +0.000 C 
ATOM      5  N   UNL     1       6.572  -0.534  -0.569  0.00  0.00    +0.000 N 
ATOM      6  C   UNL     1       7.758  -0.746   0.119  0.00  0.00    +0.000 C 
ATOM      7  O   UNL     1       8.787  -1.141  -0.441  0.00  0.00    +0.000 OA
ATOM      8  C   UNL     1       5.314  -0.025  -0.007  0.00  0.00    +0.000 C 
ENDROOT
BRANCH   6   9
ATOM      9  C   UNL     1       7.820  -0.490   1.584  0.00  0.00    +0.000 A 
ATOM     10  C   UNL     1       8.810   0.339   2.129  0.00  0.00    +0.000 A 
ATOM     11  C   UNL     1       8.911   0.497   3.522  0.00  0.00    +0.000 A 
ATOM     12  C   UNL     1       7.984  -0.105   4.391  0.00  0.00    +0.000 A 
ATOM     13  C   UNL     1       7.013  -0.944   3.822  0.00  0.00    +0.000 A 
ATOM     14  C   UNL     1       6.958  -1.169   2.443  0.00  0.00    +0.000 A 
BRANCH  12  15
ATOM     15  C   UNL     1       8.049   0.135   5.849  0.00  0.00    +0.000 A 
ATOM     16  C   UNL     1       7.968   1.456   6.336  0.00  0.00    +0.000 A 
ATOM     17  C   UNL     1       8.136   1.746   7.692  0.00  0.00    +0.000 A 
ATOM     18  C   UNL     1       8.317   0.713   8.604  0.00  0.00    +0.000 A 
ATOM     19  C   UNL     1       8.358  -0.606   8.155  0.00  0.00    +0.000 A 
ATOM     20  C   UNL     1       8.228  -0.908   6.787  0.00  0.00    +0.000 A 
ATOM     21  C   UNL     1       8.284  -2.349   6.359  0.00  0.00    +0.000 C 
ENDBRANCH  12  15
ENDBRANCH   6   9
BRANCH   4  22
ATOM     22  C   UNL     1       6.058  -2.258  -2.204  0.00  0.00    +0.000 A 
ATOM     23  N   UNL     1       4.980  -2.869  -1.757  0.00  0.00    +0.000 NA
ATOM     24  C   UNL     1       5.117  -4.114  -2.288  0.00  0.00    +0.000 A 
ATOM     25  N   UNL     1       6.202  -4.302  -3.043  0.00  0.00    +0.000 NA
ATOM     26  O   UNL     1       6.841  -3.053  -2.993  0.00  0.00    +0.000 OA
ENDBRANCH   4  22
BRANCH   1  28
ATOM     27  C   UNL     1       1.147  -0.002  -0.148  0.00  0.00    +0.000 C 
ATOM     28  O   UNL     1       2.575   0.019  -0.040  0.00  0.00    +0.000 OA
ENDBRANCH   1  28
TORSDOF 4
