REMARK  Name = CHEMBL1092497
REMARK  7 active torsions:
REMARK  status: ('A' for Active; 'I' for Inactive)
REMARK    1  A    between atoms: C_1  and  O_2
REMARK    2  A    between atoms: O_2  and  C_3
REMARK    3  A    between atoms: C_6  and  N_7
REMARK    4  A    between atoms: N_7  and  C_8
REMARK    5  A    between atoms: C_13  and  O_14
REMARK    6  A    between atoms: O_14  and  C_15
REMARK    7  A    between atoms: C_21  and  C_22
REMARK                            x       y       z     vdW  Elec       q    Type
REMARK                         _______ _______ _______ _____ _____    ______ ____
ROOT
ATOM      1  N   UNL     1       4.791   2.908  -4.271  0.00  0.00    +0.000 N 
ATOM      2  C   UNL     1       5.861   2.233  -5.010  0.00  0.00    +0.000 C 
ATOM      3  C   UNL     1       4.455   4.284  -4.571  0.00  0.00    +0.000 C 
ATOM      4  O   UNL     1       3.580   4.930  -4.027  0.00  0.00    +0.000 OA
ATOM      5  N   UNL     1       5.286   4.923  -5.510  0.00  0.00    +0.000 N 
ATOM      6  C   UNL     1       5.264   6.344  -5.911  0.00  0.00    +0.000 C 
ATOM      7  C   UNL     1       4.950   5.902  -7.367  0.00  0.00    +0.000 C 
ATOM      8  C   UNL     1       5.485   4.525  -6.892  0.00  0.00    +0.000 C 
ENDROOT
BRANCH   1  12
ATOM      9  C   UNL     1       2.989   0.683  -1.065  0.00  0.00    +0.000 A 
ATOM     10  C   UNL     1       2.585   1.981  -1.301  0.00  0.00    +0.000 A 
ATOM     11  C   UNL     1       3.161   2.704  -2.357  0.00  0.00    +0.000 A 
ATOM     12  C   UNL     1       4.167   2.166  -3.161  0.00  0.00    +0.000 A 
ATOM     13  C   UNL     1       4.533   0.860  -2.775  0.00  0.00    +0.000 A 
ATOM     14  N   UNL     1       3.980   0.116  -1.766  0.00  0.00    +0.000 NA
BRANCH   9  16
ATOM     15  C   UNL     1       1.019  -0.082  -0.077  0.00  0.00    +0.000 C 
ATOM     16  O   UNL     1       2.446  -0.092  -0.073  0.00  0.00    +0.000 OA
ENDBRANCH   9  16
ENDBRANCH   1  12
BRANCH   7  17
ATOM     17  O   UNL     1       3.565   6.064  -7.828  0.00  0.00    +0.000 OA
BRANCH  17  18
ATOM     18  C   UNL     1       3.289   5.851  -9.172  0.00  0.00    +0.000 A 
ATOM     19  C   UNL     1       2.806   6.914  -9.952  0.00  0.00    +0.000 A 
ATOM     20  C   UNL     1       2.432   6.702 -11.294  0.00  0.00    +0.000 A 
ATOM     21  C   UNL     1       2.537   5.435 -11.863  0.00  0.00    +0.000 A 
ATOM     22  C   UNL     1       2.994   4.391 -11.086  0.00  0.00    +0.000 A 
ATOM     23  F   UNL     1       3.108   3.172 -11.633  0.00  0.00    +0.000 F 
ATOM     24  C   UNL     1       3.345   4.575  -9.749  0.00  0.00    +0.000 A 
ATOM     25  C   UNL     1       3.818   3.376  -9.024  0.00  0.00    +0.000 C 
ENDBRANCH  17  18
ENDBRANCH   7  17
TORSDOF 4
