REMARK  Name = CHEMBL489386
REMARK  10 active torsions:
REMARK  status: ('A' for Active; 'I' for Inactive)
REMARK    1  A    between atoms: C_1  and  C_2
REMARK    2  A    between atoms: C_2  and  O_3
REMARK    3  A    between atoms: O_3  and  C_4
REMARK    4  A    between atoms: C_7  and  C_8
REMARK    5  A    between atoms: C_11  and  C_12
REMARK    6  A    between atoms: C_12  and  O_13
REMARK    7  A    between atoms: O_13  and  C_14
REMARK    8  A    between atoms: N_15  and  C_16
REMARK    9  A    between atoms: C_19  and  O_20
REMARK   10  A    between atoms: O_20  and  C_21
REMARK                            x       y       z     vdW  Elec       q    Type
REMARK                         _______ _______ _______ _____ _____    ______ ____
ROOT
ATOM      1  C   UNL     1       8.718   0.800   2.211  0.00  0.00    +0.000 A 
ATOM      2  N   UNL     1       9.582  -0.166   2.478  0.00  0.00    +0.000 NA
ATOM      3  N   UNL     1      10.847   0.386   2.583  0.00  0.00    +0.000 NA
ATOM      4  C   UNL     1      10.756   1.695   2.403  0.00  0.00    +0.000 A 
ATOM      5  N   UNL     1       9.430   1.988   2.132  0.00  0.00    +0.000 N 
ENDROOT
BRANCH   1   9
ATOM      6  C   UNL     1       4.460   0.605   1.391  0.00  0.00    +0.000 A 
ATOM      7  C   UNL     1       4.987   0.122   2.603  0.00  0.00    +0.000 A 
ATOM      8  C   UNL     1       6.375   0.145   2.869  0.00  0.00    +0.000 A 
ATOM      9  C   UNL     1       7.273   0.668   1.934  0.00  0.00    +0.000 A 
ATOM     10  C   UNL     1       6.738   1.167   0.736  0.00  0.00    +0.000 A 
ATOM     11  C   UNL     1       5.356   1.172   0.477  0.00  0.00    +0.000 A 
ATOM     12 CL   UNL     1       4.889   2.043  -0.942  0.00  0.00    +0.000 Cl
BRANCH   6  13
ATOM     13  O   UNL     1       3.087   0.569   1.280  0.00  0.00    +0.000 OA
BRANCH  13  15
ATOM     14  C   UNL     1       1.047   0.069   0.054  0.00  0.00    +0.000 C 
ATOM     15  C   UNL     1       2.570   0.064   0.039  0.00  0.00    +0.000 C 
ENDBRANCH  13  15
ENDBRANCH   6  13
ENDBRANCH   1   9
BRANCH   5  16
ATOM     16  C   UNL     1       8.874   3.252   1.888  0.00  0.00    +0.000 A 
ATOM     17  C   UNL     1       7.951   3.779   2.777  0.00  0.00    +0.000 A 
ATOM     18  C   UNL     1       7.551   5.094   2.584  0.00  0.00    +0.000 A 
ATOM     19  C   UNL     1       8.074   5.815   1.510  0.00  0.00    +0.000 A 
ATOM     20  N   UNL     1       8.946   5.288   0.624  0.00  0.00    +0.000 NA
ATOM     21  C   UNL     1       9.338   4.016   0.829  0.00  0.00    +0.000 A 
BRANCH  19  22
ATOM     22  O   UNL     1       7.785   7.123   1.244  0.00  0.00    +0.000 OA
ATOM     23  C   UNL     1       6.824   7.731   2.091  0.00  0.00    +0.000 C 
ENDBRANCH  19  22
ENDBRANCH   5  16
BRANCH   4  24
ATOM     24  C   UNL     1      11.878   2.696   2.575  0.00  0.00    +0.000 C 
BRANCH  24  25
ATOM     25  O   UNL     1      11.320   4.002   2.593  0.00  0.00    +0.000 OA
ATOM     26  C   UNL     1      12.220   5.083   2.460  0.00  0.00    +0.000 C 
ENDBRANCH  24  25
ENDBRANCH   4  24
TORSDOF 7
