REMARK  Name = CHEMBL417133
REMARK  6 active torsions:
REMARK  status: ('A' for Active; 'I' for Inactive)
REMARK    1  A    between atoms: C_2  and  C_3
REMARK    2  A    between atoms: C_3  and  N_4
REMARK    3  A    between atoms: N_10  and  C_11
REMARK    4  A    between atoms: C_11  and  C_12
REMARK    5  A    between atoms: C_16  and  C_17
REMARK    6  A    between atoms: C_22  and  N_23
REMARK                            x       y       z     vdW  Elec       q    Type
REMARK                         _______ _______ _______ _____ _____    ______ ____
ROOT
ATOM      1  C   UNL     1       4.778  -2.557   1.022  0.00  0.00    +0.000 A 
ATOM      2  C   UNL     1       4.253  -3.789   0.690  0.00  0.00    +0.000 A 
ATOM      3  C   UNL     1       4.942  -4.757   1.449  0.00  0.00    +0.000 A 
ATOM      4  C   UNL     1       4.858  -6.156   1.576  0.00  0.00    +0.000 A 
ATOM      5  C   UNL     1       5.743  -6.828   2.435  0.00  0.00    +0.000 A 
ATOM      6  C   UNL     1       6.719  -6.088   3.123  0.00  0.00    +0.000 A 
ATOM      7  C   UNL     1       6.797  -4.685   3.040  0.00  0.00    +0.000 A 
ATOM      8  C   UNL     1       5.890  -4.058   2.188  0.00  0.00    +0.000 A 
ATOM      9  O   UNL     1       5.787  -2.712   1.936  0.00  0.00    +0.000 OA
ENDROOT
BRANCH   5  10
ATOM     10  C   UNL     1       5.665  -8.330   2.494  0.00  0.00    +0.000 C 
ATOM     11  O   UNL     1       4.918  -8.943   1.736  0.00  0.00    +0.000 OA
ATOM     12  N   UNL     1       6.529  -8.986   3.354  0.00  0.00    +0.000 N 
ATOM     13  C   UNL     1       7.394 -10.044   2.844  0.00  0.00    +0.000 C 
ATOM     14  C   UNL     1       7.180 -11.350   3.584  0.00  0.00    +0.000 C 
ATOM     15  C   UNL     1       7.296 -11.153   5.111  0.00  0.00    +0.000 C 
ATOM     16  C   UNL     1       6.323 -10.058   5.570  0.00  0.00    +0.000 C 
ATOM     17  C   UNL     1       6.491  -8.762   4.795  0.00  0.00    +0.000 C 
BRANCH  15  18
ATOM     18  N   UNL     1       8.718 -11.005   5.571  0.00  0.00    +0.000 N 
ATOM     19  C   UNL     1       9.573  -9.979   5.164  0.00  0.00    +0.000 C 
ATOM     20  O   UNL     1       9.341  -8.777   5.105  0.00  0.00    +0.000 OA
ATOM     21  O   UNL     1      10.773 -10.426   4.721  0.00  0.00    +0.000 OA
ATOM     22  C   UNL     1      11.525 -10.945   5.795  0.00  0.00    +0.000 C 
ATOM     23  C   UNL     1      10.720 -11.935   6.576  0.00  0.00    +0.000 A 
ATOM     24  C   UNL     1      11.378 -12.790   7.462  0.00  0.00    +0.000 A 
ATOM     25  C   UNL     1      10.647 -13.695   8.216  0.00  0.00    +0.000 A 
ATOM     26  C   UNL     1       9.261 -13.740   8.093  0.00  0.00    +0.000 A 
ATOM     27  C   UNL     1       8.596 -12.886   7.207  0.00  0.00    +0.000 A 
ATOM     28  C   UNL     1       9.320 -11.975   6.434  0.00  0.00    +0.000 A 
ENDBRANCH  15  18
ENDBRANCH   5  10
BRANCH   1  29
ATOM     29  C   UNL     1       4.416  -1.193   0.552  0.00  0.00    +0.000 C 
BRANCH  29  32
ATOM     30  O   UNL     1       0.970  -0.237   0.114  0.00  0.00    +0.000 OA
ATOM     31  C   UNL     1       2.190  -0.085   0.053  0.00  0.00    +0.000 C 
ATOM     32  N   UNL     1       2.966  -1.107   0.504  0.00  0.00    +0.000 N 
ATOM     33  H   UNL     1       2.417  -1.878   0.866  0.00  0.00    +0.000 HD
BRANCH  31  34
ATOM     34  C   UNL     1       2.877   1.164  -0.518  0.00  0.00    +0.000 C 
BRANCH  34  35
ATOM     35  N   UNL     1       1.980   2.218  -0.980  0.00  0.00    +0.000 N 
ATOM     36  C   UNL     1       0.677   1.979  -1.559  0.00  0.00    +0.000 C 
ATOM     37  C   UNL     1       0.299   3.318  -2.161  0.00  0.00    +0.000 C 
ATOM     38  C   UNL     1       1.020   4.322  -1.271  0.00  0.00    +0.000 C 
ATOM     39  C   UNL     1       2.256   3.567  -0.851  0.00  0.00    +0.000 C 
ATOM     40  O   UNL     1       3.287   4.062  -0.428  0.00  0.00    +0.000 OA
ENDBRANCH  34  35
ENDBRANCH  31  34
ENDBRANCH  29  32
ENDBRANCH   1  29
TORSDOF 6
