REMARK  Name = CHEMBL68480
REMARK  12 active torsions:
REMARK  status: ('A' for Active; 'I' for Inactive)
REMARK    1  A    between atoms: C_1  and  C_2
REMARK    2  A    between atoms: C_2  and  C_3
REMARK    3  A    between atoms: C_4  and  C_5
REMARK    4  A    between atoms: C_5  and  N_6
REMARK    5  A    between atoms: C_9  and  O_10
REMARK    6  A    between atoms: O_10  and  C_11
REMARK    7  A    between atoms: C_14  and  C_15
REMARK    8  A    between atoms: C_20  and  N_21
REMARK    9  A    between atoms: C_34  and  O_35
REMARK   10  A    between atoms: O_35  and  C_36
REMARK   11  A    between atoms: C_40  and  C_41
REMARK   12  A    between atoms: C_43  and  C_44
REMARK                            x       y       z     vdW  Elec       q    Type
REMARK                         _______ _______ _______ _____ _____    ______ ____
ROOT
ATOM      1  C   UNL     1       3.776   7.577  -2.474  0.00  0.00    +0.000 A 
ATOM      2  C   UNL     1       4.964   7.264  -1.834  0.00  0.00    +0.000 A 
ATOM      3  C   UNL     1       6.129   7.994  -2.063  0.00  0.00    +0.000 A 
ATOM      4  C   UNL     1       6.148   9.083  -2.933  0.00  0.00    +0.000 A 
ATOM      5  C   UNL     1       4.971   9.315  -3.693  0.00  0.00    +0.000 A 
ATOM      6  C   UNL     1       3.840   8.480  -3.526  0.00  0.00    +0.000 A 
ENDROOT
BRANCH   4   7
ATOM      7  C   UNL     1       7.355  10.016  -2.920  0.00  0.00    +0.000 C 
ATOM      8  O   UNL     1       7.309  11.088  -3.521  0.00  0.00    +0.000 OA
ATOM      9  N   UNL     1       8.452   9.712  -2.068  0.00  0.00    +0.000 N 
ATOM     10  C   UNL     1       8.871  10.671  -1.052  0.00  0.00    +0.000 C 
ATOM     11  C   UNL     1      10.366  10.938  -1.081  0.00  0.00    +0.000 C 
ATOM     12  C   UNL     1      11.284   9.483  -0.609  0.00  0.00    +0.000 C 
ATOM     13  C   UNL     1      10.747   8.705  -2.058  0.00  0.00    +0.000 C 
ATOM     14  C   UNL     1       9.233   8.473  -2.111  0.00  0.00    +0.000 C 
BRANCH  12  15
ATOM     15  N   UNL     1      11.451   9.047   1.189  0.00  0.00    +0.000 N 
ATOM     16  C   UNL     1      12.265  10.270   1.166  0.00  0.00    +0.000 C 
ATOM     17  O   UNL     1      12.088  11.377   0.578  0.00  0.00    +0.000 OA
ATOM     18  O   UNL     1      13.469  10.158   1.670  0.00  0.00    +0.000 OA
ATOM     19  C   UNL     1      13.243  10.783   2.877  0.00  0.00    +0.000 C 
ATOM     20  C   UNL     1      12.974   9.551   3.593  0.00  0.00    +0.000 A 
ATOM     21  C   UNL     1      13.689   9.668   4.972  0.00  0.00    +0.000 A 
ATOM     22  C   UNL     1      13.786   8.694   5.908  0.00  0.00    +0.000 A 
ATOM     23  C   UNL     1      12.957   7.672   5.505  0.00  0.00    +0.000 A 
ATOM     24  C   UNL     1      12.095   7.633   4.065  0.00  0.00    +0.000 A 
ATOM     25  C   UNL     1      12.163   8.585   2.854  0.00  0.00    +0.000 A 
ENDBRANCH  12  15
ENDBRANCH   4   7
BRANCH   5  26
ATOM     26  O   UNL     1       4.950  10.387  -4.549  0.00  0.00    +0.000 OA
ATOM     27  C   UNL     1       3.748  10.649  -5.264  0.00  0.00    +0.000 C 
ENDBRANCH   5  26
BRANCH   1  28
ATOM     28  O   UNL     1       2.577   6.958  -2.241  0.00  0.00    +0.000 OA
BRANCH  28  32
ATOM     29  N   UNL     1       1.902   4.236   0.276  0.00  0.00    +0.000 NA
ATOM     30  C   UNL     1       3.155   5.001   0.354  0.00  0.00    +0.000 C 
ATOM     31  C   UNL     1       2.880   6.495   0.284  0.00  0.00    +0.000 C 
ATOM     32  C   UNL     1       1.998   6.948  -0.899  0.00  0.00    +0.000 C 
ATOM     33  C   UNL     1       0.677   6.102  -0.876  0.00  0.00    +0.000 C 
ATOM     34  C   UNL     1       0.848   4.584  -0.710  0.00  0.00    +0.000 C 
BRANCH  29  35
ATOM     35  C   UNL     1       2.216   2.818   0.219  0.00  0.00    +0.000 C 
BRANCH  35  37
ATOM     36  C   UNL     1       3.064   0.844  -1.105  0.00  0.00    +0.000 A 
ATOM     37  C   UNL     1       2.828   2.248  -1.069  0.00  0.00    +0.000 A 
ATOM     38  C   UNL     1       3.188   2.977  -2.230  0.00  0.00    +0.000 A 
ATOM     39  C   UNL     1       3.079   4.413  -2.562  0.00  0.00    +0.000 C 
ATOM     40  C   UNL     1       3.749   2.374  -3.326  0.00  0.00    +0.000 A 
ATOM     41  C   UNL     1       4.003   1.033  -3.323  0.00  0.00    +0.000 A 
ATOM     42  C   UNL     1       4.617   0.460  -4.545  0.00  0.00    +0.000 C 
ATOM     43  N   UNL     1       3.674   0.243  -2.227  0.00  0.00    +0.000 N 
ATOM     44  O   UNL     1       3.920  -1.005  -2.261  0.00  0.00    +0.000 OA
BRANCH  36  46
ATOM     45  C   UNL     1       1.071  -0.187   0.006  0.00  0.00    +0.000 C 
ATOM     46  C   UNL     1       2.595  -0.071   0.004  0.00  0.00    +0.000 C 
ENDBRANCH  36  46
ENDBRANCH  35  37
ENDBRANCH  29  35
ENDBRANCH  28  32
ENDBRANCH   1  28
TORSDOF 8
