REMARK  Name = CHEMBL71540
REMARK  9 active torsions:
REMARK  status: ('A' for Active; 'I' for Inactive)
REMARK    1  A    between atoms: C_1  and  O_2
REMARK    2  A    between atoms: O_2  and  C_3
REMARK    3  A    between atoms: C_5  and  O_6
REMARK    4  A    between atoms: O_6  and  C_7
REMARK    5  A    between atoms: N_10  and  C_11
REMARK    6  A    between atoms: C_11  and  C_12
REMARK    7  A    between atoms: C_18  and  C_19
REMARK    8  A    between atoms: C_28  and  C_29
REMARK    9  A    between atoms: C_34  and  N_35
REMARK                            x       y       z     vdW  Elec       q    Type
REMARK                         _______ _______ _______ _____ _____    ______ ____
ROOT
ATOM      1  C   UNL     1       2.976   0.548  -0.796  0.00  0.00    +0.000 A 
ATOM      2  C   UNL     1       2.583   1.798  -1.415  0.00  0.00    +0.000 A 
ATOM      3  C   UNL     1       3.194   2.201  -2.552  0.00  0.00    +0.000 A 
ATOM      4  C   UNL     1       4.131   1.289  -2.853  0.00  0.00    +0.000 A 
ATOM      5  F   UNL     1       4.865   1.616  -3.828  0.00  0.00    +0.000 F 
ATOM      6  C   UNL     1       4.581   0.100  -2.390  0.00  0.00    +0.000 A 
ATOM      7  C   UNL     1       3.980  -0.317  -1.289  0.00  0.00    +0.000 A 
ENDROOT
BRANCH   7   8
ATOM      8  C   UNL     1       4.604  -1.588  -0.866  0.00  0.00    +0.000 C 
ATOM      9  O   UNL     1       5.604  -2.074  -1.393  0.00  0.00    +0.000 OA
ATOM     10  N   UNL     1       4.018  -2.167   0.188  0.00  0.00    +0.000 N 
ATOM     11  C   UNL     1       4.799  -2.408   1.369  0.00  0.00    +0.000 C 
ATOM     12  C   UNL     1       4.631  -3.856   1.736  0.00  0.00    +0.000 C 
ATOM     13  C   UNL     1       3.131  -4.218   1.843  0.00  0.00    +0.000 C 
ATOM     14  C   UNL     1       2.386  -3.913   0.538  0.00  0.00    +0.000 C 
ATOM     15  C   UNL     1       2.622  -2.497   0.143  0.00  0.00    +0.000 C 
BRANCH  13  16
ATOM     16  N   UNL     1       2.508  -3.660   3.092  0.00  0.00    +0.000 N 
ATOM     17  C   UNL     1       2.419  -2.301   3.413  0.00  0.00    +0.000 C 
ATOM     18  O   UNL     1       1.888  -1.408   2.775  0.00  0.00    +0.000 OA
ATOM     19  O   UNL     1       3.007  -1.996   4.597  0.00  0.00    +0.000 OA
ATOM     20  C   UNL     1       2.240  -2.529   5.655  0.00  0.00    +0.000 C 
ATOM     21  C   UNL     1       1.955  -3.981   5.422  0.00  0.00    +0.000 A 
ATOM     22  C   UNL     1       1.502  -4.765   6.480  0.00  0.00    +0.000 A 
ATOM     23  C   UNL     1       1.212  -6.106   6.267  0.00  0.00    +0.000 A 
ATOM     24  C   UNL     1       1.362  -6.660   4.999  0.00  0.00    +0.000 A 
ATOM     25  C   UNL     1       1.815  -5.881   3.937  0.00  0.00    +0.000 A 
ATOM     26  C   UNL     1       2.123  -4.536   4.142  0.00  0.00    +0.000 A 
ENDBRANCH  13  16
ENDBRANCH   7   8
BRANCH   1  28
ATOM     27  C   UNL     1       0.947   0.121   0.114  0.00  0.00    +0.000 C 
ATOM     28  O   UNL     1       2.344   0.244   0.365  0.00  0.00    +0.000 OA
ENDBRANCH   1  28
BRANCH   3  29
ATOM     29  O   UNL     1       2.934   3.339  -3.254  0.00  0.00    +0.000 OA
BRANCH  29  30
ATOM     30  C   UNL     1       3.589   3.775  -4.516  0.00  0.00    +0.000 C 
ATOM     31  C   UNL     1       3.413   2.900  -5.781  0.00  0.00    +0.000 C 
ATOM     32  C   UNL     1       4.382   1.728  -5.874  0.00  0.00    +0.000 C 
ATOM     33  N   UNL     1       5.853   2.140  -5.580  0.00  0.00    +0.000 NA
ATOM     34  C   UNL     1       6.056   3.198  -4.472  0.00  0.00    +0.000 C 
ATOM     35  C   UNL     1       5.028   4.294  -4.414  0.00  0.00    +0.000 C 
BRANCH  33  36
ATOM     36  C   UNL     1       6.558   0.887  -5.165  0.00  0.00    +0.000 C 
BRANCH  36  37
ATOM     37  C   UNL     1       8.023   1.040  -4.932  0.00  0.00    +0.000 A 
ATOM     38  C   UNL     1       8.474   1.745  -3.785  0.00  0.00    +0.000 A 
ATOM     39  N   UNL     1       9.767   2.178  -3.656  0.00  0.00    +0.000 N 
ATOM     40  O   UNL     1      10.099   2.975  -2.731  0.00  0.00    +0.000 OA
ATOM     41  C   UNL     1      10.672   1.726  -4.582  0.00  0.00    +0.000 A 
ATOM     42  C   UNL     1      10.284   0.866  -5.619  0.00  0.00    +0.000 A 
ATOM     43  C   UNL     1       8.943   0.518  -5.823  0.00  0.00    +0.000 A 
BRANCH  43  44
ATOM     44  C   UNL     1       8.578  -0.410  -6.968  0.00  0.00    +0.000 C 
ATOM     45  F   UNL     1       8.948   0.109  -8.167  0.00  0.00    +0.000 F 
ATOM     46  F   UNL     1       9.223  -1.603  -6.843  0.00  0.00    +0.000 F 
ATOM     47  F   UNL     1       7.274  -0.756  -7.124  0.00  0.00    +0.000 F 
ENDBRANCH  43  44
ENDBRANCH  36  37
ENDBRANCH  33  36
ENDBRANCH  29  30
ENDBRANCH   3  29
TORSDOF 8
