REMARK  Name = CHEMBL143304
REMARK  8 active torsions:
REMARK  status: ('A' for Active; 'I' for Inactive)
REMARK    1  A    between atoms: C_1  and  C_2
REMARK    2  A    between atoms: N_4  and  C_5
REMARK    3  A    between atoms: C_5  and  C_6
REMARK    4  A    between atoms: C_6  and  C_7
REMARK    5  A    between atoms: C_7  and  O_8
REMARK    6  A    between atoms: O_8  and  C_9
REMARK    7  A    between atoms: C_12  and  C_13
REMARK    8  A    between atoms: C_18  and  N_19
REMARK                            x       y       z     vdW  Elec       q    Type
REMARK                         _______ _______ _______ _____ _____    ______ ____
ROOT
ATOM      1  C   UNL     1      12.861   3.155  -4.071  0.00  0.00    +0.000 C 
ATOM      2  O   UNL     1      13.350   4.286  -4.129  0.00  0.00    +0.000 OA
ATOM      3  N   UNL     1      13.673   1.951  -4.144  0.00  0.00    +0.000 N 
ATOM      4  C   UNL     1      14.594   1.509  -3.072  0.00  0.00    +0.000 C 
ATOM      5  C   UNL     1      15.859   0.719  -3.597  0.00  0.00    +0.000 C 
ATOM      6  C   UNL     1      15.554  -0.856  -4.500  0.00  0.00    +0.000 C 
ATOM      7  C   UNL     1      14.586   0.089  -5.655  0.00  0.00    +0.000 C 
ATOM      8  C   UNL     1      13.355   0.871  -5.072  0.00  0.00    +0.000 C 
ENDROOT
BRANCH   6   9
ATOM      9  N   UNL     1      15.687  -2.641  -3.944  0.00  0.00    +0.000 N 
ATOM     10  C   UNL     1      16.541  -1.992  -2.995  0.00  0.00    +0.000 C 
ATOM     11  O   UNL     1      17.586  -1.298  -3.250  0.00  0.00    +0.000 OA
ATOM     12  O   UNL     1      16.148  -2.038  -1.743  0.00  0.00    +0.000 OA
ATOM     13  C   UNL     1      16.949  -3.093  -1.359  0.00  0.00    +0.000 C 
ATOM     14  C   UNL     1      15.865  -4.028  -1.587  0.00  0.00    +0.000 A 
ATOM     15  C   UNL     1      15.197  -4.626  -0.414  0.00  0.00    +0.000 A 
ATOM     16  C   UNL     1      14.877  -5.935  -0.166  0.00  0.00    +0.000 A 
ATOM     17  C   UNL     1      15.217  -6.652  -1.267  0.00  0.00    +0.000 A 
ATOM     18  C   UNL     1      15.586  -5.841  -2.679  0.00  0.00    +0.000 A 
ATOM     19  C   UNL     1      15.657  -4.230  -2.907  0.00  0.00    +0.000 A 
ENDBRANCH   6   9
BRANCH   1  23
ATOM     20  C   UNL     1       8.549   2.861  -3.252  0.00  0.00    +0.000 A 
ATOM     21  C   UNL     1       9.124   4.107  -3.514  0.00  0.00    +0.000 A 
ATOM     22  C   UNL     1      10.492   4.209  -3.889  0.00  0.00    +0.000 A 
ATOM     23  C   UNL     1      11.337   3.072  -3.901  0.00  0.00    +0.000 A 
ATOM     24  C   UNL     1      10.727   1.854  -3.620  0.00  0.00    +0.000 A 
ATOM     25  C   UNL     1       9.362   1.739  -3.322  0.00  0.00    +0.000 A 
BRANCH  20  26
ATOM     26  O   UNL     1       7.193   2.806  -3.050  0.00  0.00    +0.000 OA
BRANCH  26  27
ATOM     27  C   UNL     1       6.734   1.826  -2.104  0.00  0.00    +0.000 C 
BRANCH  27  28
ATOM     28  C   UNL     1       5.200   1.807  -2.100  0.00  0.00    +0.000 C 
BRANCH  28  29
ATOM     29  C   UNL     1       4.654   0.848  -1.043  0.00  0.00    +0.000 C 
BRANCH  29  33
ATOM     30  C   UNL     1       1.038   0.027  -0.130  0.00  0.00    +0.000 C 
ATOM     31  C   UNL     1       2.549  -0.010  -0.089  0.00  0.00    +0.000 C 
ATOM     32  O   UNL     1       3.151  -0.725   0.707  0.00  0.00    +0.000 OA
ATOM     33  N   UNL     1       3.197   0.804  -0.998  0.00  0.00    +0.000 N 
ATOM     34  H   UNL     1       2.662   1.379  -1.636  0.00  0.00    +0.000 HD
ENDBRANCH  29  33
ENDBRANCH  28  29
ENDBRANCH  27  28
ENDBRANCH  26  27
ENDBRANCH  20  26
ENDBRANCH   1  23
TORSDOF 7
