REMARK  Name = CHEMBL3813894
REMARK  24 active torsions:
REMARK  status: ('A' for Active; 'I' for Inactive)
REMARK    1  A    between atoms: C_1  and  C_2
REMARK    2  A    between atoms: C_2  and  C_3
REMARK    3  A    between atoms: C_3  and  C_4
REMARK    4  A    between atoms: C_3  and  C_5
REMARK    5  A    between atoms: C_9  and  C_10
REMARK    6  A    between atoms: C_10  and  C_11
REMARK    7  A    between atoms: C_14  and  O_15
REMARK    8  A    between atoms: C_21  and  N_22
REMARK    9  A    between atoms: C_27  and  C_28
REMARK   10  A    between atoms: C_34  and  C_35
REMARK   11  A    between atoms: N_37  and  C_38
REMARK   12  A    between atoms: C_38  and  C_39
REMARK   13  A    between atoms: C_38  and  C_43
REMARK   14  A    between atoms: C_39  and  C_40
REMARK   15  A    between atoms: C_40  and  C_41
REMARK   16  A    between atoms: C_40  and  C_42
REMARK   17  A    between atoms: N_45  and  C_46
REMARK   18  A    between atoms: C_46  and  C_47
REMARK   19  A    between atoms: N_50  and  C_51
REMARK   20  A    between atoms: C_54  and  C_55
REMARK   21  A    between atoms: C_55  and  C_56
REMARK   22  A    between atoms: C_62  and  C_63
REMARK   23  A    between atoms: C_63  and  C_64
REMARK   24  A    between atoms: C_64  and  C_65
REMARK                            x       y       z     vdW  Elec       q    Type
REMARK                         _______ _______ _______ _____ _____    ______ ____
ROOT
ATOM      1  C   UNL     1      -0.303  -4.608   3.698  0.00  0.00    +0.000 C 
ATOM      2  N   UNL     1      -2.524  -6.237   4.654  0.00  0.00    +0.000 N 
ATOM      3  C   UNL     1      -4.750  -7.674   5.568  0.00  0.00    +0.000 C 
ATOM      4  O   UNL     1      -5.868  -9.152   6.051  0.00  0.00    +0.000 OA
ATOM      5  C   UNL     1      -7.420  -8.345   6.290  0.00  0.00    +0.000 C 
ATOM      6  N   UNL     1      -8.644  -7.731   7.289  0.00  0.00    +0.000 N 
ATOM      7  C   UNL     1      -7.357  -7.401   7.167  0.00  0.00    +0.000 C 
ATOM      8  O   UNL     1      -6.732  -6.603   7.790  0.00  0.00    +0.000 OA
ATOM      9  C   UNL     1      -6.389  -7.634   5.859  0.00  0.00    +0.000 C 
ATOM     10  C   UNL     1      -6.030  -7.309   4.603  0.00  0.00    +0.000 C 
ATOM     11  S   UNL     1      -4.942  -5.906   5.857  0.00  0.00    +0.000 S 
ATOM     12  S   UNL     1      -4.159  -5.047   4.246  0.00  0.00    +0.000 S 
ATOM     13  C   UNL     1      -2.813  -4.028   4.992  0.00  0.00    +0.000 C 
ATOM     14  C   UNL     1      -2.246  -3.171   3.934  0.00  0.00    +0.000 C 
ATOM     15  N   UNL     1      -1.798  -4.093   2.983  0.00  0.00    +0.000 N 
ATOM     16  C   UNL     1      -2.200  -5.165   2.248  0.00  0.00    +0.000 C 
ATOM     17  C   UNL     1      -0.952  -3.992   2.014  0.00  0.00    +0.000 C 
ATOM     18  O   UNL     1      -0.521  -3.263   2.888  0.00  0.00    +0.000 OA
ATOM     19  C   UNL     1       0.492  -4.889   1.727  0.00  0.00    +0.000 C 
ATOM     20  N   UNL     1       1.067  -3.951   0.417  0.00  0.00    +0.000 N 
ATOM     21  C   UNL     1       2.597  -3.313   0.629  0.00  0.00    +0.000 C 
ATOM     22  O   UNL     1       3.133  -2.075  -0.510  0.00  0.00    +0.000 OA
ATOM     23  C   UNL     1       2.575  -2.617   2.959  0.00  0.00    +0.000 C 
ATOM     24  N   UNL     1       4.084  -2.961   3.013  0.00  0.00    +0.000 N 
ATOM     25  C   UNL     1       2.165  -3.407   3.272  0.00  0.00    +0.000 C 
ATOM     26  O   UNL     1       3.916  -2.910   2.619  0.00  0.00    +0.000 OA
ATOM     27  H   UNL     1      -3.779  -7.334   5.235  0.00  0.00    +0.000 HD
ATOM     28  H   UNL     1      -9.261  -7.155   7.918  0.00  0.00    +0.000 HD
ATOM     29  H   UNL     1       1.124  -4.211  -0.383  0.00  0.00    +0.000 HD
ATOM     30  H   UNL     1       4.560  -3.627   3.441  0.00  0.00    +0.000 HD
ENDROOT
BRANCH  14  31
ATOM     31  C   UNL     1      -1.244  -2.141   4.554  0.00  0.00    +0.000 C 
ATOM     32  O   UNL     1      -0.051  -2.093   4.312  0.00  0.00    +0.000 OA
ATOM     33  N   UNL     1      -1.745  -1.193   5.454  0.00  0.00    +0.000 N 
ATOM     34  C   UNL     1      -2.641  -1.418   6.581  0.00  0.00    +0.000 C 
ATOM     35  C   UNL     1      -3.582  -0.250   6.478  0.00  0.00    +0.000 C 
ATOM     36  C   UNL     1      -2.650   0.921   6.170  0.00  0.00    +0.000 C 
ATOM     37  C   UNL     1      -1.558   0.293   5.337  0.00  0.00    +0.000 C 
BRANCH  37  38
ATOM     38  C   UNL     1      -0.443   0.839   6.177  0.00  0.00    +0.000 C 
ATOM     39  O   UNL     1       0.386  -0.214   6.788  0.00  0.00    +0.000 OA
ATOM     40  N   UNL     1       0.221   2.101   5.890  0.00  0.00    +0.000 N 
ATOM     41  H   UNL     1      -0.345   2.814   5.494  0.00  0.00    +0.000 HD
BRANCH  40  42
ATOM     42  C   UNL     1       1.582   2.484   6.391  0.00  0.00    +0.000 C 
BRANCH  42  43
ATOM     43  C   UNL     1       1.771   4.014   6.251  0.00  0.00    +0.000 C 
ATOM     44  O   UNL     1       0.856   4.689   5.757  0.00  0.00    +0.000 OA
ATOM     45  N   UNL     1       2.980   4.605   6.703  0.00  0.00    +0.000 N 
ATOM     46  H   UNL     1       3.723   4.054   7.102  0.00  0.00    +0.000 HD
BRANCH  45  47
ATOM     47  C   UNL     1       3.202   6.051   6.589  0.00  0.00    +0.000 C 
BRANCH  47  48
ATOM     48  C   UNL     1       4.580   6.469   7.134  0.00  0.00    +0.000 C 
ATOM     49  N   UNL     1       5.427   5.458   7.653  0.00  0.00    +0.000 N 
ATOM     50  O   UNL     1       4.920   7.657   7.115  0.00  0.00    +0.000 OA
ATOM     51  H   UNL     1       5.183   4.484   7.682  0.00  0.00    +0.000 HD
ATOM     52  H   UNL     1       6.345   5.693   8.020  0.00  0.00    +0.000 HD
ENDBRANCH  47  48
ENDBRANCH  45  47
ENDBRANCH  42  43
BRANCH  42  53
ATOM     53  C   UNL     1       2.664   1.763   5.655  0.00  0.00    +0.000 C 
BRANCH  53  54
ATOM     54  C   UNL     1       2.519   0.265   5.759  0.00  0.00    +0.000 C 
ATOM     55  C   UNL     1       1.338  -0.250   5.141  0.00  0.00    +0.000 C 
ATOM     56  C   UNL     1       3.579  -0.477   5.141  0.00  0.00    +0.000 C 
ENDBRANCH  53  54
ENDBRANCH  42  53
ENDBRANCH  40  42
ENDBRANCH  37  38
ENDBRANCH  14  31
BRANCH   9  57
ATOM     57  N   UNL     1      -7.279  -9.502   5.083  0.00  0.00    +0.000 NA
ATOM     58  H   UNL     1      -8.165  -9.317   5.135  0.00  0.00    +0.000 HD
ATOM     59  H   UNL     1      -7.811 -10.079   6.018  0.00  0.00    +0.000 HD
ENDBRANCH   9  57
BRANCH   1  60
ATOM     60  C   UNL     1       1.200  -2.827   2.033  0.00  0.00    +0.000 C 
ATOM     61  C   UNL     1       2.117  -0.823   0.758  0.00  0.00    +0.000 C 
BRANCH  60  63
ATOM     62  C   UNL     1       1.791  -3.622   1.873  0.00  0.00    +0.000 C 
ATOM     63  C   UNL     1       2.348  -1.883   0.870  0.00  0.00    +0.000 C 
ENDBRANCH  60  63
ENDBRANCH   1  60
BRANCH  19  64
ATOM     64  C   UNL     1       1.806  -5.660   2.666  0.00  0.00    +0.000 C 
BRANCH  64  65
ATOM     65  C   UNL     1       1.320  -6.018   3.992  0.00  0.00    +0.000 C 
ATOM     66  N   UNL     1      -0.005  -6.042   4.419  0.00  0.00    +0.000 N 
ATOM     67  O   UNL     1       2.060  -6.577   4.764  0.00  0.00    +0.000 OA
ATOM     68  H   UNL     1      -1.003  -5.704   3.769  0.00  0.00    +0.000 HD
ATOM     69  H   UNL     1      -0.452  -5.925   5.258  0.00  0.00    +0.000 HD
ENDBRANCH  64  65
ENDBRANCH  19  64
BRANCH   5  70
ATOM     70  C   UNL     1      -9.326  -8.511   5.093  0.00  0.00    +0.000 C 
BRANCH  70  71
ATOM     71  C   UNL     1     -10.061  -9.710   4.379  0.00  0.00    +0.000 A 
ATOM     72  C   UNL     1     -10.794 -10.689   5.030  0.00  0.00    +0.000 A 
ATOM     73  C   UNL     1     -11.550 -11.614   4.320  0.00  0.00    +0.000 A 
ATOM     74  C   UNL     1     -11.570 -11.543   2.939  0.00  0.00    +0.000 A 
ATOM     75  C   UNL     1     -10.813 -10.595   2.287  0.00  0.00    +0.000 A 
ATOM     76  C   UNL     1     -10.072  -9.689   3.002  0.00  0.00    +0.000 A 
BRANCH  74  77
ATOM     77  O   UNL     1     -12.291 -12.379   2.151  0.00  0.00    +0.000 OA
ATOM     78  H   UNL     1     -12.827 -13.048   2.594  0.00  0.00    +0.000 HD
ENDBRANCH  74  77
ENDBRANCH  70  71
ENDBRANCH   5  70
BRANCH  23  79
ATOM     79  C   UNL     1       2.332  -1.118   3.149  0.00  0.00    +0.000 C 
BRANCH  79  80
ATOM     80  C   UNL     1       3.446  -0.060   2.788  0.00  0.00    +0.000 C 
BRANCH  80  81
ATOM     81  C   UNL     1       2.733   1.245   3.157  0.00  0.00    +0.000 C 
ATOM     82  N   UNL     1       1.317   1.338   3.375  0.00  0.00    +0.000 N 
ATOM     83  O   UNL     1       3.448   2.257   3.276  0.00  0.00    +0.000 OA
ATOM     84  H   UNL     1       0.663   0.532   3.266  0.00  0.00    +0.000 HD
ATOM     85  H   UNL     1       0.850   2.129   3.757  0.00  0.00    +0.000 HD
ENDBRANCH  80  81
ENDBRANCH  79  80
ENDBRANCH  23  79
TORSDOF 19
