REMARK  Name = CHEMBL1765671
REMARK  35 active torsions:
REMARK  status: ('A' for Active; 'I' for Inactive)
REMARK    1  A    between atoms: CD1_1  and  CG_2
REMARK    2  A    between atoms: CG_2  and  CD2_3
REMARK    3  A    between atoms: CG_2  and  CB_4
REMARK    4  A    between atoms: CB_4  and  CA_5
REMARK    5  A    between atoms: CA_9  and  CB_10
REMARK    6  A    between atoms: CB_10  and  CG_11
REMARK    7  A    between atoms: CA_20  and  CB_21
REMARK    8  A    between atoms: CB_21  and  CG_22
REMARK    9  A    between atoms: CZ_25  and  OH_26
REMARK   10  A    between atoms: C_32  and  O_33
REMARK   11  A    between atoms: C_38  and  C_39
REMARK   12  A    between atoms: CA_45  and  C_46
REMARK   13  A    between atoms: N_48  and  C_49
REMARK   14  A    between atoms: C_49  and  C_50
REMARK   15  A    between atoms: C_49  and  C_68
REMARK   16  A    between atoms: C_50  and  C_51
REMARK   17  A    between atoms: C_51  and  C_52
REMARK   18  A    between atoms: C_52  and  C_53
REMARK   19  A    between atoms: C_53  and  N_54
REMARK   20  A    between atoms: C_55  and  C_57
REMARK   21  A    between atoms: C_57  and  C_58
REMARK   22  A    between atoms: C_58  and  C_59
REMARK   23  A    between atoms: C_59  and  C_60
REMARK   24  A    between atoms: C_60  and  C_61
REMARK   25  A    between atoms: C_61  and  C_62
REMARK   26  A    between atoms: C_62  and  C_63
REMARK   27  A    between atoms: C_63  and  C_64
REMARK   28  A    between atoms: C_64  and  C_65
REMARK   29  A    between atoms: C_65  and  C_66
REMARK   30  A    between atoms: C_66  and  N_67
REMARK   31  A    between atoms: N_70  and  CA_71
REMARK   32  A    between atoms: CA_71  and  C_72
REMARK   33  A    between atoms: C_72  and  OXT_74
REMARK   34  A    between atoms: CA_78  and  CB_79
REMARK   35  A    between atoms: CB_79  and  CG_80
REMARK                            x       y       z     vdW  Elec       q    Type
REMARK                         _______ _______ _______ _____ _____    ______ ____
ROOT
ATOM      1  CA  TYR A   1       4.223   0.149   4.517  0.00  0.00    +0.000 C 
ATOM      2  N   TYR A   1       3.487   0.930   6.934  0.00  0.00    +0.000 N 
ATOM      3  C   TYR A   1       2.599   1.177   9.094  0.00  0.00    +0.000 C 
ATOM      4  O   TYR A   1       2.875   0.739  10.757  0.00  0.00    +0.000 OA
ATOM      5  CA  TYR A   1       1.252   1.986  10.859  0.00  0.00    +0.000 C 
ATOM      6  N   TYR A   1       0.313   2.595  10.008  0.00  0.00    +0.000 N 
ATOM      7  C   TYR A   1       0.461   1.707   9.005  0.00  0.00    +0.000 C 
ATOM      8  O   TYR A   1       0.208   2.149   7.916  0.00  0.00    +0.000 OA
ATOM      9  CA  TYR A   1       1.024   0.193   9.318  0.00  0.00    +0.000 C 
ATOM     10  N   TYR A   1       0.127  -0.728   8.888  0.00  0.00    +0.000 N 
ATOM     11  C   UNK A   0      -0.200  -0.865   7.545  0.00  0.00    +0.000 C 
ATOM     12  O   UNK A   0      -1.004  -1.726   7.194  0.00  0.00    +0.000 OA
ATOM     13  C   UNK A   0       0.428   0.045   6.469  0.00  0.00    +0.000 C 
ATOM     14  C   UNK A   0       1.194  -0.743   5.467  0.00  0.00    +0.000 C 
ATOM     15  S   UNK A   3      -0.045  -1.837   4.665  0.00  0.00    +0.000 S 
ATOM     16  S   UNK A   3       0.709  -3.085   3.452  0.00  0.00    +0.000 S 
ATOM     17  C   UNK A   3      -0.034  -4.127   2.344  0.00  0.00    +0.000 C 
ATOM     18  C   UNK A   3       0.776  -4.922   1.347  0.00  0.00    +0.000 C 
ATOM     19  N   UNK A   3       1.442  -4.004   0.390  0.00  0.00    +0.000 N 
ATOM     20  C   ASN A   2       2.374  -3.019   0.739  0.00  0.00    +0.000 C 
ATOM     21  O   ASN A   2       2.867  -2.245  -0.077  0.00  0.00    +0.000 OA
ATOM     22  CA  ASN A   2       2.854  -2.868   2.198  0.00  0.00    +0.000 C 
ATOM     23  N   ASN A   2       4.206  -2.986   2.563  0.00  0.00    +0.000 N 
ATOM     24  C   TYR A   1       4.874  -1.955   3.768  0.00  0.00    +0.000 C 
ATOM     25  O   TYR A   1       5.922  -2.220   2.476  0.00  0.00    +0.000 OA
ATOM     26  H   TYR A   1       3.939   1.764   8.129  0.00  0.00    +0.000 HD
ATOM     27  H   TYR A   1       0.035   3.572   9.825  0.00  0.00    +0.000 HD
ATOM     28  H   TYR A   1      -0.237  -1.347   9.592  0.00  0.00    +0.000 HD
ATOM     29  H   UNK A   3       1.165  -4.103  -0.598  0.00  0.00    +0.000 HD
ATOM     30  H   ASN A   2       4.497  -3.873   2.963  0.00  0.00    +0.000 HD
ENDROOT
BRANCH  18  31
ATOM     31  C   UNK A   3      -0.195  -5.918   0.631  0.00  0.00    +0.000 C 
ATOM     32  O   UNK A   3      -0.298  -5.841  -0.598  0.00  0.00    +0.000 OA
ATOM     33  N   PRO A   4      -0.865  -6.898   1.414  0.00  0.00    +0.000 N 
ATOM     34  CD  PRO A   4      -1.588  -6.720   2.674  0.00  0.00    +0.000 C 
ATOM     35  CG  PRO A   4      -1.240  -7.967   3.440  0.00  0.00    +0.000 C 
ATOM     36  CB  PRO A   4      -1.368  -9.054   2.374  0.00  0.00    +0.000 C 
ATOM     37  CA  PRO A   4      -0.951  -8.368   1.063  0.00  0.00    +0.000 C 
BRANCH  37  38
ATOM     38  C   PRO A   4      -2.007  -8.640   0.007  0.00  0.00    +0.000 C 
ATOM     39  O   PRO A   4      -2.699  -7.666  -0.305  0.00  0.00    +0.000 OA
ATOM     40  N   UNK A   5      -2.201  -9.943  -0.491  0.00  0.00    +0.000 N 
ATOM     41  H   UNK A   5      -1.692 -10.748  -0.128  0.00  0.00    +0.000 HD
BRANCH  40  42
ATOM     42  C   UNK A   5      -3.186 -10.234  -1.575  0.00  0.00    +0.000 C 
BRANCH  42  43
ATOM     43  C   UNK A   5      -3.238 -11.756  -1.901  0.00  0.00    +0.000 C 
ATOM     44  O   UNK A   5      -2.497 -12.525  -1.279  0.00  0.00    +0.000 OA
ATOM     45  N   GLY A   6      -4.118 -12.217  -2.888  0.00  0.00    +0.000 N 
ATOM     46  H   GLY A   6      -4.740 -11.593  -3.411  0.00  0.00    +0.000 HD
BRANCH  45  47
ATOM     47  CA  GLY A   6      -4.203 -13.659  -3.244  0.00  0.00    +0.000 C 
BRANCH  47  48
ATOM     48  C   GLY A   6      -5.236 -13.907  -4.351  0.00  0.00    +0.000 C 
ATOM     49  O   GLY A   6      -5.867 -12.962  -4.823  0.00  0.00    +0.000 OA
BRANCH  48  50
ATOM     50  OXT GLY A   6      -5.437 -15.183  -4.794  0.00  0.00    +0.000 OA
ATOM     51  HXT GLY A   6      -4.941 -15.944  -4.427  0.00  0.00    +0.000 HD
ENDBRANCH  48  50
ENDBRANCH  47  48
ENDBRANCH  45  47
ENDBRANCH  42  43
BRANCH  42  52
ATOM     52  C   UNK A   5      -2.806  -9.461  -2.820  0.00  0.00    +0.000 C 
BRANCH  52  53
ATOM     53  C   UNK A   5      -2.768  -7.981  -2.572  0.00  0.00    +0.000 C 
BRANCH  53  54
ATOM     54  C   UNK A   5      -2.368  -7.187  -3.756  0.00  0.00    +0.000 C 
BRANCH  54  55
ATOM     55  C   UNK A   5      -2.316  -5.707  -3.445  0.00  0.00    +0.000 C 
BRANCH  55  56
ATOM     56  N   UNK A   5      -1.941  -4.914  -4.626  0.00  0.00    +0.000 N 
ATOM     57  C   UNK A   5      -1.839  -3.517  -4.549  0.00  0.00    +0.000 C 
ATOM     58  O   UNK A   5      -2.062  -2.902  -3.504  0.00  0.00    +0.000 OA
ATOM     59  H   UNK A   5      -1.760  -5.431  -5.480  0.00  0.00    +0.000 HD
BRANCH  57  60
ATOM     60  C   UNK A   5      -1.444  -2.740  -5.811  0.00  0.00    +0.000 C 
BRANCH  60  61
ATOM     61  C   UNK A   5      -1.393  -1.244  -5.517  0.00  0.00    +0.000 C 
BRANCH  61  62
ATOM     62  C   UNK A   5      -1.004  -0.457  -6.744  0.00  0.00    +0.000 C 
BRANCH  62  63
ATOM     63  C   UNK A   5      -0.957   1.021  -6.440  0.00  0.00    +0.000 C 
BRANCH  63  64
ATOM     64  C   UNK A   5      -0.569   1.805  -7.670  0.00  0.00    +0.000 C 
BRANCH  64  65
ATOM     65  C   UNK A   5      -0.522   3.283  -7.367  0.00  0.00    +0.000 C 
BRANCH  65  66
ATOM     66  C   UNK A   5      -0.133   4.067  -8.597  0.00  0.00    +0.000 C 
BRANCH  66  67
ATOM     67  C   UNK A   5      -0.086   5.545  -8.293  0.00  0.00    +0.000 C 
BRANCH  67  68
ATOM     68  C   UNK A   5       0.303   6.331  -9.525  0.00  0.00    +0.000 C 
BRANCH  68  69
ATOM     69  C   UNK A   5       0.352   7.811  -9.223  0.00  0.00    +0.000 C 
BRANCH  69  70
ATOM     70  N   UNK A   5       0.723   8.557 -10.416  0.00  0.00    +0.000 NA
ATOM     71  H   UNK A   5       1.646   8.259 -10.731  0.00  0.00    +0.000 HD
ATOM     72  H   UNK A   5       0.762   9.553 -10.202  0.00  0.00    +0.000 HD
ENDBRANCH  69  70
ENDBRANCH  68  69
ENDBRANCH  67  68
ENDBRANCH  66  67
ENDBRANCH  65  66
ENDBRANCH  64  65
ENDBRANCH  63  64
ENDBRANCH  62  63
ENDBRANCH  61  62
ENDBRANCH  60  61
ENDBRANCH  57  60
ENDBRANCH  55  56
ENDBRANCH  54  55
ENDBRANCH  53  54
ENDBRANCH  52  53
ENDBRANCH  42  52
ENDBRANCH  40  42
ENDBRANCH  37  38
ENDBRANCH  18  31
BRANCH  13  73
ATOM     73  O   UNK A   0       1.302   1.018   6.788  0.00  0.00    +0.000 OA
ATOM     74  H   UNK A   0       1.840   0.857   7.516  0.00  0.00    +0.000 HD
ENDBRANCH  13  73
BRANCH  22  75
ATOM     75  CB  ASN A   2       2.394  -1.534   2.686  0.00  0.00    +0.000 C 
BRANCH  75  76
ATOM     76  CG  ASN A   2       3.247  -0.502   3.088  0.00  0.00    +0.000 C 
ATOM     77  ND2 ASN A   2       5.231  -0.572   3.124  0.00  0.00    +0.000 N 
ATOM     78  OD1 ASN A   2       2.815   0.781   3.134  0.00  0.00    +0.000 OA
ATOM     79 HD21 ASN A   2       4.851  -1.406   2.058  0.00  0.00    +0.000 HD
ATOM     80 HD22 ASN A   2       5.955  -0.177   2.468  0.00  0.00    +0.000 HD
ENDBRANCH  75  76
ENDBRANCH  22  75
BRANCH   9  81
ATOM     81  CB  TYR A   1       2.310  -0.413   8.617  0.00  0.00    +0.000 C 
BRANCH  81  82
ATOM     82  CG  TYR A   1       3.774   0.532   8.550  0.00  0.00    +0.000 A 
ATOM     83  CD1 TYR A   1       3.107   2.598   8.831  0.00  0.00    +0.000 A 
ATOM     84  CE1 TYR A   1       3.970   3.340   9.923  0.00  0.00    +0.000 A 
ATOM     85  CZ  TYR A   1       5.291   3.180   9.675  0.00  0.00    +0.000 A 
ATOM     86  CE2 TYR A   1       5.660   2.080   8.886  0.00  0.00    +0.000 A 
ATOM     87  CD2 TYR A   1       5.026   0.723   8.780  0.00  0.00    +0.000 A 
BRANCH  85  88
ATOM     88  OH  TYR A   1       6.235   4.101  10.013  0.00  0.00    +0.000 OA
ATOM     89  HH  TYR A   1       5.950   4.830  10.596  0.00  0.00    +0.000 HD
ENDBRANCH  85  88
ENDBRANCH  81  82
ENDBRANCH   9  81
BRANCH   5  90
ATOM     90  CB  TYR A   1      -0.135   1.142  11.855  0.00  0.00    +0.000 C 
BRANCH  90  91
ATOM     91  CG  TYR A   1       0.109   0.857  13.301  0.00  0.00    +0.000 A 
ATOM     92  CD1 TYR A   1       1.176   1.409  13.954  0.00  0.00    +0.000 A 
ATOM     93  CE1 TYR A   1       1.614   0.824  15.120  0.00  0.00    +0.000 A 
ATOM     94  CZ  TYR A   1       0.847  -0.061  15.819  0.00  0.00    +0.000 A 
ATOM     95  CE2 TYR A   1      -0.257  -0.556  15.201  0.00  0.00    +0.000 A 
ATOM     96  CD2 TYR A   1      -0.645  -0.083  13.970  0.00  0.00    +0.000 A 
ENDBRANCH  90  91
ENDBRANCH   5  90
BRANCH   1  97
ATOM     97  CB  TYR A   1       4.531   0.204   1.981  0.00  0.00    +0.000 C 
BRANCH  97  99
ATOM     98  CD1 TYR A   1       4.377   1.684  -0.165  0.00  0.00    +0.000 C 
ATOM     99  CG  TYR A   1       4.409   0.292  -0.303  0.00  0.00    +0.000 C 
ATOM    100  CD2 TYR A   1       5.098   0.713  -2.235  0.00  0.00    +0.000 C 
ENDBRANCH  97  99
ENDBRANCH   1  97
TORSDOF 33
