REMARK  Name = CHEMBL439044
REMARK  22 active torsions:
REMARK  status: ('A' for Active; 'I' for Inactive)
REMARK    1  A    between atoms: C_1  and  C_2
REMARK    2  A    between atoms: C_2  and  C_3
REMARK    3  A    between atoms: C_3  and  C_4
REMARK    4  A    between atoms: C_3  and  C_5
REMARK    5  A    between atoms: C_9  and  C_10
REMARK    6  A    between atoms: C_10  and  C_11
REMARK    7  A    between atoms: C_14  and  O_15
REMARK    8  A    between atoms: C_26  and  C_27
REMARK    9  A    between atoms: C_33  and  C_34
REMARK   10  A    between atoms: N_36  and  C_37
REMARK   11  A    between atoms: C_37  and  C_38
REMARK   12  A    between atoms: C_37  and  C_42
REMARK   13  A    between atoms: C_38  and  C_39
REMARK   14  A    between atoms: C_39  and  C_40
REMARK   15  A    between atoms: C_39  and  C_41
REMARK   16  A    between atoms: N_44  and  C_45
REMARK   17  A    between atoms: C_45  and  C_46
REMARK   18  A    between atoms: C_52  and  C_53
REMARK   19  A    between atoms: C_53  and  C_54
REMARK   20  A    between atoms: C_60  and  C_61
REMARK   21  A    between atoms: C_61  and  C_62
REMARK   22  A    between atoms: C_62  and  C_63
REMARK                            x       y       z     vdW  Elec       q    Type
REMARK                         _______ _______ _______ _____ _____    ______ ____
ROOT
ATOM      1  C   UNL     1       4.723  -0.592  -2.773  0.00  0.00    +0.000 C 
ATOM      2  N   UNL     1       4.870  -0.999  -4.695  0.00  0.00    +0.000 N 
ATOM      3  C   UNL     1       4.744  -0.896  -6.198  0.00  0.00    +0.000 C 
ATOM      4  O   UNL     1       4.509  -2.028  -6.742  0.00  0.00    +0.000 OA
ATOM      5  C   UNL     1       4.850   0.514  -7.356  0.00  0.00    +0.000 C 
ATOM      6  N   UNL     1       5.349   0.210  -8.806  0.00  0.00    +0.000 N 
ATOM      7  C   UNL     1       4.806  -0.031 -10.058  0.00  0.00    +0.000 C 
ATOM      8  O   UNL     1       5.596   0.082 -11.015  0.00  0.00    +0.000 OA
ATOM      9  C   UNL     1       3.354  -0.420 -10.479  0.00  0.00    +0.000 C 
ATOM     10  C   UNL     1       2.358  -0.664  -9.424  0.00  0.00    +0.000 C 
ATOM     11  S   UNL     1       0.552  -1.138  -9.844  0.00  0.00    +0.000 S 
ATOM     12  S   UNL     1      -0.329  -1.688  -8.081  0.00  0.00    +0.000 S 
ATOM     13  C   UNL     1      -1.884  -1.275  -7.243  0.00  0.00    +0.000 C 
ATOM     14  C   UNL     1      -2.338  -1.051  -5.785  0.00  0.00    +0.000 C 
ATOM     15  N   UNL     1      -1.755  -2.008  -4.833  0.00  0.00    +0.000 N 
ATOM     16  C   UNL     1      -0.464  -2.147  -4.544  0.00  0.00    +0.000 C 
ATOM     17  O   UNL     1      -0.067  -3.005  -3.762  0.00  0.00    +0.000 OA
ATOM     18  C   UNL     1       0.366  -1.065  -5.079  0.00  0.00    +0.000 C 
ATOM     19  N   UNL     1       0.853  -0.736  -3.825  0.00  0.00    +0.000 N 
ATOM     20  C   UNL     1       2.150  -1.183  -3.778  0.00  0.00    +0.000 C 
ATOM     21  O   UNL     1       2.978  -0.352  -4.062  0.00  0.00    +0.000 OA
ATOM     22  C   UNL     1       2.650  -2.539  -3.276  0.00  0.00    +0.000 C 
ATOM     23  N   UNL     1       4.114  -2.819  -3.288  0.00  0.00    +0.000 N 
ATOM     24  C   UNL     1       5.144  -2.020  -2.763  0.00  0.00    +0.000 C 
ATOM     25  O   UNL     1       6.343  -2.301  -2.758  0.00  0.00    +0.000 OA
ATOM     26  H   UNL     1       4.876  -1.994  -4.930  0.00  0.00    +0.000 HD
ATOM     27  H   UNL     1       6.317   0.500  -8.913  0.00  0.00    +0.000 HD
ATOM     28  H   UNL     1      -2.326  -2.668  -4.315  0.00  0.00    +0.000 HD
ATOM     29  H   UNL     1       0.574   0.238  -3.740  0.00  0.00    +0.000 HD
ATOM     30  H   UNL     1       4.347  -3.097  -4.201  0.00  0.00    +0.000 HD
ENDROOT
BRANCH  14  31
ATOM     31  C   UNL     1      -3.858  -1.257  -5.720  0.00  0.00    +0.000 C 
ATOM     32  O   UNL     1      -4.210  -2.012  -4.812  0.00  0.00    +0.000 OA
ATOM     33  N   UNL     1      -4.696  -0.490  -6.546  0.00  0.00    +0.000 N 
ATOM     34  C   UNL     1      -4.459  -0.095  -7.918  0.00  0.00    +0.000 C 
ATOM     35  C   UNL     1      -5.098   1.261  -7.990  0.00  0.00    +0.000 C 
ATOM     36  C   UNL     1      -6.403   1.039  -7.280  0.00  0.00    +0.000 C 
ATOM     37  C   UNL     1      -6.128  -0.104  -6.293  0.00  0.00    +0.000 C 
BRANCH  37  38
ATOM     38  C   UNL     1      -7.225  -1.118  -6.798  0.00  0.00    +0.000 C 
ATOM     39  O   UNL     1      -6.929  -2.048  -7.548  0.00  0.00    +0.000 OA
ATOM     40  N   UNL     1      -8.493  -0.986  -6.212  0.00  0.00    +0.000 N 
ATOM     41  H   UNL     1      -8.758  -0.139  -5.714  0.00  0.00    +0.000 HD
BRANCH  40  42
ATOM     42  C   UNL     1      -9.428  -2.139  -6.076  0.00  0.00    +0.000 C 
BRANCH  42  43
ATOM     43  C   UNL     1     -10.848  -1.601  -5.707  0.00  0.00    +0.000 C 
ATOM     44  O   UNL     1     -11.036  -0.419  -5.423  0.00  0.00    +0.000 OA
ATOM     45  N   UNL     1     -11.870  -2.531  -5.696  0.00  0.00    +0.000 N 
ATOM     46  H   UNL     1     -11.664  -3.489  -5.917  0.00  0.00    +0.000 HD
BRANCH  45  47
ATOM     47  C   UNL     1     -13.253  -2.165  -5.384  0.00  0.00    +0.000 C 
BRANCH  47  48
ATOM     48  C   UNL     1     -14.278  -3.313  -5.433  0.00  0.00    +0.000 C 
ATOM     49  N   UNL     1     -13.829  -4.566  -5.746  0.00  0.00    +0.000 N 
ATOM     50  O   UNL     1     -15.473  -3.141  -5.201  0.00  0.00    +0.000 OA
ATOM     51  H   UNL     1     -12.881  -4.821  -5.953  0.00  0.00    +0.000 HD
ATOM     52  H   UNL     1     -14.513  -5.313  -5.776  0.00  0.00    +0.000 HD
ENDBRANCH  47  48
ENDBRANCH  45  47
ENDBRANCH  42  43
BRANCH  42  53
ATOM     53  C   UNL     1      -9.028  -3.214  -5.002  0.00  0.00    +0.000 C 
BRANCH  53  54
ATOM     54  C   UNL     1      -7.652  -3.842  -5.192  0.00  0.00    +0.000 C 
ATOM     55  C   UNL     1      -6.588  -2.867  -4.831  0.00  0.00    +0.000 C 
ATOM     56  C   UNL     1      -7.281  -4.957  -4.253  0.00  0.00    +0.000 C 
ENDBRANCH  53  54
ENDBRANCH  42  53
ENDBRANCH  40  42
ENDBRANCH  37  38
ENDBRANCH  14  31
BRANCH   1  57
ATOM     57  C   UNL     1       3.426  -0.403  -1.265  0.00  0.00    +0.000 C 
ATOM     58  C   UNL     1       2.915   0.095   0.206  0.00  0.00    +0.000 C 
BRANCH  57  60
ATOM     59  C   UNL     1       2.755   1.803  -1.754  0.00  0.00    +0.000 C 
ATOM     60  C   UNL     1       2.288   0.398  -1.733  0.00  0.00    +0.000 C 
ENDBRANCH  57  60
ENDBRANCH   1  57
BRANCH  18  61
ATOM     61  C   UNL     1       1.420  -1.471  -6.021  0.00  0.00    +0.000 C 
BRANCH  61  62
ATOM     62  C   UNL     1       1.656  -0.275  -6.771  0.00  0.00    +0.000 C 
ATOM     63  N   UNL     1       0.890   0.680  -7.244  0.00  0.00    +0.000 N 
ATOM     64  O   UNL     1       2.884  -0.241  -7.199  0.00  0.00    +0.000 OA
ATOM     65  H   UNL     1       0.230   1.147  -6.646  0.00  0.00    +0.000 HD
ATOM     66  H   UNL     1       1.353   1.340  -7.865  0.00  0.00    +0.000 HD
ENDBRANCH  61  62
ENDBRANCH  18  61
BRANCH   5  67
ATOM     67  C   UNL     1       3.820   1.887  -7.590  0.00  0.00    +0.000 C 
BRANCH  67  68
ATOM     68  C   UNL     1       2.937   2.419  -6.464  0.00  0.00    +0.000 A 
ATOM     69  C   UNL     1       3.206   1.816  -5.314  0.00  0.00    +0.000 A 
ATOM     70  C   UNL     1       2.178   1.898  -4.403  0.00  0.00    +0.000 A 
ATOM     71  C   UNL     1       0.974   2.505  -4.268  0.00  0.00    +0.000 A 
ATOM     72  C   UNL     1       0.649   3.067  -5.421  0.00  0.00    +0.000 A 
ATOM     73  C   UNL     1       1.644   3.095  -6.493  0.00  0.00    +0.000 A 
BRANCH  71  74
ATOM     74  O   UNL     1       0.065   2.033  -3.346  0.00  0.00    +0.000 OA
ATOM     75  H   UNL     1       0.446   1.628  -2.534  0.00  0.00    +0.000 HD
ENDBRANCH  71  74
ENDBRANCH  67  68
ENDBRANCH   5  67
BRANCH  22  76
ATOM     76  C   UNL     1       2.158  -2.994  -1.937  0.00  0.00    +0.000 C 
BRANCH  76  77
ATOM     77  C   UNL     1       3.399  -3.323  -0.995  0.00  0.00    +0.000 C 
BRANCH  77  78
ATOM     78  C   UNL     1       3.078  -3.698   0.379  0.00  0.00    +0.000 C 
ATOM     79  N   UNL     1       1.760  -3.800   0.644  0.00  0.00    +0.000 N 
ATOM     80  O   UNL     1       3.960  -3.861   1.209  0.00  0.00    +0.000 OA
ATOM     81  H   UNL     1       1.030  -3.579  -0.018  0.00  0.00    +0.000 HD
ATOM     82  H   UNL     1       1.513  -4.177   1.539  0.00  0.00    +0.000 HD
ENDBRANCH  77  78
ENDBRANCH  76  77
ENDBRANCH  22  76
TORSDOF 18
