REMARK  Name = CHEMBL285820
REMARK  7 active torsions:
REMARK  status: ('A' for Active; 'I' for Inactive)
REMARK    1  A    between atoms: C_1  and  N_2
REMARK    2  A    between atoms: N_8  and  C_9
REMARK    3  A    between atoms: C_9  and  C_10
REMARK    4  A    between atoms: N_12  and  C_13
REMARK    5  A    between atoms: C_13  and  C_14
REMARK    6  A    between atoms: C_18  and  C_19
REMARK    7  A    between atoms: C_24  and  N_25
REMARK                            x       y       z     vdW  Elec       q    Type
REMARK                         _______ _______ _______ _____ _____    ______ ____
ROOT
ATOM      1  C   UNL     1       7.704  -8.825   0.104  0.00  0.00    +0.000 A 
ATOM      2  C   UNL     1       9.041  -8.504   0.117  0.00  0.00    +0.000 A 
ATOM      3  C   UNL     1       9.771  -9.697   0.123  0.00  0.00    +0.000 A 
ATOM      4  C   UNL     1      11.147  -9.983   0.142  0.00  0.00    +0.000 A 
ATOM      5  C   UNL     1      11.564 -11.318   0.176  0.00  0.00    +0.000 A 
ATOM      6  C   UNL     1      10.578 -12.315   0.200  0.00  0.00    +0.000 A 
ATOM      7  C   UNL     1       9.198 -12.057   0.134  0.00  0.00    +0.000 A 
ATOM      8  C   UNL     1       8.830 -10.719   0.114  0.00  0.00    +0.000 A 
ATOM      9  O   UNL     1       7.560 -10.193   0.100  0.00  0.00    +0.000 OA
ENDROOT
BRANCH   5  10
ATOM     10  C   UNL     1      13.039 -11.636   0.247  0.00  0.00    +0.000 C 
ATOM     11  O   UNL     1      13.842 -10.711   0.367  0.00  0.00    +0.000 OA
ATOM     12  N   UNL     1      13.446 -12.983   0.131  0.00  0.00    +0.000 N 
ATOM     13  C   UNL     1      13.797 -13.754   1.329  0.00  0.00    +0.000 C 
ATOM     14  C   UNL     1      14.717 -14.925   1.003  0.00  0.00    +0.000 C 
ATOM     15  C   UNL     1      13.842 -16.120   0.035  0.00  0.00    +0.000 C 
ATOM     16  C   UNL     1      13.810 -15.000  -1.277  0.00  0.00    +0.000 C 
ATOM     17  C   UNL     1      12.970 -13.775  -0.996  0.00  0.00    +0.000 C 
BRANCH  15  18
ATOM     18  N   UNL     1      12.790 -17.285   1.020  0.00  0.00    +0.000 N 
ATOM     19  C   UNL     1      14.082 -17.835   1.358  0.00  0.00    +0.000 C 
ATOM     20  O   UNL     1      15.117 -17.266   1.817  0.00  0.00    +0.000 OA
ATOM     21  O   UNL     1      14.302 -19.048   0.904  0.00  0.00    +0.000 OA
ATOM     22  C   UNL     1      13.992 -19.685   2.074  0.00  0.00    +0.000 C 
ATOM     23  C   UNL     1      12.657 -20.042   1.601  0.00  0.00    +0.000 A 
ATOM     24  C   UNL     1      12.454 -21.516   1.918  0.00  0.00    +0.000 A 
ATOM     25  C   UNL     1      11.323 -22.098   2.389  0.00  0.00    +0.000 A 
ATOM     26  C   UNL     1      10.339 -21.140   2.394  0.00  0.00    +0.000 A 
ATOM     27  C   UNL     1      10.575 -19.555   1.906  0.00  0.00    +0.000 A 
ATOM     28  C   UNL     1      11.868 -18.878   1.325  0.00  0.00    +0.000 A 
ENDBRANCH  15  18
ENDBRANCH   5  10
BRANCH   1  29
ATOM     29  C   UNL     1       6.509  -7.948   0.095  0.00  0.00    +0.000 C 
BRANCH  29  32
ATOM     30  C   UNL     1       5.979  -5.566   0.082  0.00  0.00    +0.000 C 
ATOM     31  O   UNL     1       4.814  -5.951   0.081  0.00  0.00    +0.000 OA
ATOM     32  N   UNL     1       6.938  -6.537   0.090  0.00  0.00    +0.000 N 
ATOM     33  H   UNL     1       7.914  -6.287   0.094  0.00  0.00    +0.000 HD
BRANCH  30  34
ATOM     34  C   UNL     1       6.416  -4.072   0.075  0.00  0.00    +0.000 C 
BRANCH  34  42
ATOM     35  C   UNL     1       1.089  -0.114   0.063  0.00  0.00    +0.000 C 
ATOM     36  N   UNL     1       2.534  -0.138   0.063  0.00  0.00    +0.000 N 
ATOM     37  N   UNL     1       3.235   1.024   0.063  0.00  0.00    +0.000 NA
ATOM     38  C   UNL     1       4.516   0.624   0.063  0.00  0.00    +0.000 A 
ATOM     39  C   UNL     1       4.642  -0.766   0.062  0.00  0.00    +0.000 A 
ATOM     40  C   UNL     1       5.746  -1.693   0.062  0.00  0.00    +0.000 A 
ATOM     41  O   UNL     1       6.917  -1.322   0.059  0.00  0.00    +0.000 OA
ATOM     42  N   UNL     1       5.344  -3.039   0.065  0.00  0.00    +0.000 N 
ATOM     43  C   UNL     1       3.983  -3.340   0.059  0.00  0.00    +0.000 A 
ATOM     44  N   UNL     1       2.972  -2.518   0.058  0.00  0.00    +0.000 NA
ATOM     45  C   UNL     1       3.355  -1.233   0.062  0.00  0.00    +0.000 A 
ENDBRANCH  34  42
ENDBRANCH  30  34
ENDBRANCH  29  32
ENDBRANCH   1  29
TORSDOF 6
