REMARK  Name = CHEMBL445875
REMARK  6 active torsions:
REMARK  status: ('A' for Active; 'I' for Inactive)
REMARK    1  A    between atoms: C_2  and  C_3
REMARK    2  A    between atoms: C_8  and  C_9
REMARK    3  A    between atoms: C_13  and  C_14
REMARK    4  A    between atoms: C_14  and  N_15
REMARK    5  A    between atoms: C_17  and  C_18
REMARK    6  A    between atoms: C_33  and  N_34
REMARK                            x       y       z     vdW  Elec       q    Type
REMARK                         _______ _______ _______ _____ _____    ______ ____
ROOT
ATOM      1  C   UNL     1       2.987   0.605  -1.022  0.00  0.00    +0.000 A 
ATOM      2  C   UNL     1       2.573   1.816  -1.608  0.00  0.00    +0.000 A 
ATOM      3  C   UNL     1       3.314   2.427  -2.653  0.00  0.00    +0.000 A 
ATOM      4  C   UNL     1       4.464   1.758  -3.089  0.00  0.00    +0.000 A 
ATOM      5  O   UNL     1       5.371   2.183  -4.030  0.00  0.00    +0.000 OA
ATOM      6  C   UNL     1       6.328   1.201  -4.135  0.00  0.00    +0.000 A 
ATOM      7  C   UNL     1       6.031   0.165  -3.278  0.00  0.00    +0.000 A 
ATOM      8  C   UNL     1       4.854   0.524  -2.583  0.00  0.00    +0.000 A 
ATOM      9  C   UNL     1       4.093  -0.071  -1.559  0.00  0.00    +0.000 A 
ENDROOT
BRANCH   1  11
ATOM     10  O   UNL     1       1.016  -0.144   0.024  0.00  0.00    +0.000 OA
ATOM     11  C   UNL     1       2.238  -0.061   0.110  0.00  0.00    +0.000 C 
ATOM     12  N   UNL     1       3.003  -0.666   1.140  0.00  0.00    +0.000 N 
ATOM     13  C   UNL     1       4.078   0.055   1.824  0.00  0.00    +0.000 C 
ATOM     14  C   UNL     1       5.282  -0.839   2.067  0.00  0.00    +0.000 C 
ATOM     15  C   UNL     1       4.878  -1.971   3.331  0.00  0.00    +0.000 C 
ATOM     16  C   UNL     1       3.719  -2.739   2.267  0.00  0.00    +0.000 C 
ATOM     17  C   UNL     1       2.528  -1.850   1.879  0.00  0.00    +0.000 C 
BRANCH  15  18
ATOM     18  N   UNL     1       5.130  -1.284   5.034  0.00  0.00    +0.000 N 
ATOM     19  C   UNL     1       6.506  -1.583   4.729  0.00  0.00    +0.000 C 
ATOM     20  O   UNL     1       7.195  -1.180   3.734  0.00  0.00    +0.000 OA
ATOM     21  O   UNL     1       7.081  -2.534   5.436  0.00  0.00    +0.000 OA
ATOM     22  C   UNL     1       7.652  -1.699   6.371  0.00  0.00    +0.000 C 
ATOM     23  C   UNL     1       6.550  -1.944   7.287  0.00  0.00    +0.000 A 
ATOM     24  C   UNL     1       6.704  -2.824   8.415  0.00  0.00    +0.000 A 
ATOM     25  C   UNL     1       5.971  -2.759   9.584  0.00  0.00    +0.000 A 
ATOM     26  C   UNL     1       5.268  -1.591   9.660  0.00  0.00    +0.000 A 
ATOM     27  C   UNL     1       4.994  -0.832   8.301  0.00  0.00    +0.000 A 
ATOM     28  C   UNL     1       5.340  -1.422   6.875  0.00  0.00    +0.000 A 
ENDBRANCH  15  18
ENDBRANCH   1  11
BRANCH   6  29
ATOM     29  C   UNL     1       7.457   1.418  -5.027  0.00  0.00    +0.000 A 
ATOM     30  C   UNL     1       8.312   2.499  -4.840  0.00  0.00    +0.000 A 
ATOM     31  C   UNL     1       9.414   2.624  -5.664  0.00  0.00    +0.000 A 
ATOM     32  C   UNL     1       9.612   1.680  -6.652  0.00  0.00    +0.000 A 
ATOM     33  C   UNL     1       8.771   0.568  -6.749  0.00  0.00    +0.000 A 
ATOM     34  N   UNL     1       7.685   0.431  -5.941  0.00  0.00    +0.000 NA
BRANCH  33  35
ATOM     35  C   UNL     1       9.074  -0.548  -7.748  0.00  0.00    +0.000 C 
BRANCH  35  36
ATOM     36  N   UNL     1      10.317  -0.348  -8.517  0.00  0.00    +0.000 N 
ATOM     37  C   UNL     1      10.258  -0.129  -9.885  0.00  0.00    +0.000 A 
ATOM     38  C   UNL     1      11.362   0.151 -10.600  0.00  0.00    +0.000 A 
ATOM     39  C   UNL     1      12.637   0.257  -9.914  0.00  0.00    +0.000 A 
ATOM     40  C   UNL     1      12.725   0.058  -8.594  0.00  0.00    +0.000 A 
ATOM     41  C   UNL     1      11.524  -0.316  -7.810  0.00  0.00    +0.000 A 
ATOM     42  O   UNL     1      11.641  -0.478  -6.599  0.00  0.00    +0.000 OA
BRANCH  38  43
ATOM     43  C   UNL     1      11.301   0.362 -12.083  0.00  0.00    +0.000 C 
ATOM     44  F   UNL     1      10.815  -0.737 -12.714  0.00  0.00    +0.000 F 
ATOM     45  F   UNL     1      10.484   1.396 -12.407  0.00  0.00    +0.000 F 
ATOM     46  F   UNL     1      12.512   0.629 -12.633  0.00  0.00    +0.000 F 
ENDBRANCH  38  43
ENDBRANCH  35  36
ENDBRANCH  33  35
ENDBRANCH   6  29
TORSDOF 6
