REMARK  Name = CHEMBL2035013
REMARK  13 active torsions:
REMARK  status: ('A' for Active; 'I' for Inactive)
REMARK    1  A    between atoms: C_1  and  O_2
REMARK    2  A    between atoms: O_2  and  C_3
REMARK    3  A    between atoms: C_8  and  C_9
REMARK    4  A    between atoms: C_9  and  C_10
REMARK    5  A    between atoms: C_9  and  N_16
REMARK    6  A    between atoms: N_12  and  C_13
REMARK    7  A    between atoms: C_13  and  C_14
REMARK    8  A    between atoms: C_13  and  C_15
REMARK    9  A    between atoms: C_19  and  C_20
REMARK   10  A    between atoms: CA_32  and  CB_33
REMARK   11  A    between atoms: CB_33  and  CG_34
REMARK   12  A    between atoms: CG_34  and  CD1_35
REMARK   13  A    between atoms: CG_34  and  CD2_36
REMARK                            x       y       z     vdW  Elec       q    Type
REMARK                         _______ _______ _______ _____ _____    ______ ____
ROOT
ATOM      1  N   LEU A   1       0.887   0.500   1.367  0.00  0.00    +0.000 N 
ATOM      2  C   UNK A   2       1.500  -0.690   1.578  0.00  0.00    +0.000 C 
ATOM      3  O   UNK A   2       2.634  -0.721   2.096  0.00  0.00    +0.000 OA
ATOM      4  C   UNK A   2       0.781  -1.955   1.045  0.00  0.00    +0.000 C 
ATOM      5  N   UNK A   2      -0.568  -1.930   1.558  0.00  0.00    +0.000 N 
ATOM      6  C   LEU A   1      -1.341  -0.851   1.349  0.00  0.00    +0.000 C 
ATOM      7  O   LEU A   1      -2.586  -0.965   1.350  0.00  0.00    +0.000 OA
ATOM      8  CA  LEU A   1      -0.634   0.463   1.129  0.00  0.00    +0.000 C 
ATOM      9  H   UNK A   2      -1.107  -2.767   1.730  0.00  0.00    +0.000 HD
ENDROOT
BRANCH   4  10
ATOM     10  C   UNK A   2       1.635  -3.037   1.644  0.00  0.00    +0.000 C 
ATOM     11  C   UNK A   2       2.984  -3.143   0.844  0.00  0.00    +0.000 C 
ATOM     12  C   UNK A   2       3.483  -4.488   1.301  0.00  0.00    +0.000 A 
ATOM     13  C   UNK A   2       3.403  -5.731   0.666  0.00  0.00    +0.000 A 
ATOM     14  C   UNK A   2       3.532  -6.902   1.451  0.00  0.00    +0.000 A 
ATOM     15  C   UNK A   2       3.979  -6.748   2.736  0.00  0.00    +0.000 A 
ATOM     16  C   UNK A   2       3.661  -5.522   3.279  0.00  0.00    +0.000 A 
ATOM     17  C   UNK A   2       2.901  -4.643   2.516  0.00  0.00    +0.000 A 
ATOM     18  C   UNK A   2       1.360  -4.497   1.877  0.00  0.00    +0.000 C 
ENDBRANCH   4  10
BRANCH   1  19
ATOM     19  C   UNK A   0       1.692   1.787   1.587  0.00  0.00    +0.000 C 
BRANCH  19  25
ATOM     20  C   UNK A   0       1.166   4.095   0.021  0.00  0.00    +0.000 A 
ATOM     21  C   UNK A   0       0.087   5.133  -0.187  0.00  0.00    +0.000 A 
ATOM     22  C   UNK A   0      -1.200   5.044   0.292  0.00  0.00    +0.000 A 
ATOM     23  C   UNK A   0      -1.428   3.803   0.674  0.00  0.00    +0.000 A 
ATOM     24  C   UNK A   0      -0.286   2.957   0.944  0.00  0.00    +0.000 A 
ATOM     25  C   UNK A   0       1.016   2.945   0.732  0.00  0.00    +0.000 A 
BRANCH  20  27
ATOM     26  C   UNK A   0       2.977   3.296  -1.005  0.00  0.00    +0.000 C 
ATOM     27  O   UNK A   0       2.374   4.448  -0.460  0.00  0.00    +0.000 OA
ENDBRANCH  20  27
ENDBRANCH  19  25
BRANCH  19  28
ATOM     28  C   UNK A   0       3.205   2.108   1.764  0.00  0.00    +0.000 C 
ATOM     29  O   UNK A   0       3.538   3.194   2.091  0.00  0.00    +0.000 OA
ATOM     30  N   UNK A   0       4.084   1.117   1.351  0.00  0.00    +0.000 N 
ATOM     31  H   UNK A   0       3.842   0.160   1.593  0.00  0.00    +0.000 HD
BRANCH  30  32
ATOM     32  C   UNK A   0       5.263   1.403   0.567  0.00  0.00    +0.000 C 
ATOM     33  C   UNK A   0       5.937   2.705   0.971  0.00  0.00    +0.000 C 
ATOM     34  C   UNK A   0       6.204   0.227   0.693  0.00  0.00    +0.000 C 
ENDBRANCH  30  32
ENDBRANCH  19  28
ENDBRANCH   1  19
BRANCH   8  35
ATOM     35  CB  LEU A   1      -1.785   1.536   1.971  0.00  0.00    +0.000 C 
BRANCH  35  36
ATOM     36  CG  LEU A   1      -1.337   2.977   3.182  0.00  0.00    +0.000 C 
ATOM     37  CD1 LEU A   1       0.043   4.193   3.126  0.00  0.00    +0.000 C 
ATOM     38  CD2 LEU A   1      -2.570   3.860   3.443  0.00  0.00    +0.000 C 
ENDBRANCH  35  36
ENDBRANCH   8  35
TORSDOF 8
