REMARK  Name = CHEMBL2113206
REMARK  7 active torsions:
REMARK  status: ('A' for Active; 'I' for Inactive)
REMARK    1  A    between atoms: C_1  and  C_2
REMARK    2  A    between atoms: C_5  and  N_6
REMARK    3  A    between atoms: N_6  and  C_7
REMARK    4  A    between atoms: N_6  and  S_22
REMARK    5  A    between atoms: C_7  and  C_8
REMARK    6  A    between atoms: N_10  and  N_11
REMARK    7  A    between atoms: S_22  and  C_25
REMARK                            x       y       z     vdW  Elec       q    Type
REMARK                         _______ _______ _______ _____ _____    ______ ____
ROOT
ATOM      1  N   UNL     1      -3.056  -0.075   0.081  0.00  0.00    +0.000 N 
ENDROOT
BRANCH   1   6
ATOM      2  C   UNL     1       2.660   0.128  -0.045  0.00  0.00    +0.000 C 
ATOM      3  C   UNL     1       1.176   0.188  -0.055  0.00  0.00    +0.000 A 
ATOM      4  C   UNL     1       0.520  -1.008   0.049  0.00  0.00    +0.000 A 
ATOM      5  C   UNL     1      -0.822  -0.957   0.297  0.00  0.00    +0.000 A 
ATOM      6  C   UNL     1      -1.626   0.160   0.090  0.00  0.00    +0.000 A 
ATOM      7  C   UNL     1      -0.972   1.372  -0.029  0.00  0.00    +0.000 A 
ATOM      8  C   UNL     1       0.436   1.385  -0.045  0.00  0.00    +0.000 A 
ENDBRANCH   1   6
BRANCH   1   9
ATOM      9  S   UNL     1      -4.159   1.381  -0.041  0.00  0.00    +0.000 S 
ATOM     10  O   UNL     1      -3.929   2.126   1.187  0.00  0.00    +0.000 OA
ATOM     11  O   UNL     1      -3.869   2.030  -1.310  0.00  0.00    +0.000 OA
BRANCH   9  12
ATOM     12  C   UNL     1      -6.059   1.179  -0.065  0.00  0.00    +0.000 A 
ATOM     13  C   UNL     1      -6.850   2.321  -0.113  0.00  0.00    +0.000 A 
ATOM     14  C   UNL     1      -8.260   2.167  -0.109  0.00  0.00    +0.000 A 
ATOM     15  C   UNL     1      -8.894   0.902  -0.068  0.00  0.00    +0.000 A 
ATOM     16  C   UNL     1      -8.148  -0.262  -0.062  0.00  0.00    +0.000 A 
ATOM     17  C   UNL     1      -8.658  -1.615  -0.080  0.00  0.00    +0.000 A 
ATOM     18  C   UNL     1      -7.821  -2.727  -0.109  0.00  0.00    +0.000 A 
ATOM     19  C   UNL     1      -6.496  -2.475  -0.163  0.00  0.00    +0.000 A 
ATOM     20  C   UNL     1      -6.090  -1.168  -0.134  0.00  0.00    +0.000 A 
ATOM     21  C   UNL     1      -6.782  -0.039  -0.060  0.00  0.00    +0.000 A 
ENDBRANCH   9  12
ENDBRANCH   1   9
BRANCH   1  22
ATOM     22  C   UNL     1      -3.434  -1.553  -0.075  0.00  0.00    +0.000 C 
BRANCH  22  23
ATOM     23  C   UNL     1      -2.851  -2.931  -0.321  0.00  0.00    +0.000 C 
ATOM     24  O   UNL     1      -1.810  -3.076  -0.972  0.00  0.00    +0.000 OA
ATOM     25  N   UNL     1      -3.524  -4.082   0.136  0.00  0.00    +0.000 N 
ATOM     26  H   UNL     1      -4.513  -4.275   0.074  0.00  0.00    +0.000 HD
BRANCH  25  27
ATOM     27  N   UNL     1      -2.735  -5.154   0.106  0.00  0.00    +0.000 NA
ATOM     28  C   UNL     1      -3.043  -6.393   0.015  0.00  0.00    +0.000 C 
ATOM     29  C   UNL     1      -4.312  -7.251  -0.064  0.00  0.00    +0.000 C 
ATOM     30  O   UNL     1      -5.448  -6.861  -0.077  0.00  0.00    +0.000 OA
ATOM     31  N   UNL     1      -3.839  -8.565  -0.093  0.00  0.00    +0.000 N 
ATOM     32  C   UNL     1      -2.447  -8.593  -0.042  0.00  0.00    +0.000 A 
ATOM     33  C   UNL     1      -1.598  -9.670   0.005  0.00  0.00    +0.000 A 
ATOM     34  C   UNL     1      -0.219  -9.406   0.080  0.00  0.00    +0.000 A 
ATOM     35  C   UNL     1       0.286  -8.088   0.094  0.00  0.00    +0.000 A 
ATOM     36  C   UNL     1      -0.583  -7.011   0.047  0.00  0.00    +0.000 A 
ATOM     37  C   UNL     1      -1.929  -7.315  -0.008  0.00  0.00    +0.000 A 
ATOM     38  H   UNL     1      -4.432  -9.382  -0.118  0.00  0.00    +0.000 HD
ENDBRANCH  25  27
ENDBRANCH  22  23
ENDBRANCH   1  22
TORSDOF 6
