REMARK  Name = CHEMBL31163
REMARK  6 active torsions:
REMARK  status: ('A' for Active; 'I' for Inactive)
REMARK    1  A    between atoms: C_2  and  C_3
REMARK    2  A    between atoms: C_3  and  C_4
REMARK    3  A    between atoms: N_10  and  C_11
REMARK    4  A    between atoms: C_11  and  C_12
REMARK    5  A    between atoms: C_16  and  C_17
REMARK    6  A    between atoms: C_22  and  N_23
REMARK                            x       y       z     vdW  Elec       q    Type
REMARK                         _______ _______ _______ _____ _____    ______ ____
ROOT
ATOM      1  C   UNL     1       4.917  -2.487   1.044  0.00  0.00    +0.000 A 
ATOM      2  C   UNL     1       4.426  -3.735   0.727  0.00  0.00    +0.000 A 
ATOM      3  C   UNL     1       5.084  -4.666   1.556  0.00  0.00    +0.000 A 
ATOM      4  C   UNL     1       5.008  -6.061   1.728  0.00  0.00    +0.000 A 
ATOM      5  C   UNL     1       5.853  -6.688   2.658  0.00  0.00    +0.000 A 
ATOM      6  C   UNL     1       6.782  -5.911   3.371  0.00  0.00    +0.000 A 
ATOM      7  C   UNL     1       6.847  -4.511   3.243  0.00  0.00    +0.000 A 
ATOM      8  C   UNL     1       5.981  -3.928   2.320  0.00  0.00    +0.000 A 
ATOM      9  O   UNL     1       5.876  -2.594   2.016  0.00  0.00    +0.000 OA
ENDROOT
BRANCH   5  10
ATOM     10  C   UNL     1       5.790  -8.188   2.768  0.00  0.00    +0.000 C 
ATOM     11  O   UNL     1       5.093  -8.838   1.994  0.00  0.00    +0.000 OA
ATOM     12  N   UNL     1       6.615  -8.799   3.696  0.00  0.00    +0.000 N 
ATOM     13  C   UNL     1       7.506  -9.876   3.276  0.00  0.00    +0.000 C 
ATOM     14  C   UNL     1       7.245 -11.155   4.050  0.00  0.00    +0.000 C 
ATOM     15  C   UNL     1       7.275 -10.901   5.573  0.00  0.00    +0.000 C 
ATOM     16  C   UNL     1       6.281  -9.790   5.935  0.00  0.00    +0.000 C 
ATOM     17  C   UNL     1       6.495  -8.523   5.124  0.00  0.00    +0.000 C 
BRANCH  15  18
ATOM     18  N   UNL     1       8.669 -10.736   6.108  0.00  0.00    +0.000 N 
ATOM     19  C   UNL     1       9.548  -9.726   5.713  0.00  0.00    +0.000 C 
ATOM     20  O   UNL     1       9.324  -8.527   5.599  0.00  0.00    +0.000 OA
ATOM     21  O   UNL     1      10.770 -10.190   5.354  0.00  0.00    +0.000 OA
ATOM     22  C   UNL     1      11.459 -10.671   6.487  0.00  0.00    +0.000 C 
ATOM     23  C   UNL     1      10.608 -11.631   7.256  0.00  0.00    +0.000 A 
ATOM     24  C   UNL     1      11.213 -12.454   8.209  0.00  0.00    +0.000 A 
ATOM     25  C   UNL     1      10.438 -13.331   8.952  0.00  0.00    +0.000 A 
ATOM     26  C   UNL     1       9.061 -13.379   8.752  0.00  0.00    +0.000 A 
ATOM     27  C   UNL     1       8.450 -12.557   7.800  0.00  0.00    +0.000 A 
ATOM     28  C   UNL     1       9.218 -11.675   7.037  0.00  0.00    +0.000 A 
ENDBRANCH  15  18
ENDBRANCH   5  10
BRANCH   1  29
ATOM     29  C   UNL     1       4.558  -1.148   0.511  0.00  0.00    +0.000 C 
BRANCH  29  32
ATOM     30  O   UNL     1       1.117  -0.201   0.092  0.00  0.00    +0.000 OA
ATOM     31  C   UNL     1       2.334  -0.061  -0.019  0.00  0.00    +0.000 C 
ATOM     32  N   UNL     1       3.111  -1.068   0.459  0.00  0.00    +0.000 N 
ATOM     33  H   UNL     1       2.561  -1.817   0.864  0.00  0.00    +0.000 HD
BRANCH  31  34
ATOM     34  C   UNL     1       3.021   1.142  -0.655  0.00  0.00    +0.000 C 
BRANCH  34  35
ATOM     35  C   UNL     1       2.089   2.208  -1.176  0.00  0.00    +0.000 A 
ATOM     36  C   UNL     1       0.880   1.909  -1.813  0.00  0.00    +0.000 A 
ATOM     37  C   UNL     1       0.039   2.930  -2.234  0.00  0.00    +0.000 A 
ATOM     38  C   UNL     1       0.459   4.233  -2.053  0.00  0.00    +0.000 A 
ATOM     39  N   UNL     1       1.643   4.571  -1.498  0.00  0.00    +0.000 NA
ATOM     40  C   UNL     1       2.428   3.554  -1.074  0.00  0.00    +0.000 A 
ENDBRANCH  34  35
ENDBRANCH  31  34
ENDBRANCH  29  32
ENDBRANCH   1  29
TORSDOF 6
