REMARK  Name = CHEMBL1790719
REMARK  25 active torsions:
REMARK  status: ('A' for Active; 'I' for Inactive)
REMARK    1  A    between atoms: C_1  and  C_2
REMARK    2  A    between atoms: C_2  and  C_3
REMARK    3  A    between atoms: C_3  and  C_4
REMARK    4  A    between atoms: C_3  and  C_5
REMARK    5  A    between atoms: C_9  and  C_10
REMARK    6  A    between atoms: C_13  and  O_14
REMARK    7  A    between atoms: C_20  and  O_21
REMARK    8  A    between atoms: C_26  and  C_27
REMARK    9  A    between atoms: C_33  and  C_34
REMARK   10  A    between atoms: N_36  and  C_37
REMARK   11  A    between atoms: C_37  and  C_38
REMARK   12  A    between atoms: C_37  and  C_69
REMARK   13  A    between atoms: C_38  and  C_39
REMARK   14  A    between atoms: C_39  and  C_40
REMARK   15  A    between atoms: C_40  and  N_41
REMARK   16  A    between atoms: C_42  and  C_44
REMARK   17  A    between atoms: C_57  and  O_58
REMARK   18  A    between atoms: C_64  and  O_65
REMARK   19  A    between atoms: N_71  and  C_72
REMARK   20  A    between atoms: C_72  and  N_73
REMARK   21  A    between atoms: C_77  and  C_78
REMARK   22  A    between atoms: C_78  and  C_79
REMARK   23  A    between atoms: C_85  and  C_86
REMARK   24  A    between atoms: C_86  and  C_87
REMARK   25  A    between atoms: C_86  and  O_88
REMARK                            x       y       z     vdW  Elec       q    Type
REMARK                         _______ _______ _______ _____ _____    ______ ____
ROOT
ATOM      1  C   UNL     1       5.440  -3.341  -3.306  0.00  0.00    +0.000 C 
ATOM      2  N   UNL     1       5.613  -4.785  -4.960  0.00  0.00    +0.000 N 
ATOM      3  C   UNL     1       5.766  -6.037  -6.698  0.00  0.00    +0.000 C 
ATOM      4  O   UNL     1       5.881  -7.554  -7.088  0.00  0.00    +0.000 OA
ATOM      5  C   UNL     1       5.069  -6.472  -8.698  0.00  0.00    +0.000 C 
ATOM      6  N   UNL     1       3.475  -6.969  -9.278  0.00  0.00    +0.000 N 
ATOM      7  C   UNL     1       2.583  -7.328  -8.306  0.00  0.00    +0.000 C 
ATOM      8  O   UNL     1       1.386  -7.503  -8.482  0.00  0.00    +0.000 OA
ATOM      9  C   UNL     1       3.029  -7.392  -6.881  0.00  0.00    +0.000 C 
ATOM     10  C   UNL     1       2.655  -6.312  -5.964  0.00  0.00    +0.000 C 
ATOM     11  S   UNL     1       1.091  -6.926  -5.908  0.00  0.00    +0.000 S 
ATOM     12  S   UNL     1       0.911  -5.903  -4.258  0.00  0.00    +0.000 S 
ATOM     13  C   UNL     1      -1.739  -5.555  -3.764  0.00  0.00    +0.000 C 
ATOM     14  C   UNL     1      -2.257  -4.411  -3.069  0.00  0.00    +0.000 C 
ATOM     15  N   UNL     1      -1.482  -4.363  -1.861  0.00  0.00    +0.000 N 
ATOM     16  C   UNL     1      -0.182  -3.679  -1.836  0.00  0.00    +0.000 C 
ATOM     17  O   UNL     1       0.371  -3.403  -0.731  0.00  0.00    +0.000 OA
ATOM     18  C   UNL     1       0.698  -3.731  -3.131  0.00  0.00    +0.000 C 
ATOM     19  N   UNL     1       1.416  -2.565  -2.998  0.00  0.00    +0.000 N 
ATOM     20  C   UNL     1       2.300  -2.353  -1.981  0.00  0.00    +0.000 C 
ATOM     21  O   UNL     1       2.756  -1.219  -1.879  0.00  0.00    +0.000 OA
ATOM     22  C   UNL     1       2.725  -3.524  -0.995  0.00  0.00    +0.000 C 
ATOM     23  N   UNL     1       4.211  -3.825  -0.925  0.00  0.00    +0.000 N 
ATOM     24  C   UNL     1       5.388  -3.407  -1.490  0.00  0.00    +0.000 C 
ATOM     25  O   UNL     1       6.368  -3.188  -0.749  0.00  0.00    +0.000 OA
ATOM     26  H   UNL     1       6.253  -5.766  -5.781  0.00  0.00    +0.000 HD
ATOM     27  H   UNL     1       3.000  -6.894 -10.258  0.00  0.00    +0.000 HD
ATOM     28  H   UNL     1      -1.971  -4.791  -1.071  0.00  0.00    +0.000 HD
ATOM     29  H   UNL     1       1.120  -1.879  -3.658  0.00  0.00    +0.000 HD
ATOM     30  H   UNL     1       4.376  -4.743  -1.265  0.00  0.00    +0.000 HD
ENDROOT
BRANCH  14  31
ATOM     31  C   UNL     1      -2.343  -2.946  -3.963  0.00  0.00    +0.000 C 
ATOM     32  O   UNL     1      -1.636  -2.461  -4.872  0.00  0.00    +0.000 OA
ATOM     33  N   UNL     1      -3.212  -2.100  -3.488  0.00  0.00    +0.000 N 
ATOM     34  C   UNL     1      -3.666  -1.892  -2.163  0.00  0.00    +0.000 C 
ATOM     35  C   UNL     1      -5.104  -1.604  -2.466  0.00  0.00    +0.000 C 
ATOM     36  C   UNL     1      -5.032  -0.749  -3.741  0.00  0.00    +0.000 C 
ATOM     37  C   UNL     1      -3.822  -1.277  -4.473  0.00  0.00    +0.000 C 
BRANCH  37  38
ATOM     38  C   UNL     1      -4.270  -2.015  -5.734  0.00  0.00    +0.000 C 
ATOM     39  O   UNL     1      -4.525  -1.269  -6.684  0.00  0.00    +0.000 OA
ATOM     40  N   UNL     1      -4.479  -3.397  -5.728  0.00  0.00    +0.000 N 
ATOM     41  H   UNL     1      -4.394  -3.946  -4.878  0.00  0.00    +0.000 HD
BRANCH  40  42
ATOM     42  C   UNL     1      -4.828  -4.179  -6.953  0.00  0.00    +0.000 C 
BRANCH  42  43
ATOM     43  C   UNL     1      -5.057  -5.699  -6.626  0.00  0.00    +0.000 C 
ATOM     44  O   UNL     1      -4.917  -6.078  -5.457  0.00  0.00    +0.000 OA
ATOM     45  N   UNL     1      -5.446  -6.569  -7.657  0.00  0.00    +0.000 N 
ATOM     46  H   UNL     1      -5.548  -6.254  -8.615  0.00  0.00    +0.000 HD
BRANCH  45  47
ATOM     47  C   UNL     1      -5.649  -7.982  -7.397  0.00  0.00    +0.000 C 
BRANCH  47  48
ATOM     48  N   UNL     1      -6.013  -8.675  -8.619  0.00  0.00    +0.000 NA
ATOM     49  H   UNL     1      -6.894  -8.323  -8.982  0.00  0.00    +0.000 HD
ATOM     50  H   UNL     1      -6.172  -9.671  -8.409  0.00  0.00    +0.000 HD
ENDBRANCH  47  48
ENDBRANCH  45  47
ENDBRANCH  42  43
BRANCH  42  51
ATOM     51  C   UNL     1      -3.724  -4.047  -7.991  0.00  0.00    +0.000 C 
BRANCH  51  52
ATOM     52  C   UNL     1      -3.467  -2.609  -8.378  0.00  0.00    +0.000 C 
BRANCH  52  53
ATOM     53  C   UNL     1      -2.372  -2.400  -9.370  0.00  0.00    +0.000 C 
BRANCH  53  54
ATOM     54  N   UNL     1      -2.145  -0.947  -9.686  0.00  0.00    +0.000 N 
ATOM     55  C   UNL     1      -1.173  -0.513 -10.631  0.00  0.00    +0.000 C 
ATOM     56  O   UNL     1      -0.505  -1.428 -11.159  0.00  0.00    +0.000 OA
ATOM     57  H   UNL     1      -2.729  -0.300  -9.184  0.00  0.00    +0.000 HD
BRANCH  55  58
ATOM     58  C   UNL     1      -0.665   1.126 -11.001  0.00  0.00    +0.000 A 
ATOM     59  C   UNL     1       0.123   1.207 -12.004  0.00  0.00    +0.000 A 
ATOM     60  C   UNL     1       0.330   2.601 -12.706  0.00  0.00    +0.000 A 
ATOM     61  C   UNL     1       1.407   2.895 -13.166  0.00  0.00    +0.000 A 
ATOM     62  C   UNL     1       0.992   3.704 -12.272  0.00  0.00    +0.000 A 
ATOM     63  C   UNL     1      -0.330   2.632 -11.037  0.00  0.00    +0.000 A 
ATOM     64  C   UNL     1       2.423   4.428 -13.703  0.00  0.00    +0.000 C 
ATOM     65  O   UNL     1       2.229   3.471 -14.927  0.00  0.00    +0.000 OA
ATOM     66  C   UNL     1       2.136   2.327 -14.161  0.00  0.00    +0.000 C 
ATOM     67  O   UNL     1       2.105   1.112 -13.999  0.00  0.00    +0.000 OA
ATOM     68  C   UNL     1       2.398   6.205 -14.369  0.00  0.00    +0.000 A 
ATOM     69  C   UNL     1       1.739   6.884 -15.463  0.00  0.00    +0.000 A 
ATOM     70  C   UNL     1       1.764   8.327 -15.633  0.00  0.00    +0.000 A 
ATOM     71  C   UNL     1       2.548   9.104 -14.792  0.00  0.00    +0.000 A 
ATOM     72  C   UNL     1       3.359   8.476 -13.862  0.00  0.00    +0.000 A 
ATOM     73  C   UNL     1       3.315   7.078 -13.694  0.00  0.00    +0.000 A 
ATOM     74  O   UNL     1       4.128   6.573 -12.705  0.00  0.00    +0.000 OA
ATOM     75  C   UNL     1       4.887   5.531 -13.130  0.00  0.00    +0.000 A 
ATOM     76  C   UNL     1       5.896   5.021 -12.220  0.00  0.00    +0.000 A 
ATOM     77  C   UNL     1       6.865   4.069 -12.528  0.00  0.00    +0.000 A 
ATOM     78  C   UNL     1       6.998   3.772 -13.859  0.00  0.00    +0.000 A 
ATOM     79  C   UNL     1       5.877   4.212 -14.740  0.00  0.00    +0.000 A 
ATOM     80  C   UNL     1       4.388   4.758 -14.144  0.00  0.00    +0.000 A 
BRANCH  77  81
ATOM     81  O   UNL     1       7.655   3.462 -11.589  0.00  0.00    +0.000 OA
ATOM     82  H   UNL     1       7.474   3.717 -10.663  0.00  0.00    +0.000 HD
ENDBRANCH  77  81
BRANCH  71  83
ATOM     83  O   UNL     1       2.599  10.468 -14.805  0.00  0.00    +0.000 OA
ATOM     84  H   UNL     1       2.015  10.881 -15.462  0.00  0.00    +0.000 HD
ENDBRANCH  71  83
ENDBRANCH  55  58
ENDBRANCH  53  54
ENDBRANCH  52  53
ENDBRANCH  51  52
ENDBRANCH  42  51
ENDBRANCH  40  42
ENDBRANCH  37  38
ENDBRANCH  14  31
BRANCH   5  85
ATOM     85  C   UNL     1       5.093  -5.072  -8.739  0.00  0.00    +0.000 A 
ATOM     86  C   UNL     1       6.398  -4.718  -8.440  0.00  0.00    +0.000 A 
ATOM     87  C   UNL     1       6.510  -3.692  -7.545  0.00  0.00    +0.000 A 
ATOM     88  C   UNL     1       5.360  -3.079  -7.049  0.00  0.00    +0.000 A 
ATOM     89  C   UNL     1       4.098  -3.566  -7.313  0.00  0.00    +0.000 A 
ATOM     90  C   UNL     1       3.939  -4.553  -8.212  0.00  0.00    +0.000 A 
BRANCH  88  91
ATOM     91  O   UNL     1       5.376  -1.967  -6.280  0.00  0.00    +0.000 OA
ATOM     92  H   UNL     1       6.270  -1.627  -6.144  0.00  0.00    +0.000 HD
ENDBRANCH  88  91
ENDBRANCH   5  85
BRANCH   1  93
ATOM     93  C   UNL     1       5.461  -1.599  -1.645  0.00  0.00    +0.000 C 
ATOM     94  C   UNL     1       6.075  -1.033   0.307  0.00  0.00    +0.000 C 
BRANCH  93  96
ATOM     95  C   UNL     1       6.342   0.748  -1.637  0.00  0.00    +0.000 C 
ATOM     96  C   UNL     1       5.125   0.353  -1.009  0.00  0.00    +0.000 C 
ENDBRANCH  93  96
ENDBRANCH   1  93
BRANCH  22  97
ATOM     97  C   UNL     1       2.011  -4.959  -1.249  0.00  0.00    +0.000 C 
ATOM     98  C   UNL     1       2.362  -5.940  -0.253  0.00  0.00    +0.000 C 
BRANCH  97  99
ATOM     99  O   UNL     1       0.484  -5.436  -0.966  0.00  0.00    +0.000 OA
ATOM    100  H   UNL     1      -0.078  -4.727  -0.396  0.00  0.00    +0.000 HD
ENDBRANCH  97  99
ENDBRANCH  22  97
BRANCH   9 101
ATOM    101  O   UNL     1       4.181  -6.918  -6.622  0.00  0.00    +0.000 OA
ATOM    102  H   UNL     1       4.226  -6.153  -7.200  0.00  0.00    +0.000 HD
ENDBRANCH   9 101
BRANCH  18 103
ATOM    103  C   UNL     1      -0.047  -3.891  -4.422  0.00  0.00    +0.000 C 
BRANCH 103 104
ATOM    104  C   UNL     1      -0.751  -5.440  -5.095  0.00  0.00    +0.000 C 
ATOM    105  N   UNL     1      -0.576  -6.681  -3.497  0.00  0.00    +0.000 N 
ATOM    106  O   UNL     1      -1.381  -5.709  -6.087  0.00  0.00    +0.000 OA
ATOM    107  H   UNL     1       0.142  -6.314  -2.744  0.00  0.00    +0.000 HD
ATOM    108  H   UNL     1      -0.788  -7.603  -3.590  0.00  0.00    +0.000 HD
ENDBRANCH 103 104
ENDBRANCH  18 103
TORSDOF 22
