REMARK  Name = CHEMBL511908
REMARK  6 active torsions:
REMARK  status: ('A' for Active; 'I' for Inactive)
REMARK    1  A    between atoms: C_1  and  O_2
REMARK    2  A    between atoms: O_2  and  C_3
REMARK    3  A    between atoms: C_6  and  N_7
REMARK    4  A    between atoms: C_8  and  C_9
REMARK    5  A    between atoms: C_12  and  C_13
REMARK    6  A    between atoms: C_16  and  C_17
REMARK                            x       y       z     vdW  Elec       q    Type
REMARK                         _______ _______ _______ _____ _____    ______ ____
ROOT
ATOM      1  N   UNL     1       5.624  -4.055   2.201  0.00  0.00    +0.000 N 
ATOM      2  C   UNL     1       6.068  -4.320   3.497  0.00  0.00    +0.000 A 
ATOM      3  C   UNL     1       5.742  -3.610   4.760  0.00  0.00    +0.000 C 
ATOM      4  N   UNL     1       6.762  -5.440   3.494  0.00  0.00    +0.000 NA
ATOM      5  N   UNL     1       6.797  -5.929   2.223  0.00  0.00    +0.000 NA
ATOM      6  C   UNL     1       6.151  -5.095   1.439  0.00  0.00    +0.000 A 
ENDROOT
BRANCH   1  10
ATOM      7  C   UNL     1       3.162  -0.979   0.611  0.00  0.00    +0.000 A 
ATOM      8  C   UNL     1       4.346  -0.669   1.292  0.00  0.00    +0.000 A 
ATOM      9  C   UNL     1       5.165  -1.674   1.838  0.00  0.00    +0.000 A 
ATOM     10  C   UNL     1       4.788  -3.012   1.712  0.00  0.00    +0.000 A 
ATOM     11  C   UNL     1       3.632  -3.330   0.976  0.00  0.00    +0.000 A 
ATOM     12  C   UNL     1       2.814  -2.317   0.445  0.00  0.00    +0.000 A 
BRANCH   7  14
ATOM     13  C   UNL     1       1.082   0.005  -0.022  0.00  0.00    +0.000 C 
ATOM     14  O   UNL     1       2.503   0.085   0.058  0.00  0.00    +0.000 OA
ENDBRANCH   7  14
ENDBRANCH   1  10
BRANCH   6  15
ATOM     15  C   UNL     1       6.101  -5.209  -0.017  0.00  0.00    +0.000 A 
ATOM     16  C   UNL     1       5.569  -6.358  -0.605  0.00  0.00    +0.000 A 
ATOM     17  C   UNL     1       5.563  -6.495  -1.996  0.00  0.00    +0.000 A 
ATOM     18  C   UNL     1       6.048  -5.473  -2.828  0.00  0.00    +0.000 A 
ATOM     19  C   UNL     1       6.607  -4.337  -2.228  0.00  0.00    +0.000 A 
ATOM     20  C   UNL     1       6.639  -4.209  -0.835  0.00  0.00    +0.000 A 
BRANCH  18  21
ATOM     21  C   UNL     1       5.948  -5.601  -4.287  0.00  0.00    +0.000 A 
ATOM     22  C   UNL     1       4.699  -5.814  -4.896  0.00  0.00    +0.000 A 
ATOM     23  C   UNL     1       4.597  -6.034  -6.270  0.00  0.00    +0.000 A 
ATOM     24  C   UNL     1       5.738  -5.989  -7.066  0.00  0.00    +0.000 A 
ATOM     25  C   UNL     1       6.981  -5.739  -6.486  0.00  0.00    +0.000 A 
ATOM     26  C   UNL     1       7.086  -5.552  -5.105  0.00  0.00    +0.000 A 
ENDBRANCH  18  21
ENDBRANCH   6  15
TORSDOF 4
