REMARK  Name = CHEMBL1765666
REMARK  26 active torsions:
REMARK  status: ('A' for Active; 'I' for Inactive)
REMARK    1  A    between atoms: CD1_1  and  CG_2
REMARK    2  A    between atoms: CG_2  and  CD2_3
REMARK    3  A    between atoms: CG_2  and  CB_4
REMARK    4  A    between atoms: CB_4  and  CA_5
REMARK    5  A    between atoms: CA_9  and  CB_10
REMARK    6  A    between atoms: CB_10  and  CG_11
REMARK    7  A    between atoms: CA_20  and  CB_21
REMARK    8  A    between atoms: CB_21  and  CG_22
REMARK    9  A    between atoms: CZ_25  and  OH_26
REMARK   10  A    between atoms: C_37  and  C_38
REMARK   11  A    between atoms: CA_44  and  C_45
REMARK   12  A    between atoms: N_47  and  C_48
REMARK   13  A    between atoms: C_48  and  C_49
REMARK   14  A    between atoms: C_48  and  C_59
REMARK   15  A    between atoms: C_49  and  C_50
REMARK   16  A    between atoms: C_50  and  C_51
REMARK   17  A    between atoms: C_51  and  C_52
REMARK   18  A    between atoms: C_52  and  N_53
REMARK   19  A    between atoms: C_54  and  C_56
REMARK   20  A    between atoms: C_56  and  C_57
REMARK   21  A    between atoms: C_57  and  N_58
REMARK   22  A    between atoms: N_61  and  CA_62
REMARK   23  A    between atoms: CA_62  and  C_63
REMARK   24  A    between atoms: C_63  and  OXT_65
REMARK   25  A    between atoms: CA_69  and  CB_70
REMARK   26  A    between atoms: CB_70  and  CG_71
REMARK                            x       y       z     vdW  Elec       q    Type
REMARK                         _______ _______ _______ _____ _____    ______ ____
ROOT
ATOM      1  CA  TYR A   1       5.006   0.013   1.361  0.00  0.00    +0.000 C 
ATOM      2  N   TYR A   1       5.842   1.100   2.000  0.00  0.00    +0.000 N 
ATOM      3  C   TYR A   1       5.603   2.428   2.292  0.00  0.00    +0.000 C 
ATOM      4  O   TYR A   1       6.192   2.992   3.226  0.00  0.00    +0.000 OA
ATOM      5  CA  TYR A   1       4.811   3.224   1.294  0.00  0.00    +0.000 C 
ATOM      6  N   TYR A   1       3.398   3.183   1.365  0.00  0.00    +0.000 N 
ATOM      7  C   TYR A   1       2.640   3.994   2.192  0.00  0.00    +0.000 C 
ATOM      8  O   TYR A   1       1.474   4.126   1.786  0.00  0.00    +0.000 OA
ATOM      9  CA  TYR A   1       3.277   4.511   3.824  0.00  0.00    +0.000 C 
ATOM     10  N   TYR A   1       2.562   5.758   3.965  0.00  0.00    +0.000 N 
ATOM     11  C   UNK A   0       1.238   5.953   4.207  0.00  0.00    +0.000 C 
ATOM     12  O   UNK A   0       0.893   7.142   4.265  0.00  0.00    +0.000 OA
ATOM     13  C   UNK A   0       0.132   4.868   4.430  0.00  0.00    +0.000 C 
ATOM     14  C   UNK A   0       0.348   3.375   4.414  0.00  0.00    +0.000 C 
ATOM     15  S   UNK A   3      -1.032   2.094   4.412  0.00  0.00    +0.000 S 
ATOM     16  S   UNK A   3      -0.245   0.401   5.317  0.00  0.00    +0.000 S 
ATOM     17  C   UNK A   3      -0.302  -1.195   4.404  0.00  0.00    +0.000 C 
ATOM     18  C   UNK A   3       0.574  -2.481   4.436  0.00  0.00    +0.000 C 
ATOM     19  N   UNK A   3       1.194  -2.719   3.115  0.00  0.00    +0.000 N 
ATOM     20  C   ASN A   2       2.061  -1.943   2.438  0.00  0.00    +0.000 C 
ATOM     21  O   ASN A   2       2.349  -2.123   1.259  0.00  0.00    +0.000 OA
ATOM     22  CA  ASN A   2       2.754  -0.912   3.212  0.00  0.00    +0.000 C 
ATOM     23  N   ASN A   2       4.135  -1.415   3.059  0.00  0.00    +0.000 N 
ATOM     24  C   TYR A   1       5.223  -1.068   2.338  0.00  0.00    +0.000 C 
ATOM     25  O   TYR A   1       6.344  -1.342   2.783  0.00  0.00    +0.000 OA
ATOM     26  H   TYR A   1       6.607   0.775   2.602  0.00  0.00    +0.000 HD
ATOM     27  H   TYR A   1       2.887   2.618   0.694  0.00  0.00    +0.000 HD
ATOM     28  H   TYR A   1       3.111   6.598   3.810  0.00  0.00    +0.000 HD
ATOM     29  H   UNK A   3       0.888  -3.515   2.567  0.00  0.00    +0.000 HD
ATOM     30  H   ASN A   2       4.514  -1.688   3.935  0.00  0.00    +0.000 HD
ENDROOT
BRANCH  18  31
ATOM     31  C   UNK A   3      -0.296  -3.756   4.792  0.00  0.00    +0.000 C 
ATOM     32  O   UNK A   3      -0.281  -4.721   4.020  0.00  0.00    +0.000 OA
ATOM     33  N   PRO A   4      -0.896  -3.827   6.051  0.00  0.00    +0.000 N 
ATOM     34  CD  PRO A   4      -1.692  -2.824   6.754  0.00  0.00    +0.000 C 
ATOM     35  CG  PRO A   4      -1.424  -3.165   8.188  0.00  0.00    +0.000 C 
ATOM     36  CB  PRO A   4      -1.572  -4.670   8.177  0.00  0.00    +0.000 C 
ATOM     37  CA  PRO A   4      -1.117  -5.114   6.767  0.00  0.00    +0.000 C 
BRANCH  37  38
ATOM     38  C   PRO A   4      -2.308  -5.925   6.221  0.00  0.00    +0.000 C 
ATOM     39  O   PRO A   4      -3.124  -5.384   5.473  0.00  0.00    +0.000 OA
ATOM     40  N   UNK A   5      -2.461  -7.233   6.677  0.00  0.00    +0.000 N 
ATOM     41  H   UNK A   5      -1.970  -7.556   7.506  0.00  0.00    +0.000 HD
BRANCH  40  42
ATOM     42  C   UNK A   5      -3.452  -8.185   6.095  0.00  0.00    +0.000 C 
BRANCH  42  43
ATOM     43  C   UNK A   5      -3.597  -9.477   6.983  0.00  0.00    +0.000 C 
ATOM     44  O   UNK A   5      -2.934  -9.621   8.013  0.00  0.00    +0.000 OA
ATOM     45  N   GLY A   6      -4.496 -10.447   6.571  0.00  0.00    +0.000 N 
ATOM     46  H   GLY A   6      -5.055 -10.331   5.729  0.00  0.00    +0.000 HD
BRANCH  45  47
ATOM     47  CA  GLY A   6      -4.700 -11.709   7.307  0.00  0.00    +0.000 C 
BRANCH  47  48
ATOM     48  C   GLY A   6      -5.743 -12.600   6.622  0.00  0.00    +0.000 C 
ATOM     49  O   GLY A   6      -6.315 -12.278   5.587  0.00  0.00    +0.000 OA
BRANCH  48  50
ATOM     50  OXT GLY A   6      -6.001 -13.782   7.230  0.00  0.00    +0.000 OA
ATOM     51  HXT GLY A   6      -5.519 -13.992   8.053  0.00  0.00    +0.000 HD
ENDBRANCH  48  50
ENDBRANCH  47  48
ENDBRANCH  45  47
ENDBRANCH  42  43
BRANCH  42  52
ATOM     52  C   UNK A   5      -3.020  -8.599   4.672  0.00  0.00    +0.000 C 
BRANCH  52  53
ATOM     53  C   UNK A   5      -2.850  -7.403   3.744  0.00  0.00    +0.000 C 
BRANCH  53  54
ATOM     54  C   UNK A   5      -2.419  -7.725   2.339  0.00  0.00    +0.000 C 
BRANCH  54  55
ATOM     55  C   UNK A   5      -2.261  -6.425   1.553  0.00  0.00    +0.000 C 
BRANCH  55  56
ATOM     56  N   UNK A   5      -1.826  -6.682   0.196  0.00  0.00    +0.000 N 
ATOM     57  C   UNK A   5      -1.631  -5.638  -0.682  0.00  0.00    +0.000 C 
ATOM     58  O   UNK A   5      -1.814  -4.467  -0.360  0.00  0.00    +0.000 OA
ATOM     59  H   UNK A   5      -1.644  -7.636  -0.082  0.00  0.00    +0.000 HD
BRANCH  57  60
ATOM     60  C   UNK A   5      -1.174  -6.048  -2.073  0.00  0.00    +0.000 C 
BRANCH  60  61
ATOM     61  C   UNK A   5      -1.010  -4.807  -2.953  0.00  0.00    +0.000 C 
BRANCH  61  62
ATOM     62  N   UNK A   5      -0.583  -5.159  -4.309  0.00  0.00    +0.000 NA
ATOM     63  H   UNK A   5       0.339  -5.591  -4.276  0.00  0.00    +0.000 HD
ATOM     64  H   UNK A   5      -0.467  -4.298  -4.846  0.00  0.00    +0.000 HD
ENDBRANCH  61  62
ENDBRANCH  60  61
ENDBRANCH  57  60
ENDBRANCH  55  56
ENDBRANCH  54  55
ENDBRANCH  53  54
ENDBRANCH  52  53
ENDBRANCH  42  52
ENDBRANCH  40  42
ENDBRANCH  37  38
ENDBRANCH  18  31
BRANCH  22  65
ATOM     65  CB  ASN A   2       2.179   0.399   2.742  0.00  0.00    +0.000 C 
BRANCH  65  66
ATOM     66  CG  ASN A   2       2.321   1.334   3.797  0.00  0.00    +0.000 C 
ATOM     67  ND2 ASN A   2       2.122   1.164   5.057  0.00  0.00    +0.000 N 
ATOM     68  OD1 ASN A   2       2.810   2.437   3.552  0.00  0.00    +0.000 OA
ATOM     69 HD21 ASN A   2       2.766   0.501   5.404  0.00  0.00    +0.000 HD
ATOM     70 HD22 ASN A   2       2.206   2.003   5.614  0.00  0.00    +0.000 HD
ENDBRANCH  65  66
ENDBRANCH  22  65
BRANCH   9  71
ATOM     71  CB  TYR A   1       3.517   3.852   5.471  0.00  0.00    +0.000 C 
BRANCH  71  72
ATOM     72  CG  TYR A   1       4.268   2.482   6.013  0.00  0.00    +0.000 A 
ATOM     73  CD1 TYR A   1       4.931   1.780   5.067  0.00  0.00    +0.000 A 
ATOM     74  CE1 TYR A   1       5.117   0.392   5.028  0.00  0.00    +0.000 A 
ATOM     75  CZ  TYR A   1       4.716  -0.510   5.981  0.00  0.00    +0.000 A 
ATOM     76  CE2 TYR A   1       4.023   0.103   7.005  0.00  0.00    +0.000 A 
ATOM     77  CD2 TYR A   1       3.848   1.586   7.052  0.00  0.00    +0.000 A 
BRANCH  75  78
ATOM     78  OH  TYR A   1       4.522  -1.851   5.717  0.00  0.00    +0.000 OA
ATOM     79  HH  TYR A   1       5.236  -2.302   5.207  0.00  0.00    +0.000 HD
ENDBRANCH  75  78
ENDBRANCH  71  72
ENDBRANCH   9  71
BRANCH   5  80
ATOM     80  CB  TYR A   1       5.286   4.657   1.227  0.00  0.00    +0.000 C 
BRANCH  80  81
ATOM     81  CG  TYR A   1       6.774   4.805   1.211  0.00  0.00    +0.000 A 
ATOM     82  CD1 TYR A   1       7.683   3.729   1.230  0.00  0.00    +0.000 A 
ATOM     83  CE1 TYR A   1       8.991   3.865   1.611  0.00  0.00    +0.000 A 
ATOM     84  CZ  TYR A   1       9.486   5.142   1.658  0.00  0.00    +0.000 A 
ATOM     85  CE2 TYR A   1       8.627   6.243   1.539  0.00  0.00    +0.000 A 
ATOM     86  CD2 TYR A   1       7.262   6.080   1.382  0.00  0.00    +0.000 A 
ENDBRANCH  80  81
ENDBRANCH   5  80
BRANCH   1  87
ATOM     87  CB  TYR A   1       4.873  -0.571  -0.050  0.00  0.00    +0.000 C 
BRANCH  87  89
ATOM     88  CD1 TYR A   1       6.693   0.777  -0.807  0.00  0.00    +0.000 C 
ATOM     89  CG  TYR A   1       5.248   0.447  -1.083  0.00  0.00    +0.000 C 
ATOM     90  CD2 TYR A   1       5.115  -0.077  -2.495  0.00  0.00    +0.000 C 
ENDBRANCH  87  89
ENDBRANCH   1  87
TORSDOF 24
