REMARK  Name = CHEMBL2369842
REMARK  20 active torsions:
REMARK  status: ('A' for Active; 'I' for Inactive)
REMARK    1  A    between atoms: C_2  and  C_4
REMARK    2  A    between atoms: C_4  and  N_5
REMARK    3  A    between atoms: C_6  and  C_8
REMARK    4  A    between atoms: C_8  and  C_9
REMARK    5  A    between atoms: C_8  and  N_16
REMARK    6  A    between atoms: C_9  and  C_10
REMARK    7  A    between atoms: C_10  and  C_11
REMARK    8  A    between atoms: C_11  and  N_12
REMARK    9  A    between atoms: C_17  and  C_19
REMARK   10  A    between atoms: C_24  and  C_26
REMARK   11  A    between atoms: C_35  and  C_36
REMARK   12  A    between atoms: C_36  and  C_37
REMARK   13  A    between atoms: C_40  and  O_41
REMARK   14  A    between atoms: C_47  and  C_48
REMARK   15  A    between atoms: C_48  and  C_49
REMARK   16  A    between atoms: C_58  and  C_59
REMARK   17  A    between atoms: C_59  and  C_60
REMARK   18  A    between atoms: C_63  and  O_64
REMARK   19  A    between atoms: C_70  and  C_71
REMARK   20  A    between atoms: C_71  and  C_72
REMARK                            x       y       z     vdW  Elec       q    Type
REMARK                         _______ _______ _______ _____ _____    ______ ____
ROOT
ATOM      1  C   UNL     1       4.467   4.984   0.679  0.00  0.00    +0.000 C 
ATOM      2  C   UNL     1       2.279   5.466   1.916  0.00  0.00    +0.000 C 
ATOM      3  S   UNL     1      -0.138   5.231   2.968  0.00  0.00    +0.000 S 
ATOM      4  S   UNL     1      -2.859   5.012   3.593  0.00  0.00    +0.000 S 
ATOM      5  C   UNL     1      -3.931   3.260   3.121  0.00  0.00    +0.000 C 
ATOM      6  C   UNL     1      -5.140   2.629   2.396  0.00  0.00    +0.000 C 
ATOM      7  C   UNL     1      -4.896   1.352   1.541  0.00  0.00    +0.000 C 
ATOM      8  O   UNL     1      -5.848   0.706   1.093  0.00  0.00    +0.000 OA
ATOM      9  N   UNL     1      -3.612   0.971   1.260  0.00  0.00    +0.000 N 
ATOM     10  C   UNL     1      -2.425   1.650   1.691  0.00  0.00    +0.000 C 
ATOM     11  C   UNL     1      -2.470   3.171   0.946  0.00  0.00    +0.000 C 
ATOM     12  O   UNL     1      -3.403   3.996   0.869  0.00  0.00    +0.000 OA
ATOM     13  N   UNL     1      -1.354   3.780   0.707  0.00  0.00    +0.000 N 
ATOM     14  C   UNL     1      -0.255   3.026   0.542  0.00  0.00    +0.000 C 
ATOM     15  C   UNL     1       0.559   2.589   1.765  0.00  0.00    +0.000 C 
ATOM     16  O   UNL     1       0.104   2.066   2.779  0.00  0.00    +0.000 OA
ATOM     17  N   UNL     1       1.833   2.602   1.792  0.00  0.00    +0.000 N 
ATOM     18  C   UNL     1       2.613   3.162   0.920  0.00  0.00    +0.000 C 
ATOM     19  C   UNL     1       2.837   2.137  -0.474  0.00  0.00    +0.000 C 
ATOM     20  O   UNL     1       2.359   1.895  -1.601  0.00  0.00    +0.000 OA
ATOM     21  N   UNL     1       4.009   1.827  -0.804  0.00  0.00    +0.000 N 
ATOM     22  C   UNL     1       5.107   2.350  -0.321  0.00  0.00    +0.000 C 
ATOM     23  C   UNL     1       4.412   3.916  -0.450  0.00  0.00    +0.000 C 
ATOM     24  O   UNL     1       3.297   4.520  -0.326  0.00  0.00    +0.000 OA
ATOM     25  N   UNL     1       5.810   4.907  -0.094  0.00  0.00    +0.000 N 
ATOM     26  H   UNL     1      -3.440   0.131   0.721  0.00  0.00    +0.000 HD
ATOM     27  H   UNL     1      -1.410   4.565   0.072  0.00  0.00    +0.000 HD
ATOM     28  H   UNL     1       2.269   2.377   2.628  0.00  0.00    +0.000 HD
ATOM     29  H   UNL     1       3.991   1.707  -1.834  0.00  0.00    +0.000 HD
ATOM     30  H   UNL     1       6.509   5.460  -0.979  0.00  0.00    +0.000 HD
ENDROOT
BRANCH   1  36
ATOM     31  C   UNL     1       6.095   2.453  -3.626  0.00  0.00    +0.000 C 
ATOM     32  C   UNL     1       5.644   0.875  -3.793  0.00  0.00    +0.000 C 
ATOM     33  C   UNL     1       6.818   0.208  -4.364  0.00  0.00    +0.000 C 
ATOM     34  C   UNL     1       7.933   1.434  -3.360  0.00  0.00    +0.000 C 
ATOM     35  N   UNL     1       7.047   3.026  -2.331  0.00  0.00    +0.000 N 
ATOM     36  C   UNL     1       6.136   3.978  -0.646  0.00  0.00    +0.000 C 
ATOM     37  O   UNL     1       7.612   3.863  -0.895  0.00  0.00    +0.000 OA
BRANCH  31  39
ATOM     38  N   UNL     1       5.643   4.639  -2.754  0.00  0.00    +0.000 N 
ATOM     39  C   UNL     1       5.258   3.366  -3.020  0.00  0.00    +0.000 C 
ATOM     40  O   UNL     1       4.274   2.821  -2.616  0.00  0.00    +0.000 OA
ATOM     41  H   UNL     1       6.608   4.848  -2.954  0.00  0.00    +0.000 HD
BRANCH  38  42
ATOM     42  C   UNL     1       4.934   5.634  -2.032  0.00  0.00    +0.000 C 
BRANCH  42  44
ATOM     43  N   UNL     1       2.869   4.452  -2.035  0.00  0.00    +0.000 N 
ATOM     44  C   UNL     1       3.531   5.573  -2.201  0.00  0.00    +0.000 C 
ATOM     45  O   UNL     1       3.105   6.561  -2.708  0.00  0.00    +0.000 OA
ATOM     46  H   UNL     1       2.950   3.890  -1.197  0.00  0.00    +0.000 HD
BRANCH  43  47
ATOM     47  C   UNL     1       1.609   4.286  -2.050  0.00  0.00    +0.000 C 
BRANCH  47  49
ATOM     48  N   UNL     1      -1.324   3.152  -1.387  0.00  0.00    +0.000 N 
ATOM     49  C   UNL     1       0.454   2.625  -1.525  0.00  0.00    +0.000 C 
ATOM     50  O   UNL     1       0.779   1.745  -0.660  0.00  0.00    +0.000 OA
ATOM     51  H   UNL     1      -1.828   2.370  -1.210  0.00  0.00    +0.000 HD
ATOM     52  H   UNL     1      -1.752   3.915  -2.006  0.00  0.00    +0.000 HD
ENDBRANCH  47  49
ENDBRANCH  43  47
ENDBRANCH  42  44
BRANCH  42  53
ATOM     53  C   UNL     1       5.638   6.893  -1.534  0.00  0.00    +0.000 C 
BRANCH  53  54
ATOM     54  C   UNL     1       6.733   6.968  -0.246  0.00  0.00    +0.000 C 
BRANCH  54  55
ATOM     55  C   UNL     1       7.346   8.266  -0.211  0.00  0.00    +0.000 C 
BRANCH  55  56
ATOM     56  N   UNL     1       8.302   8.259   0.875  0.00  0.00    +0.000 NA
ATOM     57  C   UNL     1       8.939   9.363   1.071  0.00  0.00    +0.000 C 
ATOM     58  N   UNL     1       8.728  10.482   0.304  0.00  0.00    +0.000 N 
ATOM     59  N   UNL     1       9.859   9.437   2.094  0.00  0.00    +0.000 N 
ATOM     60  H   UNL     1       8.056  10.482  -0.471  0.00  0.00    +0.000 HD
ATOM     61  H   UNL     1       9.201  11.363   0.424  0.00  0.00    +0.000 HD
ATOM     62  H   UNL     1      10.059   8.628   2.700  0.00  0.00    +0.000 HD
ATOM     63  H   UNL     1      10.405  10.255   2.325  0.00  0.00    +0.000 HD
ENDBRANCH  55  56
ENDBRANCH  54  55
ENDBRANCH  53  54
ENDBRANCH  42  53
ENDBRANCH  38  42
ENDBRANCH  31  39
ENDBRANCH   1  36
BRANCH  10  64
ATOM     64  C   UNL     1      -1.314   0.797   1.295  0.00  0.00    +0.000 C 
BRANCH  64  65
ATOM     65  C   UNL     1      -1.077  -0.468   1.901  0.00  0.00    +0.000 A 
ATOM     66  C   UNL     1      -1.718  -1.459   1.224  0.00  0.00    +0.000 A 
ATOM     67  C   UNL     1      -1.706  -2.727   1.720  0.00  0.00    +0.000 A 
ATOM     68  C   UNL     1      -1.000  -2.994   2.873  0.00  0.00    +0.000 A 
ATOM     69  C   UNL     1      -0.343  -1.981   3.543  0.00  0.00    +0.000 A 
ATOM     70  C   UNL     1      -0.365  -0.702   3.051  0.00  0.00    +0.000 A 
BRANCH  68  71
ATOM     71  O   UNL     1      -0.898  -4.230   3.425  0.00  0.00    +0.000 OA
ATOM     72  H   UNL     1      -1.362  -4.925   2.933  0.00  0.00    +0.000 HD
ENDBRANCH  68  71
ENDBRANCH  64  65
ENDBRANCH  10  64
BRANCH  14  73
ATOM     73  C   UNL     1       0.507   4.044  -0.338  0.00  0.00    +0.000 C 
BRANCH  73  74
ATOM     74  C   UNL     1      -0.189   4.410  -2.216  0.00  0.00    +0.000 A 
ATOM     75  C   UNL     1      -0.073   5.678  -2.559  0.00  0.00    +0.000 A 
ATOM     76  C   UNL     1      -0.611   5.743  -3.714  0.00  0.00    +0.000 A 
ATOM     77  C   UNL     1      -1.131   4.711  -4.449  0.00  0.00    +0.000 A 
ATOM     78  C   UNL     1      -1.168   3.399  -4.154  0.00  0.00    +0.000 A 
ATOM     79  C   UNL     1      -0.364   3.048  -3.250  0.00  0.00    +0.000 A 
ENDBRANCH  73  74
ENDBRANCH  14  73
BRANCH  18  80
ATOM     80  C   UNL     1       3.825   3.338   1.758  0.00  0.00    +0.000 C 
BRANCH  80  81
ATOM     81  C   UNL     1       4.049   4.433   2.756  0.00  0.00    +0.000 A 
ATOM     82  C   UNL     1       4.403   5.871   2.693  0.00  0.00    +0.000 A 
ATOM     83  C   UNL     1       4.335   6.622   3.786  0.00  0.00    +0.000 A 
ATOM     84  C   UNL     1       3.958   5.969   4.913  0.00  0.00    +0.000 A 
ATOM     85  C   UNL     1       3.644   4.620   4.934  0.00  0.00    +0.000 A 
ATOM     86  C   UNL     1       3.668   3.852   3.856  0.00  0.00    +0.000 A 
BRANCH  84  87
ATOM     87  O   UNL     1       3.879   6.585   6.108  0.00  0.00    +0.000 OA
ATOM     88  H   UNL     1       4.097   7.528   6.076  0.00  0.00    +0.000 HD
ENDBRANCH  84  87
ENDBRANCH  80  81
ENDBRANCH  18  80
BRANCH  22  89
ATOM     89  C   UNL     1       6.336   1.769  -0.837  0.00  0.00    +0.000 C 
BRANCH  89  90
ATOM     90  C   UNL     1       6.376   0.414  -1.161  0.00  0.00    +0.000 C 
ATOM     91  N   UNL     1       5.274  -0.166  -0.677  0.00  0.00    +0.000 N 
ATOM     92  O   UNL     1       7.236  -0.144  -1.799  0.00  0.00    +0.000 OA
ATOM     93  H   UNL     1       4.515   0.361  -0.240  0.00  0.00    +0.000 HD
ATOM     94  H   UNL     1       5.159  -1.134  -0.783  0.00  0.00    +0.000 HD
ENDBRANCH  89  90
ENDBRANCH  22  89
TORSDOF 20
