REMARK  Name = CHEMBL514113
REMARK  8 active torsions:
REMARK  status: ('A' for Active; 'I' for Inactive)
REMARK    1  A    between atoms: C_1  and  O_2
REMARK    2  A    between atoms: O_2  and  C_3
REMARK    3  A    between atoms: C_6  and  N_7
REMARK    4  A    between atoms: N_7  and  C_8
REMARK    5  A    between atoms: N_7  and  S_20
REMARK    6  A    between atoms: C_8  and  C_9
REMARK    7  A    between atoms: C_12  and  C_13
REMARK    8  A    between atoms: S_20  and  C_23
REMARK                            x       y       z     vdW  Elec       q    Type
REMARK                         _______ _______ _______ _____ _____    ______ ____
ROOT
ATOM      1  N   UNL     1       5.685  -3.126   3.371  0.00  0.00    +0.000 N 
ENDROOT
BRANCH   1   5
ATOM      2  C   UNL     1       2.946  -0.806   0.939  0.00  0.00    +0.000 A 
ATOM      3  C   UNL     1       4.066  -0.257   1.466  0.00  0.00    +0.000 A 
ATOM      4  C   UNL     1       4.844  -1.053   2.275  0.00  0.00    +0.000 A 
ATOM      5  C   UNL     1       4.653  -2.380   2.623  0.00  0.00    +0.000 A 
ATOM      6  C   UNL     1       3.480  -2.909   2.099  0.00  0.00    +0.000 A 
ATOM      7  C   UNL     1       2.621  -2.120   1.285  0.00  0.00    +0.000 A 
BRANCH   2   9
ATOM      8  C   UNL     1       0.930  -0.040   0.087  0.00  0.00    +0.000 C 
ATOM      9  O   UNL     1       2.337   0.007   0.042  0.00  0.00    +0.000 OA
ENDBRANCH   2   9
ENDBRANCH   1   5
BRANCH   1  10
ATOM     10  S   UNL     1       5.202  -4.686   4.014  0.00  0.00    +0.000 S 
ATOM     11  O   UNL     1       3.999  -4.486   4.792  0.00  0.00    +0.000 OA
ATOM     12  O   UNL     1       5.180  -5.565   2.847  0.00  0.00    +0.000 OA
BRANCH  10  13
ATOM     13  C   UNL     1       6.421  -5.397   5.170  0.00  0.00    +0.000 A 
ATOM     14  C   UNL     1       7.263  -4.641   5.964  0.00  0.00    +0.000 A 
ATOM     15  C   UNL     1       8.188  -5.262   6.789  0.00  0.00    +0.000 A 
ATOM     16  C   UNL     1       8.164  -6.637   6.905  0.00  0.00    +0.000 A 
ATOM     17  C   UNL     1       7.229  -7.335   6.156  0.00  0.00    +0.000 A 
ATOM     18  N   UNL     1       6.376  -6.756   5.270  0.00  0.00    +0.000 NA
ENDBRANCH  10  13
ENDBRANCH   1  10
BRANCH   1  19
ATOM     19  C   UNL     1       6.921  -2.499   3.940  0.00  0.00    +0.000 C 
BRANCH  19  20
ATOM     20  C   UNL     1       7.418  -1.162   3.455  0.00  0.00    +0.000 A 
ATOM     21  C   UNL     1       7.926  -0.849   2.204  0.00  0.00    +0.000 A 
ATOM     22  S   UNL     1       7.886   0.866   1.967  0.00  0.00    +0.000 S 
ATOM     23  C   UNL     1       7.181   1.069   3.536  0.00  0.00    +0.000 A 
ATOM     24  N   UNL     1       7.122  -0.040   4.250  0.00  0.00    +0.000 NA
BRANCH  23  25
ATOM     25  C   UNL     1       6.837   2.408   4.023  0.00  0.00    +0.000 A 
ATOM     26  C   UNL     1       5.917   3.273   3.404  0.00  0.00    +0.000 A 
ATOM     27  C   UNL     1       5.851   4.617   3.796  0.00  0.00    +0.000 A 
ATOM     28  C   UNL     1       6.634   5.076   4.856  0.00  0.00    +0.000 A 
ATOM     29  C   UNL     1       7.470   4.194   5.535  0.00  0.00    +0.000 A 
ATOM     30  C   UNL     1       7.557   2.867   5.128  0.00  0.00    +0.000 A 
ENDBRANCH  23  25
ENDBRANCH  19  20
ENDBRANCH   1  19
TORSDOF 7
