REMARK  Name = CHEMBL514586
REMARK  11 active torsions:
REMARK  status: ('A' for Active; 'I' for Inactive)
REMARK    1  A    between atoms: C_1  and  O_2
REMARK    2  A    between atoms: O_2  and  C_3
REMARK    3  A    between atoms: C_6  and  N_7
REMARK    4  A    between atoms: N_7  and  C_8
REMARK    5  A    between atoms: N_7  and  S_22
REMARK    6  A    between atoms: C_8  and  C_9
REMARK    7  A    between atoms: C_12  and  C_13
REMARK    8  A    between atoms: C_18  and  C_19
REMARK    9  A    between atoms: S_22  and  C_25
REMARK   10  A    between atoms: C_28  and  S_29
REMARK   11  A    between atoms: S_29  and  C_30
REMARK                            x       y       z     vdW  Elec       q    Type
REMARK                         _______ _______ _______ _____ _____    ______ ____
ROOT
ATOM      1  N   UNL     1       5.175   3.625   3.149  0.00  0.00    +0.000 N 
ENDROOT
BRANCH   1   5
ATOM      2  C   UNL     1       2.955   0.780   0.829  0.00  0.00    +0.000 A 
ATOM      3  C   UNL     1       2.567   1.015   2.138  0.00  0.00    +0.000 A 
ATOM      4  C   UNL     1       3.281   1.940   2.926  0.00  0.00    +0.000 A 
ATOM      5  C   UNL     1       4.348   2.657   2.398  0.00  0.00    +0.000 A 
ATOM      6  C   UNL     1       4.452   2.470   1.028  0.00  0.00    +0.000 A 
ATOM      7  N   UNL     1       3.892   1.512   0.245  0.00  0.00    +0.000 NA
BRANCH   2   9
ATOM      8  C   UNL     1       0.999  -0.110  -0.010  0.00  0.00    +0.000 C 
ATOM      9  O   UNL     1       2.415  -0.168   0.016  0.00  0.00    +0.000 OA
ENDBRANCH   2   9
ENDBRANCH   1   5
BRANCH   1  10
ATOM     10  S   UNL     1       4.740   3.915   4.777  0.00  0.00    +0.000 S 
ATOM     11  O   UNL     1       3.433   4.566   4.737  0.00  0.00    +0.000 OA
ATOM     12  O   UNL     1       4.904   2.706   5.545  0.00  0.00    +0.000 OA
BRANCH  10  13
ATOM     13  C   UNL     1       5.849   5.130   5.495  0.00  0.00    +0.000 A 
ATOM     14  C   UNL     1       6.850   4.737   6.400  0.00  0.00    +0.000 A 
ATOM     15  C   UNL     1       7.544   5.708   7.147  0.00  0.00    +0.000 A 
ATOM     16  C   UNL     1       7.268   7.066   6.949  0.00  0.00    +0.000 A 
ATOM     17  C   UNL     1       6.267   7.454   6.051  0.00  0.00    +0.000 A 
ATOM     18  C   UNL     1       5.548   6.486   5.340  0.00  0.00    +0.000 A 
BRANCH  16  19
ATOM     19  S   UNL     1       8.316   8.312   7.693  0.00  0.00    +0.000 S 
ATOM     20  C   UNL     1       8.140   8.159   9.449  0.00  0.00    +0.000 C 
ATOM     21  O   UNL     1       9.675   7.953   7.345  0.00  0.00    +0.000 OA
ATOM     22  O   UNL     1       7.775   9.608   7.318  0.00  0.00    +0.000 OA
ENDBRANCH  16  19
ENDBRANCH  10  13
ENDBRANCH   1  10
BRANCH   1  23
ATOM     23  C   UNL     1       6.531   4.120   2.688  0.00  0.00    +0.000 C 
BRANCH  23  24
ATOM     24  C   UNL     1       7.062   3.706   1.309  0.00  0.00    +0.000 A 
ATOM     25  C   UNL     1       7.079   4.641   0.270  0.00  0.00    +0.000 A 
ATOM     26  C   UNL     1       7.074   4.181  -1.050  0.00  0.00    +0.000 A 
ATOM     27  C   UNL     1       7.044   2.807  -1.329  0.00  0.00    +0.000 A 
ATOM     28  C   UNL     1       7.121   1.955  -0.231  0.00  0.00    +0.000 A 
ATOM     29  N   UNL     1       7.200   2.373   1.068  0.00  0.00    +0.000 NA
BRANCH  27  30
ATOM     30  C   UNL     1       7.041   2.286  -2.702  0.00  0.00    +0.000 A 
ATOM     31  C   UNL     1       5.961   1.541  -3.217  0.00  0.00    +0.000 A 
ATOM     32  C   UNL     1       6.029   0.976  -4.496  0.00  0.00    +0.000 A 
ATOM     33  C   UNL     1       7.168   1.156  -5.277  0.00  0.00    +0.000 A 
ATOM     34  C   UNL     1       8.238   1.903  -4.788  0.00  0.00    +0.000 A 
ATOM     35  C   UNL     1       8.185   2.471  -3.509  0.00  0.00    +0.000 A 
ATOM     36  C   UNL     1       9.375   3.235  -2.988  0.00  0.00    +0.000 C 
ENDBRANCH  27  30
ENDBRANCH  23  24
ENDBRANCH   1  23
TORSDOF 8
