REMARK  Name = CHEMBL2037515
REMARK  12 active torsions:
REMARK  status: ('A' for Active; 'I' for Inactive)
REMARK    1  A    between atoms: C_1  and  C_2
REMARK    2  A    between atoms: C_2  and  C_3
REMARK    3  A    between atoms: C_3  and  C_4
REMARK    4  A    between atoms: C_3  and  C_6
REMARK    5  A    between atoms: C_4  and  C_5
REMARK    6  A    between atoms: C_10  and  C_11
REMARK    7  A    between atoms: N_22  and  C_23
REMARK    8  A    between atoms: C_23  and  C_24
REMARK    9  A    between atoms: C_23  and  C_28
REMARK   10  A    between atoms: N_26  and  C_27
REMARK   11  A    between atoms: C_31  and  C_32
REMARK   12  A    between atoms: C_34  and  C_35
REMARK                            x       y       z     vdW  Elec       q    Type
REMARK                         _______ _______ _______ _____ _____    ______ ____
ROOT
ATOM      1  C   UNK A   2       4.699  -1.317   0.148  0.00  0.00    +0.000 C 
ATOM      2  C   UNK A   2       5.244  -2.642  -0.425  0.00  0.00    +0.000 C 
ATOM      3  O   UNK A   2       4.808  -3.346  -1.325  0.00  0.00    +0.000 OA
ATOM      4  N   UNK A   1       6.437  -2.998   0.038  0.00  0.00    +0.000 N 
ATOM      5  C   UNK A   1       7.285  -2.122   0.779  0.00  0.00    +0.000 C 
ATOM      6  C   UNK A   1       6.468  -1.538   1.929  0.00  0.00    +0.000 C 
ATOM      7  O   UNK A   1       7.081  -1.334   2.970  0.00  0.00    +0.000 OA
ATOM      8  N   UNK A   2       5.110  -1.235   1.656  0.00  0.00    +0.000 N 
ATOM      9  H   UNK A   1       6.765  -3.833  -0.428  0.00  0.00    +0.000 HD
ENDROOT
BRANCH   5  10
ATOM     10  C   UNK A   1       8.479  -2.908   1.367  0.00  0.00    +0.000 C 
ATOM     11  C   UNK A   1       9.333  -3.509   0.237  0.00  0.00    +0.000 C 
ATOM     12  C   UNK A   1       8.689  -4.854   0.060  0.00  0.00    +0.000 A 
ATOM     13  C   UNK A   1       8.655  -5.626  -1.088  0.00  0.00    +0.000 A 
ATOM     14  C   UNK A   1       7.852  -6.768  -1.092  0.00  0.00    +0.000 A 
ATOM     15  C   UNK A   1       7.085  -7.114   0.033  0.00  0.00    +0.000 A 
ATOM     16  C   UNK A   1       7.102  -6.319   1.180  0.00  0.00    +0.000 A 
ATOM     17  C   UNK A   1       7.916  -5.197   1.182  0.00  0.00    +0.000 A 
ATOM     18  C   UNK A   1       7.992  -4.118   2.223  0.00  0.00    +0.000 C 
ENDBRANCH   5  10
BRANCH   1  19
ATOM     19  C   UNK A   2       3.175  -1.296  -0.070  0.00  0.00    +0.000 C 
BRANCH  19  21
ATOM     20  C   UNK A   2       1.100   0.397   0.068  0.00  0.00    +0.000 C 
ATOM     21  C   UNK A   2       2.611   0.149  -0.053  0.00  0.00    +0.000 C 
ENDBRANCH  19  21
BRANCH  19  22
ATOM     22  C   UNK A   2       2.500  -2.300  -1.032  0.00  0.00    +0.000 C 
ATOM     23  C   UNK A   2       0.996  -2.466  -1.107  0.00  0.00    +0.000 C 
ENDBRANCH  19  22
ENDBRANCH   1  19
BRANCH   8  24
ATOM     24  C   UNK A   0       4.098  -0.864   2.821  0.00  0.00    +0.000 C 
BRANCH  24  25
ATOM     25  C   UNK A   0       4.819  -0.651   4.229  0.00  0.00    +0.000 A 
ATOM     26  C   UNK A   0       5.856   0.316   4.359  0.00  0.00    +0.000 A 
ATOM     27  C   UNK A   0       6.689   0.352   5.496  0.00  0.00    +0.000 A 
ATOM     28  C   UNK A   0       6.418  -0.505   6.540  0.00  0.00    +0.000 A 
ATOM     29  C   UNK A   0       7.160  -0.577   7.822  0.00  0.00    +0.000 C 
ATOM     30  N   UNK A   0       5.390  -1.341   6.502  0.00  0.00    +0.000 NA
ATOM     31  C   UNK A   0       4.623  -1.414   5.397  0.00  0.00    +0.000 A 
ATOM     32  C   UNK A   0       3.577  -2.418   5.669  0.00  0.00    +0.000 C 
ENDBRANCH  24  25
BRANCH  24  33
ATOM     33  C   UNK A   0       2.784  -1.905   2.945  0.00  0.00    +0.000 C 
ATOM     34  O   UNK A   0       2.845  -2.950   3.513  0.00  0.00    +0.000 OA
ATOM     35  N   UNK A   0       1.582  -1.826   2.253  0.00  0.00    +0.000 N 
ATOM     36  C   UNK A   0       0.796  -3.066   2.185  0.00  0.00    +0.000 C 
ATOM     37  H   UNK A   0       1.543  -1.370   1.374  0.00  0.00    +0.000 HD
ENDBRANCH  24  33
ENDBRANCH   8  24
TORSDOF 7
