REMARK  Name = CHEMBL1093744
REMARK  8 active torsions:
REMARK  status: ('A' for Active; 'I' for Inactive)
REMARK    1  A    between atoms: C_1  and  C_2
REMARK    2  A    between atoms: C_2  and  N_3
REMARK    3  A    between atoms: N_3  and  C_20
REMARK    4  A    between atoms: C_8  and  O_9
REMARK    5  A    between atoms: O_9  and  C_10
REMARK    6  A    between atoms: C_17  and  C_18
REMARK    7  A    between atoms: C_23  and  O_24
REMARK    8  A    between atoms: O_24  and  C_25
REMARK                            x       y       z     vdW  Elec       q    Type
REMARK                         _______ _______ _______ _____ _____    ______ ____
ROOT
ATOM      1  N   UNL     1       2.892  -0.104   1.482  0.00  0.00    +0.000 N 
ATOM      2  C   UNL     1       1.929  -0.077   2.556  0.00  0.00    +0.000 C 
ATOM      3  O   UNL     1       2.289  -0.083   3.745  0.00  0.00    +0.000 OA
ATOM      4  N   UNL     1       0.574   0.138   2.230  0.00  0.00    +0.000 N 
ATOM      5  C   UNL     1      -0.562   0.613   3.039  0.00  0.00    +0.000 C 
ATOM      6  C   UNL     1      -1.387  -0.634   2.594  0.00  0.00    +0.000 C 
ATOM      7  C   UNL     1      -0.344  -0.753   1.520  0.00  0.00    +0.000 C 
ENDROOT
BRANCH   1   8
ATOM      8  C   UNL     1       4.339  -0.129   1.771  0.00  0.00    +0.000 A 
ATOM      9  C   UNL     1       5.227   0.706   1.068  0.00  0.00    +0.000 A 
ATOM     10  C   UNL     1       6.616   0.642   1.249  0.00  0.00    +0.000 A 
ATOM     11  C   UNL     1       7.138  -0.347   2.055  0.00  0.00    +0.000 A 
ATOM     12  N   UNL     1       6.326  -1.160   2.771  0.00  0.00    +0.000 NA
ATOM     13  C   UNL     1       4.961  -1.001   2.657  0.00  0.00    +0.000 A 
BRANCH  11  14
ATOM     14  O   UNL     1       8.480  -0.604   2.192  0.00  0.00    +0.000 OA
ATOM     15  C   UNL     1       9.383   0.222   1.456  0.00  0.00    +0.000 C 
ENDBRANCH  11  14
ENDBRANCH   1   8
BRANCH   1  17
ATOM     16  C   UNL     1       1.249   0.033  -0.463  0.00  0.00    +0.000 C 
ATOM     17  C   UNL     1       2.658   0.022   0.006  0.00  0.00    +0.000 C 
ENDBRANCH   1  17
BRANCH   6  18
ATOM     18  O   UNL     1      -1.531  -1.792   3.458  0.00  0.00    +0.000 OA
BRANCH  18  19
ATOM     19  C   UNL     1      -2.337  -2.834   3.017  0.00  0.00    +0.000 A 
ATOM     20  C   UNL     1      -3.462  -3.089   3.809  0.00  0.00    +0.000 A 
ATOM     21  C   UNL     1      -4.255  -4.211   3.557  0.00  0.00    +0.000 A 
ATOM     22  F   UNL     1      -5.316  -4.458   4.335  0.00  0.00    +0.000 F 
ATOM     23  C   UNL     1      -3.962  -5.089   2.529  0.00  0.00    +0.000 A 
ATOM     24  C   UNL     1      -2.862  -4.830   1.738  0.00  0.00    +0.000 A 
ATOM     25  F   UNL     1      -2.580  -5.678   0.736  0.00  0.00    +0.000 F 
ATOM     26  C   UNL     1      -2.032  -3.723   1.962  0.00  0.00    +0.000 A 
ATOM     27  C   UNL     1      -0.885  -3.607   1.019  0.00  0.00    +0.000 C 
ENDBRANCH  18  19
ENDBRANCH   6  18
TORSDOF 5
