REMARK  Name = CHEMBL2113216
REMARK  11 active torsions:
REMARK  status: ('A' for Active; 'I' for Inactive)
REMARK    1  A    between atoms: C_1  and  C_2
REMARK    2  A    between atoms: C_2  and  C_3
REMARK    3  A    between atoms: C_3  and  O_4
REMARK    4  A    between atoms: O_4  and  C_5
REMARK    5  A    between atoms: C_8  and  S_9
REMARK    6  A    between atoms: S_9  and  N_12
REMARK    7  A    between atoms: N_12  and  C_13
REMARK    8  A    between atoms: N_12  and  C_28
REMARK    9  A    between atoms: C_13  and  C_14
REMARK   10  A    between atoms: N_16  and  N_17
REMARK   11  A    between atoms: C_31  and  C_32
REMARK                            x       y       z     vdW  Elec       q    Type
REMARK                         _______ _______ _______ _____ _____    ______ ____
ROOT
ATOM      1  N   UNL     1       6.796   4.387   6.230  0.00  0.00    +0.000 N 
ENDROOT
BRANCH   1   2
ATOM      2  C   UNL     1       7.326   5.395   7.227  0.00  0.00    +0.000 A 
ATOM      3  C   UNL     1       7.161   5.119   8.601  0.00  0.00    +0.000 A 
ATOM      4  C   UNL     1       7.364   6.090   9.602  0.00  0.00    +0.000 A 
ATOM      5  C   UNL     1       7.855   7.352   9.276  0.00  0.00    +0.000 A 
ATOM      6  C   UNL     1       8.237   8.331  10.351  0.00  0.00    +0.000 C 
ATOM      7  C   UNL     1       8.045   7.652   7.924  0.00  0.00    +0.000 A 
ATOM      8  C   UNL     1       7.769   6.693   6.915  0.00  0.00    +0.000 A 
ENDBRANCH   1   2
BRANCH   1   9
ATOM      9  S   UNL     1       7.615   4.304   4.660  0.00  0.00    +0.000 S 
ATOM     10  O   UNL     1       8.942   3.778   4.948  0.00  0.00    +0.000 OA
ATOM     11  O   UNL     1       7.514   5.611   4.037  0.00  0.00    +0.000 OA
BRANCH   9  15
ATOM     12  C   UNL     1       5.259   1.958   1.423  0.00  0.00    +0.000 A 
ATOM     13  C   UNL     1       6.480   2.541   1.068  0.00  0.00    +0.000 A 
ATOM     14  C   UNL     1       7.278   3.197   2.058  0.00  0.00    +0.000 A 
ATOM     15  C   UNL     1       6.923   3.129   3.423  0.00  0.00    +0.000 A 
ATOM     16  C   UNL     1       5.885   2.283   3.731  0.00  0.00    +0.000 A 
ATOM     17  C   UNL     1       4.936   1.959   2.760  0.00  0.00    +0.000 A 
BRANCH  12  18
ATOM     18  O   UNL     1       4.513   1.247   0.517  0.00  0.00    +0.000 OA
BRANCH  18  19
ATOM     19  C   UNL     1       3.111   1.085   0.819  0.00  0.00    +0.000 C 
BRANCH  19  21
ATOM     20  C   UNL     1       1.015  -0.067   0.054  0.00  0.00    +0.000 C 
ATOM     21  C   UNL     1       2.535  -0.058  -0.007  0.00  0.00    +0.000 C 
ENDBRANCH  19  21
ENDBRANCH  18  19
ENDBRANCH  12  18
ENDBRANCH   9  15
ENDBRANCH   1   9
BRANCH   1  22
ATOM     22  C   UNL     1       5.349   3.978   6.530  0.00  0.00    +0.000 C 
BRANCH  22  23
ATOM     23  C   UNL     1       4.275   3.730   5.462  0.00  0.00    +0.000 C 
ATOM     24  O   UNL     1       4.378   4.402   4.396  0.00  0.00    +0.000 OA
ATOM     25  N   UNL     1       3.241   2.773   5.714  0.00  0.00    +0.000 N 
ATOM     26  H   UNL     1       3.220   2.317   6.632  0.00  0.00    +0.000 HD
BRANCH  25  27
ATOM     27  N   UNL     1       1.850   2.752   5.107  0.00  0.00    +0.000 NA
ATOM     28  C   UNL     1       1.122   1.694   5.460  0.00  0.00    +0.000 C 
ATOM     29  C   UNL     1       1.766   0.366   5.610  0.00  0.00    +0.000 C 
ATOM     30  O   UNL     1       2.457   0.322   6.620  0.00  0.00    +0.000 OA
ATOM     31  N   UNL     1       0.841  -0.571   5.150  0.00  0.00    +0.000 N 
ATOM     32  C   UNL     1      -0.319  -0.179   5.840  0.00  0.00    +0.000 A 
ATOM     33  C   UNL     1      -1.063  -1.203   6.459  0.00  0.00    +0.000 A 
ATOM     34  C   UNL     1      -1.888  -0.891   7.514  0.00  0.00    +0.000 A 
ATOM     35  C   UNL     1      -1.908   0.451   7.914  0.00  0.00    +0.000 A 
ATOM     36  C   UNL     1      -1.138   1.511   7.230  0.00  0.00    +0.000 A 
ATOM     37  C   UNL     1      -0.307   1.216   6.118  0.00  0.00    +0.000 A 
ATOM     38  H   UNL     1       0.605  -0.474   4.162  0.00  0.00    +0.000 HD
ENDBRANCH  25  27
ENDBRANCH  22  23
ENDBRANCH   1  22
TORSDOF 9
