REMARK  Name = CHEMBL522255
REMARK  14 active torsions:
REMARK  status: ('A' for Active; 'I' for Inactive)
REMARK    1  A    between atoms: C_1  and  C_2
REMARK    2  A    between atoms: C_2  and  O_3
REMARK    3  A    between atoms: O_3  and  C_4
REMARK    4  A    between atoms: C_7  and  C_8
REMARK    5  A    between atoms: C_11  and  C_12
REMARK    6  A    between atoms: C_12  and  O_13
REMARK    7  A    between atoms: O_13  and  C_14
REMARK    8  A    between atoms: C_14  and  C_15
REMARK    9  A    between atoms: C_15  and  O_16
REMARK   10  A    between atoms: O_16  and  C_17
REMARK   11  A    between atoms: N_18  and  C_19
REMARK   12  A    between atoms: C_22  and  O_23
REMARK   13  A    between atoms: O_23  and  C_24
REMARK   14  A    between atoms: C_28  and  C_29
REMARK                            x       y       z     vdW  Elec       q    Type
REMARK                         _______ _______ _______ _____ _____    ______ ____
ROOT
ATOM      1  C   UNL     1       8.578  -2.163  -1.141  0.00  0.00    +0.000 A 
ATOM      2  N   UNL     1       9.466  -1.697  -2.006  0.00  0.00    +0.000 NA
ATOM      3  N   UNL     1      10.711  -2.210  -1.684  0.00  0.00    +0.000 NA
ATOM      4  C   UNL     1      10.586  -3.014  -0.638  0.00  0.00    +0.000 A 
ATOM      5  N   UNL     1       9.255  -2.981  -0.248  0.00  0.00    +0.000 N 
ENDROOT
BRANCH   1   9
ATOM      6  C   UNL     1       4.331  -1.357  -0.738  0.00  0.00    +0.000 A 
ATOM      7  C   UNL     1       4.861  -1.876  -1.933  0.00  0.00    +0.000 A 
ATOM      8  C   UNL     1       6.246  -2.103  -2.095  0.00  0.00    +0.000 A 
ATOM      9  C   UNL     1       7.137  -1.840  -1.051  0.00  0.00    +0.000 A 
ATOM     10  C   UNL     1       6.594  -1.343   0.148  0.00  0.00    +0.000 A 
ATOM     11  C   UNL     1       5.208  -1.117   0.329  0.00  0.00    +0.000 A 
ATOM     12  C   UNL     1       4.760  -0.669   1.691  0.00  0.00    +0.000 C 
BRANCH   6  13
ATOM     13  O   UNL     1       2.958  -1.246  -0.695  0.00  0.00    +0.000 OA
BRANCH  13  15
ATOM     14  C   UNL     1       0.912  -0.030  -0.173  0.00  0.00    +0.000 C 
ATOM     15  C   UNL     1       2.432  -0.030  -0.150  0.00  0.00    +0.000 C 
ENDBRANCH  13  15
ENDBRANCH   6  13
ENDBRANCH   1   9
BRANCH   5  16
ATOM     16  C   UNL     1       8.647  -3.749   0.757  0.00  0.00    +0.000 A 
ATOM     17  C   UNL     1       7.701  -4.696   0.398  0.00  0.00    +0.000 A 
ATOM     18  C   UNL     1       7.301  -5.612   1.361  0.00  0.00    +0.000 A 
ATOM     19  C   UNL     1       7.826  -5.513   2.644  0.00  0.00    +0.000 A 
ATOM     20  N   UNL     1       8.666  -4.524   3.020  0.00  0.00    +0.000 NA
ATOM     21  C   UNL     1       9.088  -3.670   2.063  0.00  0.00    +0.000 A 
BRANCH  19  22
ATOM     22  O   UNL     1       7.632  -6.439   3.631  0.00  0.00    +0.000 OA
ATOM     23  C   UNL     1       6.695  -7.463   3.338  0.00  0.00    +0.000 C 
ENDBRANCH  19  22
ENDBRANCH   5  16
BRANCH   4  24
ATOM     24  C   UNL     1      11.683  -3.893  -0.065  0.00  0.00    +0.000 C 
BRANCH  24  25
ATOM     25  O   UNL     1      11.108  -4.828   0.841  0.00  0.00    +0.000 OA
BRANCH  25  26
ATOM     26  C   UNL     1      12.007  -5.550   1.678  0.00  0.00    +0.000 C 
BRANCH  26  27
ATOM     27  C   UNL     1      11.213  -6.272   2.777  0.00  0.00    +0.000 C 
BRANCH  27  28
ATOM     28  O   UNL     1      12.045  -7.168   3.515  0.00  0.00    +0.000 OA
ATOM     29  C   UNL     1      11.288  -7.814   4.538  0.00  0.00    +0.000 C 
ENDBRANCH  27  28
ENDBRANCH  26  27
ENDBRANCH  25  26
ENDBRANCH  24  25
ENDBRANCH   4  24
TORSDOF 10
