REMARK  Name = CHEMBL286895
REMARK  6 active torsions:
REMARK  status: ('A' for Active; 'I' for Inactive)
REMARK    1  A    between atoms: C_2  and  C_3
REMARK    2  A    between atoms: C_3  and  N_4
REMARK    3  A    between atoms: N_17  and  C_18
REMARK    4  A    between atoms: C_18  and  C_19
REMARK    5  A    between atoms: C_23  and  C_24
REMARK    6  A    between atoms: C_29  and  N_30
REMARK                            x       y       z     vdW  Elec       q    Type
REMARK                         _______ _______ _______ _____ _____    ______ ____
ROOT
ATOM      1  C   UNL     1       5.406  -0.772   2.694  0.00  0.00    +0.000 A 
ATOM      2  C   UNL     1       6.693  -1.285   2.546  0.00  0.00    +0.000 A 
ATOM      3  C   UNL     1       6.995  -1.823   3.818  0.00  0.00    +0.000 A 
ATOM      4  C   UNL     1       6.387  -2.795   4.660  0.00  0.00    +0.000 A 
ATOM      5  C   UNL     1       6.647  -2.919   6.039  0.00  0.00    +0.000 A 
ATOM      6  C   UNL     1       7.555  -2.027   6.578  0.00  0.00    +0.000 A 
ATOM      7  C   UNL     1       7.808  -0.842   5.827  0.00  0.00    +0.000 A 
ATOM      8  C   UNL     1       7.119  -0.654   4.555  0.00  0.00    +0.000 A 
ATOM      9  O   UNL     1       5.595  -0.217   4.120  0.00  0.00    +0.000 OA
ENDROOT
BRANCH   5  10
ATOM     10  C   UNL     1       5.846  -3.833   6.922  0.00  0.00    +0.000 C 
ATOM     11  O   UNL     1       6.121  -3.908   8.118  0.00  0.00    +0.000 OA
ATOM     12  N   UNL     1       4.697  -4.418   6.361  0.00  0.00    +0.000 N 
ATOM     13  C   UNL     1       3.386  -4.166   6.954  0.00  0.00    +0.000 C 
ATOM     14  C   UNL     1       2.605  -5.447   7.142  0.00  0.00    +0.000 C 
ATOM     15  C   UNL     1       2.152  -6.051   5.557  0.00  0.00    +0.000 C 
ATOM     16  C   UNL     1       3.821  -6.422   5.223  0.00  0.00    +0.000 C 
ATOM     17  C   UNL     1       4.680  -5.183   5.113  0.00  0.00    +0.000 C 
BRANCH  15  18
ATOM     18  N   UNL     1       0.670  -5.236   4.765  0.00  0.00    +0.000 N 
ATOM     19  C   UNL     1       0.001  -6.094   5.735  0.00  0.00    +0.000 C 
ATOM     20  O   UNL     1       0.202  -6.224   6.973  0.00  0.00    +0.000 OA
ATOM     21  O   UNL     1      -0.816  -6.999   5.234  0.00  0.00    +0.000 OA
ATOM     22  C   UNL     1      -1.980  -6.293   5.444  0.00  0.00    +0.000 C 
ATOM     23  C   UNL     1      -1.972  -5.886   4.051  0.00  0.00    +0.000 A 
ATOM     24  C   UNL     1      -3.069  -6.445   3.227  0.00  0.00    +0.000 A 
ATOM     25  C   UNL     1      -3.453  -6.013   1.984  0.00  0.00    +0.000 A 
ATOM     26  C   UNL     1      -2.919  -4.776   1.746  0.00  0.00    +0.000 A 
ATOM     27  C   UNL     1      -1.675  -4.240   2.641  0.00  0.00    +0.000 A 
ATOM     28  C   UNL     1      -0.864  -5.080   3.709  0.00  0.00    +0.000 A 
ENDBRANCH  15  18
ENDBRANCH   5  10
BRANCH   1  29
ATOM     29  C   UNL     1       4.570  -0.230   1.443  0.00  0.00    +0.000 C 
BRANCH  29  32
ATOM     30  O   UNL     1       1.132   0.013   0.177  0.00  0.00    +0.000 OA
ATOM     31  C   UNL     1       2.366   0.068   0.112  0.00  0.00    +0.000 C 
ATOM     32  N   UNL     1       3.109  -0.301   1.256  0.00  0.00    +0.000 N 
ATOM     33  H   UNL     1       2.521  -0.566   2.037  0.00  0.00    +0.000 HD
BRANCH  31  34
ATOM     34  C   UNL     1       3.071   0.488  -1.236  0.00  0.00    +0.000 C 
BRANCH  34  35
ATOM     35  N   UNL     1       2.161   0.865  -2.378  0.00  0.00    +0.000 N 
ATOM     36  C   UNL     1       1.386  -0.103  -2.984  0.00  0.00    +0.000 A 
ATOM     37  C   UNL     1       0.286   0.233  -3.666  0.00  0.00    +0.000 A 
ATOM     38  C   UNL     1       0.211   1.636  -4.156  0.00  0.00    +0.000 A 
ATOM     39  N   UNL     1      -0.661   1.907  -5.214  0.00  0.00    +0.000 N 
ATOM     40  C   UNL     1      -0.218   2.474  -6.499  0.00  0.00    +0.000 C 
ATOM     41  C   UNL     1      -0.900   3.824  -6.767  0.00  0.00    +0.000 C 
ATOM     42  O   UNL     1      -2.333   3.701  -6.712  0.00  0.00    +0.000 OA
ATOM     43  C   UNL     1      -2.726   3.235  -5.409  0.00  0.00    +0.000 C 
ATOM     44  C   UNL     1      -2.127   1.846  -5.112  0.00  0.00    +0.000 C 
ATOM     45  N   UNL     1       1.011   2.542  -3.670  0.00  0.00    +0.000 NA
ATOM     46  C   UNL     1       1.884   2.220  -2.636  0.00  0.00    +0.000 A 
ATOM     47  O   UNL     1       2.446   3.098  -1.982  0.00  0.00    +0.000 OA
ENDBRANCH  34  35
ENDBRANCH  31  34
ENDBRANCH  29  32
ENDBRANCH   1  29
TORSDOF 6
