REMARK  Name = CHEMBL2369838
REMARK  19 active torsions:
REMARK  status: ('A' for Active; 'I' for Inactive)
REMARK    1  A    between atoms: C_2  and  C_4
REMARK    2  A    between atoms: C_4  and  N_5
REMARK    3  A    between atoms: C_6  and  C_8
REMARK    4  A    between atoms: C_8  and  C_9
REMARK    5  A    between atoms: C_8  and  N_16
REMARK    6  A    between atoms: C_9  and  C_10
REMARK    7  A    between atoms: C_10  and  C_11
REMARK    8  A    between atoms: C_11  and  N_12
REMARK    9  A    between atoms: C_17  and  C_19
REMARK   10  A    between atoms: C_24  and  C_26
REMARK   11  A    between atoms: CA_35  and  CB_36
REMARK   12  A    between atoms: CB_36  and  CG_37
REMARK   13  A    between atoms: CZ_40  and  OH_41
REMARK   14  A    between atoms: CA_47  and  CB_48
REMARK   15  A    between atoms: CB_48  and  CG_49
REMARK   16  A    between atoms: C_58  and  C_59
REMARK   17  A    between atoms: C_59  and  O_60
REMARK   18  A    between atoms: C_64  and  C_65
REMARK   19  A    between atoms: C_65  and  C_66
REMARK                            x       y       z     vdW  Elec       q    Type
REMARK                         _______ _______ _______ _____ _____    ______ ____
ROOT
ATOM      1  C   UNK A   3      12.671   3.458  -0.877  0.00  0.00    +0.000 C 
ATOM      2  C   UNK A   3      13.209   5.741  -0.185  0.00  0.00    +0.000 C 
ATOM      3  S   UNK A   3      12.987   8.148   0.752  0.00  0.00    +0.000 S 
ATOM      4  S   UNK A   3      12.895  10.823   1.251  0.00  0.00    +0.000 S 
ATOM      5  C   UNK A   3      11.063  12.102   1.391  0.00  0.00    +0.000 C 
ATOM      6  C   UNK A   0      10.085  13.204   0.696  0.00  0.00    +0.000 C 
ATOM      7  C   UNK A   0       8.628  12.893   0.224  0.00  0.00    +0.000 C 
ATOM      8  O   UNK A   0       7.776  13.717  -0.079  0.00  0.00    +0.000 OA
ATOM      9  N   TYR A   1       8.292  11.624   0.120  0.00  0.00    +0.000 N 
ATOM     10  CA  TYR A   1       9.298  10.738   0.514  0.00  0.00    +0.000 C 
ATOM     11  C   TYR A   1      10.446  10.559  -0.726  0.00  0.00    +0.000 C 
ATOM     12  O   TYR A   1      11.127  11.507  -1.130  0.00  0.00    +0.000 OA
ATOM     13  N   PHE A   2      11.036   9.485  -1.148  0.00  0.00    +0.000 N 
ATOM     14  CA  PHE A   2      10.447   8.324  -1.139  0.00  0.00    +0.000 C 
ATOM     15  C   PHE A   2      10.438   7.610   0.735  0.00  0.00    +0.000 C 
ATOM     16  O   PHE A   2       9.976   8.061   1.793  0.00  0.00    +0.000 OA
ATOM     17  N   UNK A   3      10.483   6.209   0.905  0.00  0.00    +0.000 N 
ATOM     18  C   UNK A   3      10.614   5.227  -0.094  0.00  0.00    +0.000 C 
ATOM     19  C   UNK A   3       8.993   4.731  -1.211  0.00  0.00    +0.000 C 
ATOM     20  O   UNK A   3       8.156   5.298  -2.056  0.00  0.00    +0.000 OA
ATOM     21  N   UNK A   3       8.965   3.566  -1.721  0.00  0.00    +0.000 N 
ATOM     22  C   UNK A   3      10.038   2.821  -1.304  0.00  0.00    +0.000 C 
ATOM     23  C   UNK A   3      11.941   3.384  -2.111  0.00  0.00    +0.000 C 
ATOM     24  O   UNK A   3      12.672   4.465  -2.388  0.00  0.00    +0.000 OA
ATOM     25  N   UNK A   3      13.028   2.649  -2.049  0.00  0.00    +0.000 N 
ATOM     26  H   TYR A   1       7.331  11.343  -0.154  0.00  0.00    +0.000 HD
ATOM     27  H   PHE A   2      11.701   9.534  -1.882  0.00  0.00    +0.000 HD
ATOM     28  H   UNK A   3      10.472   5.735   1.765  0.00  0.00    +0.000 HD
ATOM     29  H   UNK A   3       8.674   3.606  -2.693  0.00  0.00    +0.000 HD
ATOM     30  H   UNK A   3      13.177   1.613  -2.471  0.00  0.00    +0.000 HD
ENDROOT
BRANCH   1  36
ATOM     31  C   UNK A   3       9.213   1.599  -4.302  0.00  0.00    +0.000 C 
ATOM     32  C   UNK A   3       7.670   1.962  -4.060  0.00  0.00    +0.000 C 
ATOM     33  C   UNK A   3       6.992   0.698  -4.305  0.00  0.00    +0.000 C 
ATOM     34  C   UNK A   3       8.507  -0.282  -3.553  0.00  0.00    +0.000 C 
ATOM     35  N   UNK A   3      10.199   0.761  -3.051  0.00  0.00    +0.000 N 
ATOM     36  C   UNK A   3      11.497   1.662  -1.682  0.00  0.00    +0.000 C 
ATOM     37  O   UNK A   3      11.666   0.361  -1.673  0.00  0.00    +0.000 OA
BRANCH  31  39
ATOM     38  N   UNK A   3      10.250   3.808  -4.567  0.00  0.00    +0.000 N 
ATOM     39  C   UNK A   3      10.009   2.663  -4.163  0.00  0.00    +0.000 C 
ATOM     40  O   UNK A   3      10.752   2.537  -3.279  0.00  0.00    +0.000 OA
ATOM     41  H   UNK A   3       9.887   3.986  -5.413  0.00  0.00    +0.000 HD
BRANCH  38  42
ATOM     42  C   UNK A   3      11.355   4.536  -4.129  0.00  0.00    +0.000 C 
BRANCH  42  44
ATOM     43  N   UNK A   3       9.779   5.964  -2.773  0.00  0.00    +0.000 N 
ATOM     44  C   UNK A   3      10.707   5.100  -2.990  0.00  0.00    +0.000 C 
ATOM     45  O   UNK A   3      10.785   4.680  -1.889  0.00  0.00    +0.000 OA
ATOM     46  H   UNK A   3       9.504   6.420  -3.523  0.00  0.00    +0.000 HD
BRANCH  43  47
ATOM     47  C   UNK A   3       9.083   6.751  -1.160  0.00  0.00    +0.000 C 
BRANCH  47  49
ATOM     48  N   UNK A   3       7.305   8.274  -0.360  0.00  0.00    +0.000 N 
ATOM     49  C   UNK A   3       8.195   8.092  -1.386  0.00  0.00    +0.000 C 
ATOM     50  O   UNK A   3       8.596   9.038  -2.204  0.00  0.00    +0.000 OA
ATOM     51  H   UNK A   3       7.016   9.471  -0.222  0.00  0.00    +0.000 HD
ATOM     52  H   UNK A   3       7.955   7.903   0.549  0.00  0.00    +0.000 HD
ENDBRANCH  47  49
ENDBRANCH  43  47
ENDBRANCH  42  44
BRANCH  42  53
ATOM     53  C   UNK A   3      11.681   5.755  -4.766  0.00  0.00    +0.000 C 
BRANCH  53  54
ATOM     54  C   UNK A   3      12.849   6.483  -4.099  0.00  0.00    +0.000 C 
BRANCH  54  55
ATOM     55  C   UNK A   3      13.485   7.590  -4.926  0.00  0.00    +0.000 C 
BRANCH  55  56
ATOM     56  N   UNK A   3      14.109   8.764  -4.222  0.00  0.00    +0.000 NA
ATOM     57  C   UNK A   3      14.223   9.928  -4.787  0.00  0.00    +0.000 C 
ATOM     58  N   UNK A   3      13.768  10.323  -6.026  0.00  0.00    +0.000 N 
ATOM     59  N   UNK A   3      15.032  10.815  -4.153  0.00  0.00    +0.000 N 
ATOM     60  H   UNK A   3      13.147   9.767  -6.618  0.00  0.00    +0.000 HD
ATOM     61  H   UNK A   3      13.875  11.220  -6.455  0.00  0.00    +0.000 HD
ATOM     62  H   UNK A   3      15.469  10.557  -3.266  0.00  0.00    +0.000 HD
ATOM     63  H   UNK A   3      15.372  11.665  -4.564  0.00  0.00    +0.000 HD
ENDBRANCH  55  56
ENDBRANCH  54  55
ENDBRANCH  53  54
ENDBRANCH  42  53
ENDBRANCH  38  42
ENDBRANCH  31  39
ENDBRANCH   1  36
BRANCH  10  64
ATOM     64  CB  TYR A   1       8.597   9.645   0.266  0.00  0.00    +0.000 C 
BRANCH  64  65
ATOM     65  CG  TYR A   1       7.475   9.216   1.661  0.00  0.00    +0.000 A 
ATOM     66  CD1 TYR A   1       6.659  10.237   1.913  0.00  0.00    +0.000 A 
ATOM     67  CE1 TYR A   1       5.532  10.001   2.634  0.00  0.00    +0.000 A 
ATOM     68  CZ  TYR A   1       5.078   8.727   2.985  0.00  0.00    +0.000 A 
ATOM     69  CE2 TYR A   1       5.705   7.584   2.588  0.00  0.00    +0.000 A 
ATOM     70  CD2 TYR A   1       6.880   7.780   1.934  0.00  0.00    +0.000 A 
BRANCH  68  71
ATOM     71  OH  TYR A   1       3.982   8.539   3.761  0.00  0.00    +0.000 OA
ATOM     72  HH  TYR A   1       3.577   9.378   4.025  0.00  0.00    +0.000 HD
ENDBRANCH  68  71
ENDBRANCH  64  65
ENDBRANCH  10  64
BRANCH  14  73
ATOM     73  CB  PHE A   2      11.116   7.480  -2.086  0.00  0.00    +0.000 C 
BRANCH  73  74
ATOM     74  CG  PHE A   2      10.515   8.003  -3.560  0.00  0.00    +0.000 A 
ATOM     75  CD1 PHE A   2      11.426   8.761  -3.958  0.00  0.00    +0.000 A 
ATOM     76  CE1 PHE A   2      11.186   9.193  -5.224  0.00  0.00    +0.000 A 
ATOM     77  CZ  PHE A   2      10.259   8.852  -6.144  0.00  0.00    +0.000 A 
ATOM     78  CE2 PHE A   2       9.179   8.336  -5.578  0.00  0.00    +0.000 A 
ATOM     79  CD2 PHE A   2       9.254   7.902  -4.312  0.00  0.00    +0.000 A 
ENDBRANCH  73  74
ENDBRANCH  14  73
BRANCH  18  80
ATOM     80  C   UNK A   3      11.245   4.110   0.615  0.00  0.00    +0.000 C 
BRANCH  80  81
ATOM     81  O   UNK A   3      12.478   4.188   1.296  0.00  0.00    +0.000 OA
ATOM     82  H   UNK A   3      13.263   4.431   0.763  0.00  0.00    +0.000 HD
ENDBRANCH  80  81
ENDBRANCH  18  80
BRANCH  22  83
ATOM     83  C   UNK A   3       9.223   1.430  -1.307  0.00  0.00    +0.000 C 
BRANCH  83  84
ATOM     84  C   UNK A   3       7.797   1.268  -1.215  0.00  0.00    +0.000 C 
ATOM     85  N   UNK A   3       7.279   2.377  -0.698  0.00  0.00    +0.000 N 
ATOM     86  O   UNK A   3       7.144   0.350  -1.664  0.00  0.00    +0.000 OA
ATOM     87  H   UNK A   3       7.872   3.183  -0.551  0.00  0.00    +0.000 HD
ATOM     88  H   UNK A   3       6.310   2.451  -0.619  0.00  0.00    +0.000 HD
ENDBRANCH  83  84
ENDBRANCH  22  83
TORSDOF 19
