REMARK  Name = CHEMBL2037499
REMARK  11 active torsions:
REMARK  status: ('A' for Active; 'I' for Inactive)
REMARK    1  A    between atoms: CD1_1  and  CG1_2
REMARK    2  A    between atoms: CG1_2  and  CB_3
REMARK    3  A    between atoms: CB_3  and  CG2_4
REMARK    4  A    between atoms: CB_3  and  CA_5
REMARK    5  A    between atoms: C_9  and  C_10
REMARK    6  A    between atoms: N_21  and  C_22
REMARK    7  A    between atoms: C_22  and  C_23
REMARK    8  A    between atoms: C_22  and  C_28
REMARK    9  A    between atoms: N_25  and  C_26
REMARK   10  A    between atoms: N_25  and  C_27
REMARK   11  A    between atoms: C_31  and  C_32
REMARK                            x       y       z     vdW  Elec       q    Type
REMARK                         _______ _______ _______ _____ _____    ______ ____
ROOT
ATOM      1  CA  ILE A   2       4.898   1.180   1.257  0.00  0.00    +0.000 C 
ATOM      2  C   ILE A   2       5.389   2.201   0.131  0.00  0.00    +0.000 C 
ATOM      3  O   ILE A   2       4.817   3.158  -0.325  0.00  0.00    +0.000 OA
ATOM      4  N   UNK A   1       6.529   1.800  -0.454  0.00  0.00    +0.000 N 
ATOM      5  C   UNK A   1       7.334   0.797   0.153  0.00  0.00    +0.000 C 
ATOM      6  C   UNK A   1       6.526  -0.494   0.442  0.00  0.00    +0.000 C 
ATOM      7  O   UNK A   1       7.113  -1.539   0.335  0.00  0.00    +0.000 OA
ATOM      8  N   ILE A   2       5.189  -0.301   0.891  0.00  0.00    +0.000 N 
ATOM      9  H   UNK A   1       6.774   2.373  -1.252  0.00  0.00    +0.000 HD
ENDROOT
BRANCH   5  10
ATOM     10  C   UNK A   1       8.502   0.414  -0.762  0.00  0.00    +0.000 C 
ATOM     11  C   UNK A   1       9.356   1.649  -1.081  0.00  0.00    +0.000 C 
ATOM     12  C   UNK A   1       8.714   2.133  -2.349  0.00  0.00    +0.000 A 
ATOM     13  C   UNK A   1       8.705   3.424  -2.845  0.00  0.00    +0.000 A 
ATOM     14  C   UNK A   1       7.913   3.696  -3.962  0.00  0.00    +0.000 A 
ATOM     15  C   UNK A   1       7.129   2.691  -4.553  0.00  0.00    +0.000 A 
ATOM     16  C   UNK A   1       7.119   1.396  -4.032  0.00  0.00    +0.000 A 
ATOM     17  C   UNK A   1       7.925   1.130  -2.937  0.00  0.00    +0.000 A 
ATOM     18  C   UNK A   1       7.986  -0.131  -2.128  0.00  0.00    +0.000 C 
ENDBRANCH   5  10
BRANCH   1  19
ATOM     19  CB  ILE A   2       3.444   1.517   1.190  0.00  0.00    +0.000 C 
ATOM     20  CG2 ILE A   2       3.397   1.051  -0.611  0.00  0.00    +0.000 C 
BRANCH  19  22
ATOM     21  CD1 ILE A   2       0.908   0.136   2.854  0.00  0.00    +0.000 C 
ATOM     22  CG1 ILE A   2       2.535   0.881   2.738  0.00  0.00    +0.000 C 
ENDBRANCH  19  22
ENDBRANCH   1  19
BRANCH   8  23
ATOM     23  C   UNK A   0       4.078  -1.552   0.892  0.00  0.00    +0.000 C 
BRANCH  23  24
ATOM     24  C   UNK A   0       4.855  -2.929   0.819  0.00  0.00    +0.000 A 
ATOM     25  C   UNK A   0       5.900  -3.265   1.711  0.00  0.00    +0.000 A 
ATOM     26  C   UNK A   0       6.720  -4.381   1.467  0.00  0.00    +0.000 A 
ATOM     27  C   UNK A   0       6.405  -5.222   0.413  0.00  0.00    +0.000 A 
ATOM     28  C   UNK A   0       7.133  -6.483   0.116  0.00  0.00    +0.000 C 
ATOM     29  N   UNK A   0       5.383  -4.978  -0.412  0.00  0.00    +0.000 NA
ATOM     30  C   UNK A   0       4.680  -3.845  -0.215  0.00  0.00    +0.000 A 
ENDBRANCH  23  24
BRANCH  23  31
ATOM     31  C   UNK A   0       2.600  -1.662  -0.211  0.00  0.00    +0.000 C 
ATOM     32  O   UNK A   0       2.617  -2.387  -1.212  0.00  0.00    +0.000 OA
ATOM     33  N   UNK A   0       1.421  -0.795  -0.161  0.00  0.00    +0.000 N 
ATOM     34  C   UNK A   0       1.450   0.401   0.529  0.00  0.00    +0.000 C 
ATOM     35  C   UNK A   0       0.598  -0.605  -1.317  0.00  0.00    +0.000 C 
ENDBRANCH  23  31
ENDBRANCH   8  23
TORSDOF 6
