REMARK  Name = CHEMBL262384
REMARK  7 active torsions:
REMARK  status: ('A' for Active; 'I' for Inactive)
REMARK    1  A    between atoms: C_1  and  N_2
REMARK    2  A    between atoms: N_6  and  C_7
REMARK    3  A    between atoms: C_7  and  C_8
REMARK    4  A    between atoms: N_10  and  C_11
REMARK    5  A    between atoms: C_11  and  C_12
REMARK    6  A    between atoms: C_16  and  C_17
REMARK    7  A    between atoms: C_22  and  N_23
REMARK                            x       y       z     vdW  Elec       q    Type
REMARK                         _______ _______ _______ _____ _____    ______ ____
ROOT
ATOM      1  C   UNL     1       7.842  -6.146  -0.606  0.00  0.00    +0.000 A 
ATOM      2  C   UNL     1       7.920  -7.527  -0.588  0.00  0.00    +0.000 A 
ATOM      3  C   UNL     1       9.250  -7.871  -0.927  0.00  0.00    +0.000 A 
ATOM      4  C   UNL     1       9.965  -9.075  -1.104  0.00  0.00    +0.000 A 
ATOM      5  C   UNL     1      11.321  -9.020  -1.480  0.00  0.00    +0.000 A 
ATOM      6  C   UNL     1      11.923  -7.769  -1.698  0.00  0.00    +0.000 A 
ATOM      7  C   UNL     1      11.241  -6.563  -1.489  0.00  0.00    +0.000 A 
ATOM      8  C   UNL     1       9.907  -6.660  -1.116  0.00  0.00    +0.000 A 
ATOM      9  O   UNL     1       9.059  -5.609  -0.909  0.00  0.00    +0.000 OA
ENDROOT
BRANCH   5  10
ATOM     10  C   UNL     1      12.048 -10.313  -1.738  0.00  0.00    +0.000 C 
ATOM     11  O   UNL     1      11.442 -11.381  -1.726  0.00  0.00    +0.000 OA
ATOM     12  N   UNL     1      13.387 -10.237  -2.089  0.00  0.00    +0.000 N 
ATOM     13  C   UNL     1      13.853 -10.893  -3.306  0.00  0.00    +0.000 C 
ATOM     14  C   UNL     1      14.954 -11.892  -3.018  0.00  0.00    +0.000 C 
ATOM     15  C   UNL     1      16.089 -11.252  -2.194  0.00  0.00    +0.000 C 
ATOM     16  C   UNL     1      15.526 -10.621  -0.915  0.00  0.00    +0.000 C 
ATOM     17  C   UNL     1      14.385  -9.658  -1.194  0.00  0.00    +0.000 C 
BRANCH  15  18
ATOM     18  N   UNL     1      16.999 -10.383  -3.012  0.00  0.00    +0.000 N 
ATOM     19  C   UNL     1      16.587  -9.240  -3.705  0.00  0.00    +0.000 C 
ATOM     20  O   UNL     1      15.803  -8.378  -3.338  0.00  0.00    +0.000 OA
ATOM     21  O   UNL     1      17.072  -9.169  -4.971  0.00  0.00    +0.000 OA
ATOM     22  C   UNL     1      18.472  -8.998  -4.977  0.00  0.00    +0.000 C 
ATOM     23  C   UNL     1      19.140  -9.997  -4.087  0.00  0.00    +0.000 A 
ATOM     24  C   UNL     1      20.517 -10.196  -4.205  0.00  0.00    +0.000 A 
ATOM     25  C   UNL     1      21.160 -11.096  -3.368  0.00  0.00    +0.000 A 
ATOM     26  C   UNL     1      20.432 -11.788  -2.405  0.00  0.00    +0.000 A 
ATOM     27  C   UNL     1      19.055 -11.589  -2.281  0.00  0.00    +0.000 A 
ATOM     28  C   UNL     1      18.390 -10.697  -3.126  0.00  0.00    +0.000 A 
ENDBRANCH  15  18
ENDBRANCH   5  10
BRANCH   1  29
ATOM     29  C   UNL     1       6.691  -5.253  -0.346  0.00  0.00    +0.000 C 
BRANCH  29  32
ATOM     30  C   UNL     1       5.797  -3.035  -0.459  0.00  0.00    +0.000 C 
ATOM     31  O   UNL     1       4.807  -3.575   0.025  0.00  0.00    +0.000 OA
ATOM     32  N   UNL     1       6.887  -3.852  -0.693  0.00  0.00    +0.000 N 
ATOM     33  H   UNL     1       7.783  -3.544  -1.046  0.00  0.00    +0.000 HD
BRANCH  30  34
ATOM     34  C   UNL     1       5.857  -1.527  -0.802  0.00  0.00    +0.000 C 
BRANCH  34  40
ATOM     35  C   UNL     1       1.201   0.061   0.115  0.00  0.00    +0.000 C 
ATOM     36  N   UNL     1       2.647   0.077   0.068  0.00  0.00    +0.000 N 
ATOM     37  C   UNL     1       3.461   1.251   0.078  0.00  0.00    +0.000 C 
ATOM     38  C   UNL     1       4.647   0.676  -0.685  0.00  0.00    +0.000 C 
ATOM     39  O   UNL     1       5.450   1.343  -1.322  0.00  0.00    +0.000 OA
ATOM     40  N   UNL     1       4.686  -0.682  -0.450  0.00  0.00    +0.000 N 
ATOM     41  C   UNL     1       3.421  -1.060  -0.069  0.00  0.00    +0.000 C 
ATOM     42  O   UNL     1       2.918  -2.160   0.106  0.00  0.00    +0.000 OA
ENDBRANCH  34  40
ENDBRANCH  30  34
ENDBRANCH  29  32
ENDBRANCH   1  29
TORSDOF 6
