REMARK  Name = CHEMBL2112376
REMARK  12 active torsions:
REMARK  status: ('A' for Active; 'I' for Inactive)
REMARK    1  A    between atoms: C_1  and  C_2
REMARK    2  A    between atoms: C_2  and  C_3
REMARK    3  A    between atoms: C_3  and  C_4
REMARK    4  A    between atoms: C_3  and  C_5
REMARK    5  A    between atoms: C_9  and  C_10
REMARK    6  A    between atoms: C_10  and  C_11
REMARK    7  A    between atoms: C_10  and  C_12
REMARK    8  A    between atoms: C_12  and  C_13
REMARK    9  A    between atoms: C_17  and  C_18
REMARK   10  A    between atoms: C_18  and  C_19
REMARK   11  A    between atoms: C_43  and  C_44
REMARK   12  A    between atoms: C_44  and  C_45
REMARK                            x       y       z     vdW  Elec       q    Type
REMARK                         _______ _______ _______ _____ _____    ______ ____
ROOT
ATOM      1  C   UNL     1       0.529   2.804  -2.358  0.00  0.00    +0.000 C 
ATOM      2  N   UNL     1      -1.569   3.990  -2.796  0.00  0.00    +0.000 N 
ATOM      3  C   UNL     1      -3.104   5.153  -3.712  0.00  0.00    +0.000 C 
ATOM      4  O   UNL     1      -4.330   4.676  -4.200  0.00  0.00    +0.000 OA
ATOM      5  C   UNL     1      -4.503   6.614  -4.870  0.00  0.00    +0.000 C 
ATOM      6  N   UNL     1      -4.021   6.757  -6.092  0.00  0.00    +0.000 N 
ATOM      7  C   UNL     1      -4.106   5.615  -6.679  0.00  0.00    +0.000 C 
ATOM      8  O   UNL     1      -2.997   5.445  -7.201  0.00  0.00    +0.000 OA
ATOM      9  C   UNL     1      -5.438   4.533  -6.405  0.00  0.00    +0.000 C 
ATOM     10  N   UNL     1      -5.674   3.948  -7.725  0.00  0.00    +0.000 N 
ATOM     11  C   UNL     1      -4.768   3.180  -8.448  0.00  0.00    +0.000 C 
ATOM     12  O   UNL     1      -5.039   2.771  -9.579  0.00  0.00    +0.000 OA
ATOM     13  C   UNL     1      -3.411   2.828  -7.868  0.00  0.00    +0.000 C 
ATOM     14  C   UNL     1      -3.213   3.135  -6.465  0.00  0.00    +0.000 C 
ATOM     15  C   UNL     1      -1.838   2.933  -6.135  0.00  0.00    +0.000 C 
ATOM     16  S   UNL     1      -1.708   3.819  -4.836  0.00  0.00    +0.000 S 
ATOM     17  C   UNL     1      -0.179   3.606  -3.903  0.00  0.00    +0.000 C 
ATOM     18  C   UNL     1       0.046   4.499  -2.021  0.00  0.00    +0.000 C 
ATOM     19  C   UNL     1      -0.141   5.883  -2.132  0.00  0.00    +0.000 C 
ATOM     20  C   UNL     1       0.794   6.298  -1.041  0.00  0.00    +0.000 C 
ATOM     21  C   UNL     1       1.385   5.176  -0.264  0.00  0.00    +0.000 C 
ATOM     22  N   UNL     1       1.407   4.375  -1.353  0.00  0.00    +0.000 N 
ATOM     23  C   UNL     1       2.946   4.004  -1.798  0.00  0.00    +0.000 C 
ATOM     24  O   UNL     1       3.769   3.481  -0.800  0.00  0.00    +0.000 OA
ATOM     25  C   UNL     1       2.621   2.662  -3.346  0.00  0.00    +0.000 C 
ATOM     26  N   UNL     1       3.848   2.384  -3.588  0.00  0.00    +0.000 N 
ATOM     27  C   UNL     1       2.731   2.310  -2.553  0.00  0.00    +0.000 C 
ATOM     28  O   UNL     1       4.169   1.969  -2.142  0.00  0.00    +0.000 OA
ATOM     29  H   UNL     1      -2.467   4.891  -2.450  0.00  0.00    +0.000 HD
ATOM     30  H   UNL     1      -3.304   7.394  -6.096  0.00  0.00    +0.000 HD
ATOM     31  H   UNL     1      -6.577   4.158  -8.125  0.00  0.00    +0.000 HD
ATOM     32  H   UNL     1       4.408   3.071  -4.007  0.00  0.00    +0.000 HD
ENDROOT
BRANCH   1  33
ATOM     33  C   UNL     1       1.773   1.441  -1.238  0.00  0.00    +0.000 C 
ATOM     34  C   UNL     1       1.818   2.338  -0.206  0.00  0.00    +0.000 C 
BRANCH  33  36
ATOM     35  C   UNL     1       0.854  -0.060   0.118  0.00  0.00    +0.000 C 
ATOM     36  C   UNL     1       2.277   0.138   0.014  0.00  0.00    +0.000 C 
ENDBRANCH  33  36
ENDBRANCH   1  33
BRANCH   5  37
ATOM     37  C   UNL     1      -6.077   7.175  -6.293  0.00  0.00    +0.000 C 
ATOM     38  C   UNL     1      -6.039   8.010  -7.755  0.00  0.00    +0.000 C 
BRANCH  37  39
ATOM     39  C   UNL     1      -7.829   7.770  -6.007  0.00  0.00    +0.000 C 
ATOM     40  C   UNL     1      -7.734   9.220  -5.665  0.00  0.00    +0.000 C 
ENDBRANCH  37  39
ENDBRANCH   5  37
BRANCH   9  41
ATOM     41  C   UNL     1      -6.659   5.040  -5.586  0.00  0.00    +0.000 C 
BRANCH  41  42
ATOM     42  C   UNL     1      -6.713   5.726  -4.040  0.00  0.00    +0.000 A 
ATOM     43  C   UNL     1      -6.564   7.044  -3.500  0.00  0.00    +0.000 A 
ATOM     44  N   UNL     1      -6.195   7.095  -2.144  0.00  0.00    +0.000 N 
ATOM     45  C   UNL     1      -5.848   5.810  -1.906  0.00  0.00    +0.000 A 
ATOM     46  C   UNL     1      -5.360   5.291  -0.775  0.00  0.00    +0.000 A 
ATOM     47  C   UNL     1      -5.116   3.949  -0.745  0.00  0.00    +0.000 A 
ATOM     48  C   UNL     1      -5.242   3.110  -1.819  0.00  0.00    +0.000 A 
ATOM     49  C   UNL     1      -5.780   3.589  -2.966  0.00  0.00    +0.000 A 
ATOM     50  C   UNL     1      -6.229   4.957  -2.961  0.00  0.00    +0.000 A 
ATOM     51  H   UNL     1      -6.010   8.050  -1.840  0.00  0.00    +0.000 HD
ENDBRANCH  41  42
ENDBRANCH   9  41
BRANCH  25  52
ATOM     52  C   UNL     1       2.112   0.662  -3.395  0.00  0.00    +0.000 C 
BRANCH  52  53
ATOM     53  C   UNL     1       2.875  -0.611  -3.631  0.00  0.00    +0.000 C 
ATOM     54  N   UNL     1       4.207  -0.610  -3.853  0.00  0.00    +0.000 N 
ATOM     55  O   UNL     1       2.176  -1.630  -3.659  0.00  0.00    +0.000 OA
ATOM     56  H   UNL     1       4.807   0.206  -3.726  0.00  0.00    +0.000 HD
ATOM     57  H   UNL     1       4.663  -1.463  -4.149  0.00  0.00    +0.000 HD
ENDBRANCH  52  53
ENDBRANCH  25  52
TORSDOF 8
