REMARK  Name = CHEMBL3392901
REMARK  14 active torsions:
REMARK  status: ('A' for Active; 'I' for Inactive)
REMARK    1  A    between atoms: C_1  and  C_2
REMARK    2  A    between atoms: C_7  and  N_8
REMARK    3  A    between atoms: N_11  and  S_12
REMARK    4  A    between atoms: S_12  and  C_15
REMARK    5  A    between atoms: C_15  and  C_16
REMARK    6  A    between atoms: C_21  and  N_22
REMARK    7  A    between atoms: C_23  and  C_25
REMARK    8  A    between atoms: C_25  and  N_26
REMARK    9  A    between atoms: C_25  and  C_27
REMARK   10  A    between atoms: C_27  and  C_28
REMARK   11  A    between atoms: C_28  and  S_29
REMARK   12  A    between atoms: S_29  and  C_30
REMARK   13  A    between atoms: C_33  and  C_34
REMARK   14  A    between atoms: C_33  and  C_35
REMARK                            x       y       z     vdW  Elec       q    Type
REMARK                         _______ _______ _______ _____ _____    ______ ____
ROOT
ATOM      1  C   UNL     1       3.055   7.026  -3.252  0.00  0.00    +0.000 C 
ATOM      2  C   UNL     1       2.118   6.533  -4.421  0.00  0.00    +0.000 C 
ATOM      3  C   UNL     1       1.435   7.833  -4.907  0.00  0.00    +0.000 C 
ATOM      4  C   UNL     1       2.061   8.906  -3.994  0.00  0.00    +0.000 C 
ATOM      5  C   UNL     1       3.516   9.102  -4.447  0.00  0.00    +0.000 C 
ATOM      6  C   UNL     1       4.219   7.799  -3.980  0.00  0.00    +0.000 C 
ATOM      7  C   UNL     1       2.190   8.187  -2.634  0.00  0.00    +0.000 C 
ATOM      8  C   UNL     1       2.919   9.039  -1.579  0.00  0.00    +0.000 C 
ATOM      9  C   UNL     1       0.762   7.854  -2.115  0.00  0.00    +0.000 C 
ENDROOT
BRANCH   6  10
ATOM     10  N   UNL     1       5.391   8.050  -3.144  0.00  0.00    +0.000 N 
ATOM     11  C   UNL     1       6.477   8.747  -3.633  0.00  0.00    +0.000 C 
ATOM     12  O   UNL     1       6.539   9.122  -4.800  0.00  0.00    +0.000 OA
ATOM     13  H   UNL     1       5.336   7.931  -2.140  0.00  0.00    +0.000 HD
BRANCH  11  14
ATOM     14  C   UNL     1       7.600   9.014  -2.598  0.00  0.00    +0.000 C 
BRANCH  14  15
ATOM     15  N   UNL     1       8.123   7.738  -2.070  0.00  0.00    +0.000 NA
ATOM     16  H   UNL     1       8.440   7.161  -2.850  0.00  0.00    +0.000 HD
ATOM     17  H   UNL     1       7.385   7.212  -1.608  0.00  0.00    +0.000 HD
ENDBRANCH  14  15
BRANCH  14  18
ATOM     18  C   UNL     1       8.731   9.789  -3.283  0.00  0.00    +0.000 C 
BRANCH  18  19
ATOM     19  C   UNL     1       9.908  10.084  -2.368  0.00  0.00    +0.000 C 
BRANCH  19  20
ATOM     20  S   UNL     1      11.193  11.024  -3.185  0.00  0.00    +0.000 S 
ATOM     21  C   UNL     1      11.748  10.004  -4.538  0.00  0.00    +0.000 C 
ATOM     22  O   UNL     1      10.589  12.216  -3.748  0.00  0.00    +0.000 OA
ATOM     23  O   UNL     1      12.300  11.135  -2.253  0.00  0.00    +0.000 OA
ENDBRANCH  19  20
ENDBRANCH  18  19
ENDBRANCH  14  18
ENDBRANCH  11  14
ENDBRANCH   6  10
BRANCH   1  24
ATOM     24  C   UNL     1       3.585   5.905  -2.323  0.00  0.00    +0.000 C 
BRANCH  24  25
ATOM     25  S   UNL     1       2.506   5.614  -0.921  0.00  0.00    +0.000 S 
ATOM     26  O   UNL     1       1.248   5.224  -1.494  0.00  0.00    +0.000 OA
ATOM     27  O   UNL     1       2.579   6.700   0.038  0.00  0.00    +0.000 OA
BRANCH  25  31
ATOM     28  N   UNL     1       1.057   2.379  -0.023  0.00  0.00    +0.000 N 
ATOM     29  C   UNL     1       0.831   3.570   0.810  0.00  0.00    +0.000 C 
ATOM     30  C   UNL     1       2.230   4.127   1.212  0.00  0.00    +0.000 C 
ATOM     31  N   UNL     1       3.121   4.345  -0.028  0.00  0.00    +0.000 NA
ATOM     32  C   UNL     1       3.267   3.072  -0.768  0.00  0.00    +0.000 C 
ATOM     33  C   UNL     1       1.894   2.548  -1.216  0.00  0.00    +0.000 C 
BRANCH  28  40
ATOM     34  C   UNL     1       2.501  -0.116   0.054  0.00  0.00    +0.000 C 
ATOM     35  C   UNL     1       0.995  -0.028   0.023  0.00  0.00    +0.000 A 
ATOM     36  C   UNL     1       0.262  -1.217   0.008  0.00  0.00    +0.000 A 
ATOM     37  C   UNL     1      -1.127  -1.189   0.004  0.00  0.00    +0.000 A 
ATOM     38  C   UNL     1      -1.798   0.032   0.017  0.00  0.00    +0.000 A 
ATOM     39  C   UNL     1      -1.078   1.230   0.048  0.00  0.00    +0.000 A 
ATOM     40  C   UNL     1       0.322   1.219   0.037  0.00  0.00    +0.000 A 
ENDBRANCH  28  40
ENDBRANCH  25  31
ENDBRANCH  24  25
ENDBRANCH   1  24
TORSDOF 10
