REMARK  Name = CHEMBL2369424
REMARK  24 active torsions:
REMARK  status: ('A' for Active; 'I' for Inactive)
REMARK    1  A    between atoms: CD1_1  and  CG1_2
REMARK    2  A    between atoms: CG1_2  and  CB_3
REMARK    3  A    between atoms: CB_3  and  CG2_4
REMARK    4  A    between atoms: CB_3  and  CA_5
REMARK    5  A    between atoms: CA_9  and  CB_10
REMARK    6  A    between atoms: CB_10  and  CG_11
REMARK    7  A    between atoms: CZ_14  and  OH_15
REMARK    8  A    between atoms: CA_21  and  N_22
REMARK    9  A    between atoms: CA_26  and  C_27
REMARK   10  A    between atoms: CA_33  and  C_34
REMARK   11  A    between atoms: N_36  and  CA_37
REMARK   12  A    between atoms: CA_37  and  CB_38
REMARK   13  A    between atoms: CA_37  and  C_42
REMARK   14  A    between atoms: CB_38  and  CG_39
REMARK   15  A    between atoms: CG_39  and  CD1_40
REMARK   16  A    between atoms: CG_39  and  CD2_41
REMARK   17  A    between atoms: N_44  and  CA_45
REMARK   18  A    between atoms: CA_45  and  C_46
REMARK   19  A    between atoms: C_46  and  OXT_48
REMARK   20  A    between atoms: CA_52  and  CB_53
REMARK   21  A    between atoms: CB_53  and  CG_54
REMARK   22  A    between atoms: CA_60  and  CB_61
REMARK   23  A    between atoms: CB_61  and  CG_62
REMARK   24  A    between atoms: CG_62  and  CD_63
REMARK                            x       y       z     vdW  Elec       q    Type
REMARK                         _______ _______ _______ _____ _____    ______ ____
ROOT
ATOM      1  CA  ILE A   3       5.049   3.233   2.415  0.00  0.00    +0.000 C 
ATOM      2  N   ILE A   3       5.127   4.594   3.863  0.00  0.00    +0.000 N 
ATOM      3  C   TYR A   2       4.945   6.021   5.002  0.00  0.00    +0.000 C 
ATOM      4  O   TYR A   2       5.038   5.811   6.258  0.00  0.00    +0.000 OA
ATOM      5  CA  TYR A   2       4.729   7.995   4.982  0.00  0.00    +0.000 C 
ATOM      6  N   TYR A   2       3.941   7.786   3.953  0.00  0.00    +0.000 N 
ATOM      7  C   CYS A   1       2.957   7.058   4.459  0.00  0.00    +0.000 C 
ATOM      8  O   CYS A   1       3.052   6.442   3.458  0.00  0.00    +0.000 OA
ATOM      9  CA  CYS A   1       2.198   6.568   5.737  0.00  0.00    +0.000 C 
ATOM     10  CB  CYS A   1       0.715   6.928   5.538  0.00  0.00    +0.000 C 
ATOM     11  SG  CYS A   6      -0.410   5.574   5.279  0.00  0.00    +0.000 S 
ATOM     12  CB  CYS A   6      -1.674   5.991   4.049  0.00  0.00    +0.000 C 
ATOM     13  CA  CYS A   6      -2.352   4.880   3.244  0.00  0.00    +0.000 C 
ATOM     14  N   CYS A   6      -1.793   4.834   1.944  0.00  0.00    +0.000 N 
ATOM     15  C   ASN A   5      -0.546   4.617   1.764  0.00  0.00    +0.000 C 
ATOM     16  O   ASN A   5      -0.251   4.705   0.566  0.00  0.00    +0.000 OA
ATOM     17  CA  ASN A   5       0.359   4.128   3.100  0.00  0.00    +0.000 C 
ATOM     18  N   ASN A   5       1.246   2.944   3.118  0.00  0.00    +0.000 N 
ATOM     19  C   GLN A   4       2.852   3.076   2.631  0.00  0.00    +0.000 C 
ATOM     20  O   GLN A   4       3.532   2.312   3.378  0.00  0.00    +0.000 OA
ATOM     21  CA  GLN A   4       3.290   3.762   0.666  0.00  0.00    +0.000 C 
ATOM     22  N   GLN A   4       4.591   4.317   0.353  0.00  0.00    +0.000 N 
ATOM     23  C   ILE A   3       5.555   3.660   1.047  0.00  0.00    +0.000 C 
ATOM     24  O   ILE A   3       6.520   3.152   0.501  0.00  0.00    +0.000 OA
ATOM     25  H   ILE A   3       6.113   4.841   4.159  0.00  0.00    +0.000 HD
ATOM     26  H   TYR A   2       4.401   7.330   3.159  0.00  0.00    +0.000 HD
ATOM     27  H   CYS A   6      -2.231   5.029   1.043  0.00  0.00    +0.000 HD
ATOM     28  H   ASN A   5       0.855   2.269   3.793  0.00  0.00    +0.000 HD
ATOM     29  H   GLN A   4       4.485   5.152   0.921  0.00  0.00    +0.000 HD
ENDROOT
BRANCH  13  30
ATOM     30  C   CYS A   6      -3.826   5.089   3.001  0.00  0.00    +0.000 C 
ATOM     31  O   CYS A   6      -4.136   5.060   1.808  0.00  0.00    +0.000 OA
ATOM     32  N   PRO A   7      -4.680   5.090   4.108  0.00  0.00    +0.000 N 
ATOM     33  CD  PRO A   7      -4.478   5.775   5.367  0.00  0.00    +0.000 C 
ATOM     34  CG  PRO A   7      -5.103   4.841   6.362  0.00  0.00    +0.000 C 
ATOM     35  CB  PRO A   7      -6.383   4.451   5.678  0.00  0.00    +0.000 C 
ATOM     36  CA  PRO A   7      -6.079   4.551   4.183  0.00  0.00    +0.000 C 
BRANCH  36  37
ATOM     37  C   PRO A   7      -7.216   5.573   3.815  0.00  0.00    +0.000 C 
ATOM     38  O   PRO A   7      -6.933   6.762   3.650  0.00  0.00    +0.000 OA
ATOM     39  N   LEU A   8      -8.467   5.019   3.462  0.00  0.00    +0.000 N 
ATOM     40  H   LEU A   8      -8.719   4.065   3.713  0.00  0.00    +0.000 HD
BRANCH  39  41
ATOM     41  CA  LEU A   8      -9.425   5.718   2.535  0.00  0.00    +0.000 C 
BRANCH  41  42
ATOM     42  C   LEU A   8     -10.832   5.027   2.605  0.00  0.00    +0.000 C 
ATOM     43  O   LEU A   8     -10.981   3.976   3.235  0.00  0.00    +0.000 OA
ATOM     44  N   GLY A   9     -11.895   5.613   1.937  0.00  0.00    +0.000 N 
ATOM     45  H   GLY A   9     -11.787   6.473   1.400  0.00  0.00    +0.000 HD
BRANCH  44  46
ATOM     46  CA  GLY A   9     -13.258   5.039   1.966  0.00  0.00    +0.000 C 
BRANCH  46  47
ATOM     47  C   GLY A   9     -14.246   5.892   1.160  0.00  0.00    +0.000 C 
ATOM     48  O   GLY A   9     -13.902   6.914   0.576  0.00  0.00    +0.000 OA
BRANCH  47  49
ATOM     49  OXT GLY A   9     -15.531   5.468   1.118  0.00  0.00    +0.000 OA
ATOM     50  HXT GLY A   9     -15.794   4.653   1.586  0.00  0.00    +0.000 HD
ENDBRANCH  47  49
ENDBRANCH  46  47
ENDBRANCH  44  46
ENDBRANCH  41  42
BRANCH  41  51
ATOM     51  CB  LEU A   8      -8.987   5.767   1.035  0.00  0.00    +0.000 C 
BRANCH  51  52
ATOM     52  CG  LEU A   8      -7.634   6.423   0.788  0.00  0.00    +0.000 C 
ATOM     53  CD1 LEU A   8      -6.533   5.530   1.226  0.00  0.00    +0.000 C 
ATOM     54  CD2 LEU A   8      -7.218   6.551  -0.639  0.00  0.00    +0.000 C 
ENDBRANCH  51  52
ENDBRANCH  41  51
ENDBRANCH  39  41
ENDBRANCH  36  37
ENDBRANCH  13  30
BRANCH   9  55
ATOM     55  N   CYS A   1       2.704   7.204   6.940  0.00  0.00    +0.000 NA
ATOM     56  H1  CYS A   1       2.672   8.193   6.808  0.00  0.00    +0.000 HD
ATOM     57  H2  CYS A   1       3.706   7.012   6.966  0.00  0.00    +0.000 HD
ENDBRANCH   9  55
BRANCH   1  58
ATOM     58  CB  ILE A   3       4.118   1.635   1.273  0.00  0.00    +0.000 C 
ATOM     59  CG2 ILE A   3       3.221   0.072   0.537  0.00  0.00    +0.000 C 
BRANCH  58  61
ATOM     60  CD1 ILE A   3       2.177   0.477   3.092  0.00  0.00    +0.000 C 
ATOM     61  CG1 ILE A   3       2.414   1.156   1.728  0.00  0.00    +0.000 C 
ENDBRANCH  58  61
ENDBRANCH   1  58
BRANCH  17  62
ATOM     62  CB  ASN A   5       1.312   5.234   3.240  0.00  0.00    +0.000 C 
BRANCH  62  63
ATOM     63  CG  ASN A   5       2.234   5.026   2.176  0.00  0.00    +0.000 C 
ATOM     64  ND2 ASN A   5       1.509   4.123   1.328  0.00  0.00    +0.000 N 
ATOM     65  OD1 ASN A   5       3.458   5.228   2.101  0.00  0.00    +0.000 OA
ATOM     66 HD21 ASN A   5       0.747   3.469   1.473  0.00  0.00    +0.000 HD
ATOM     67 HD22 ASN A   5       1.776   3.195   1.126  0.00  0.00    +0.000 HD
ENDBRANCH  62  63
ENDBRANCH  17  62
BRANCH   5  68
ATOM     68  CB  TYR A   2       3.527   9.317   5.351  0.00  0.00    +0.000 C 
BRANCH  68  69
ATOM     69  CG  TYR A   2       3.793  10.178   6.541  0.00  0.00    +0.000 A 
ATOM     70  CD1 TYR A   2       4.993  10.074   7.237  0.00  0.00    +0.000 A 
ATOM     71  CE1 TYR A   2       5.239  10.868   8.357  0.00  0.00    +0.000 A 
ATOM     72  CZ  TYR A   2       4.266  11.763   8.784  0.00  0.00    +0.000 A 
ATOM     73  CE2 TYR A   2       3.046  11.843   8.127  0.00  0.00    +0.000 A 
ATOM     74  CD2 TYR A   2       2.802  11.053   7.008  0.00  0.00    +0.000 A 
BRANCH  72  75
ATOM     75  OH  TYR A   2       4.438  12.599   9.846  0.00  0.00    +0.000 OA
ATOM     76  HH  TYR A   2       5.321  12.486  10.231  0.00  0.00    +0.000 HD
ENDBRANCH  72  75
ENDBRANCH  68  69
ENDBRANCH   5  68
BRANCH  21  77
ATOM     77  CB  GLN A   4       2.296   3.285  -0.785  0.00  0.00    +0.000 C 
BRANCH  77  78
ATOM     78  CG  GLN A   4       2.030   1.837  -1.040  0.00  0.00    +0.000 C 
BRANCH  78  79
ATOM     79  CD  GLN A   4       1.778   1.209  -2.331  0.00  0.00    +0.000 C 
ATOM     80  NE2 GLN A   4       1.693   2.149  -3.274  0.00  0.00    +0.000 N 
ATOM     81  OE1 GLN A   4       1.764  -0.000  -2.506  0.00  0.00    +0.000 OA
ATOM     82 HE21 GLN A   4       1.756   3.125  -3.025  0.00  0.00    +0.000 HD
ATOM     83 HE22 GLN A   4       1.596   1.834  -4.212  0.00  0.00    +0.000 HD
ENDBRANCH  78  79
ENDBRANCH  77  78
ENDBRANCH  21  77
TORSDOF 20
