REMARK  Name = CHEMBL209864
REMARK  12 active torsions:
REMARK  status: ('A' for Active; 'I' for Inactive)
REMARK    1  A    between atoms: C_1  and  C_2
REMARK    2  A    between atoms: C_5  and  C_6
REMARK    3  A    between atoms: C_6  and  C_7
REMARK    4  A    between atoms: C_6  and  N_13
REMARK    5  A    between atoms: N_9  and  C_10
REMARK    6  A    between atoms: C_10  and  C_11
REMARK    7  A    between atoms: C_10  and  C_12
REMARK    8  A    between atoms: C_16  and  C_17
REMARK    9  A    between atoms: CA_29  and  CB_30
REMARK   10  A    between atoms: CB_30  and  CG_31
REMARK   11  A    between atoms: CG_31  and  CD1_32
REMARK   12  A    between atoms: CG_31  and  CD2_33
REMARK                            x       y       z     vdW  Elec       q    Type
REMARK                         _______ _______ _______ _____ _____    ______ ____
ROOT
ATOM      1  N   LEU A   1      -3.727   0.901  -0.167  0.00  0.00    +0.000 N 
ATOM      2  C   UNK A   2      -4.039   0.181   0.983  0.00  0.00    +0.000 C 
ATOM      3  O   UNK A   2      -3.209   0.010   1.860  0.00  0.00    +0.000 OA
ATOM      4  C   UNK A   2      -5.450  -0.468   0.989  0.00  0.00    +0.000 C 
ATOM      5  N   UNK A   2      -6.405   0.516   0.541  0.00  0.00    +0.000 N 
ATOM      6  C   LEU A   1      -6.268   0.884  -0.766  0.00  0.00    +0.000 C 
ATOM      7  O   LEU A   1      -7.256   1.058  -1.447  0.00  0.00    +0.000 OA
ATOM      8  CA  LEU A   1      -4.798   1.006  -1.247  0.00  0.00    +0.000 C 
ATOM      9  H   UNK A   2      -7.379   0.456   0.822  0.00  0.00    +0.000 HD
ENDROOT
BRANCH   4  10
ATOM     10  C   UNK A   2      -5.859  -0.987   2.343  0.00  0.00    +0.000 C 
ATOM     11  C   UNK A   2      -4.904  -2.072   2.872  0.00  0.00    +0.000 C 
ATOM     12  C   UNK A   2      -4.979  -1.806   4.335  0.00  0.00    +0.000 A 
ATOM     13  C   UNK A   2      -4.510  -2.613   5.347  0.00  0.00    +0.000 A 
ATOM     14  C   UNK A   2      -4.690  -2.182   6.660  0.00  0.00    +0.000 A 
ATOM     15  C   UNK A   2      -5.298  -0.946   6.938  0.00  0.00    +0.000 A 
ATOM     16  C   UNK A   2      -5.728  -0.116   5.907  0.00  0.00    +0.000 A 
ATOM     17  C   UNK A   2      -5.569  -0.567   4.613  0.00  0.00    +0.000 A 
ATOM     18  C   UNK A   2      -5.917   0.163   3.370  0.00  0.00    +0.000 C 
ENDBRANCH   4  10
BRANCH   1  19
ATOM     19  C   UNK A   0      -2.387   1.634  -0.100  0.00  0.00    +0.000 C 
BRANCH  19  24
ATOM     20  C   UNK A   0      -0.522   3.523  -4.236  0.00  0.00    +0.000 C 
ATOM     21  C   UNK A   0      -1.358   3.520  -3.032  0.00  0.00    +0.000 A 
ATOM     22  C   UNK A   0      -2.230   4.460  -2.560  0.00  0.00    +0.000 A 
ATOM     23  C   UNK A   0      -2.561   4.058  -1.248  0.00  0.00    +0.000 A 
ATOM     24  C   UNK A   0      -2.109   2.746  -1.112  0.00  0.00    +0.000 A 
ATOM     25  O   UNK A   0      -1.310   2.450  -2.194  0.00  0.00    +0.000 OA
ENDBRANCH  19  24
BRANCH  19  26
ATOM     26  C   UNK A   0      -1.068   0.801  -0.038  0.00  0.00    +0.000 C 
ATOM     27  O   UNK A   0       0.006   1.406   0.089  0.00  0.00    +0.000 OA
ATOM     28  N   UNK A   0      -1.078  -0.582  -0.154  0.00  0.00    +0.000 N 
ATOM     29  H   UNK A   0      -1.950  -1.094  -0.133  0.00  0.00    +0.000 HD
BRANCH  28  30
ATOM     30  C   UNK A   0       0.203  -1.290  -0.104  0.00  0.00    +0.000 C 
ATOM     31  C   UNK A   0       0.957  -1.026   1.207  0.00  0.00    +0.000 C 
ATOM     32  C   UNK A   0       0.084  -2.803  -0.289  0.00  0.00    +0.000 C 
ENDBRANCH  28  30
ENDBRANCH  19  26
ENDBRANCH   1  19
BRANCH   8  33
ATOM     33  CB  LEU A   1      -4.700   2.352  -1.916  0.00  0.00    +0.000 C 
BRANCH  33  34
ATOM     34  CG  LEU A   1      -5.810   3.279  -2.397  0.00  0.00    +0.000 C 
ATOM     35  CD1 LEU A   1      -6.575   3.880  -1.203  0.00  0.00    +0.000 C 
ATOM     36  CD2 LEU A   1      -5.254   4.504  -3.142  0.00  0.00    +0.000 C 
ENDBRANCH  33  34
ENDBRANCH   8  33
TORSDOF 7
