REMARK  Name = CHEMBL32054
REMARK  2 active torsions:
REMARK  status: ('A' for Active; 'I' for Inactive)
REMARK    1  A    between atoms: C_2  and  C_3
REMARK    2  A    between atoms: C_15  and  N_16
REMARK                            x       y       z     vdW  Elec       q    Type
REMARK                         _______ _______ _______ _____ _____    ______ ____
ROOT
ATOM      1  O   UNL     1       1.125   0.127  -0.018  0.00  0.00    +0.000 OA
ATOM      2  C   UNL     1       2.344   0.027   0.057  0.00  0.00    +0.000 C 
ATOM      3  N   UNL     1       3.112  -0.761  -0.780  0.00  0.00    +0.000 N 
ATOM      4  C   UNL     1       4.212  -1.594  -0.292  0.00  0.00    +0.000 C 
ATOM      5  C   UNL     1       5.419  -1.398  -1.189  0.00  0.00    +0.000 C 
ATOM      6  C   UNL     1       5.062  -1.679  -2.670  0.00  0.00    +0.000 C 
ATOM      7  C   UNL     1       3.835  -0.848  -3.094  0.00  0.00    +0.000 C 
ATOM      8  C   UNL     1       2.657  -1.002  -2.141  0.00  0.00    +0.000 C 
ENDROOT
BRANCH   6   9
ATOM      9  N   UNL     1       4.983  -3.143  -2.961  0.00  0.00    +0.000 N 
ATOM     10  C   UNL     1       4.073  -4.006  -2.350  0.00  0.00    +0.000 C 
ATOM     11  O   UNL     1       2.865  -3.867  -2.224  0.00  0.00    +0.000 OA
ATOM     12  O   UNL     1       4.666  -5.094  -1.804  0.00  0.00    +0.000 OA
ATOM     13  C   UNL     1       5.096  -5.949  -2.839  0.00  0.00    +0.000 C 
ATOM     14  C   UNL     1       5.942  -5.194  -3.818  0.00  0.00    +0.000 A 
ATOM     15  C   UNL     1       6.736  -5.912  -4.713  0.00  0.00    +0.000 A 
ATOM     16  C   UNL     1       7.506  -5.232  -5.644  0.00  0.00    +0.000 A 
ATOM     17  C   UNL     1       7.475  -3.839  -5.686  0.00  0.00    +0.000 A 
ATOM     18  C   UNL     1       6.679  -3.114  -4.792  0.00  0.00    +0.000 A 
ATOM     19  C   UNL     1       5.902  -3.785  -3.846  0.00  0.00    +0.000 A 
ENDBRANCH   6   9
BRANCH   2  20
ATOM     20  C   UNL     1       3.088   0.904   0.998  0.00  0.00    +0.000 A 
ATOM     21  C   UNL     1       2.590   1.077   2.285  0.00  0.00    +0.000 A 
ATOM     22  C   UNL     1       3.270   1.892   3.196  0.00  0.00    +0.000 A 
ATOM     23  C   UNL     1       4.450   2.560   2.807  0.00  0.00    +0.000 A 
ATOM     24  N   UNL     1       5.221   3.378   3.615  0.00  0.00    +0.000 NA
ATOM     25  C   UNL     1       6.236   3.846   2.925  0.00  0.00    +0.000 A 
ATOM     26  S   UNL     1       6.342   3.345   1.291  0.00  0.00    +0.000 S 
ATOM     27  C   UNL     1       4.906   2.409   1.494  0.00  0.00    +0.000 A 
ATOM     28  C   UNL     1       4.231   1.601   0.564  0.00  0.00    +0.000 A 
ENDBRANCH   2  20
TORSDOF 2
