REMARK  Name = CHEMBL115305
REMARK  9 active torsions:
REMARK  status: ('A' for Active; 'I' for Inactive)
REMARK    1  A    between atoms: C_1  and  C_2
REMARK    2  A    between atoms: C_5  and  N_6
REMARK    3  A    between atoms: N_6  and  C_7
REMARK    4  A    between atoms: N_6  and  S_20
REMARK    5  A    between atoms: C_7  and  C_8
REMARK    6  A    between atoms: N_10  and  N_11
REMARK    7  A    between atoms: C_12  and  C_13
REMARK    8  A    between atoms: C_18  and  O_19
REMARK    9  A    between atoms: S_20  and  C_23
REMARK                            x       y       z     vdW  Elec       q    Type
REMARK                         _______ _______ _______ _____ _____    ______ ____
ROOT
ATOM      1  N   UNL     1      -3.188  -0.024   0.072  0.00  0.00    +0.000 N 
ENDROOT
BRANCH   1   6
ATOM      2  C   UNL     1       2.617   0.120  -0.043  0.00  0.00    +0.000 C 
ATOM      3  C   UNL     1       1.126   0.164  -0.042  0.00  0.00    +0.000 A 
ATOM      4  C   UNL     1       0.452  -1.029   0.070  0.00  0.00    +0.000 A 
ATOM      5  C   UNL     1      -0.914  -1.009   0.289  0.00  0.00    +0.000 A 
ATOM      6  C   UNL     1      -1.723   0.110   0.085  0.00  0.00    +0.000 A 
ATOM      7  C   UNL     1      -1.031   1.319  -0.023  0.00  0.00    +0.000 A 
ATOM      8  C   UNL     1       0.381   1.348  -0.038  0.00  0.00    +0.000 A 
ENDBRANCH   1   6
BRANCH   1   9
ATOM      9  S   UNL     1      -4.137   1.438  -0.069  0.00  0.00    +0.000 S 
ATOM     10  O   UNL     1      -3.913   2.177   1.162  0.00  0.00    +0.000 OA
ATOM     11  O   UNL     1      -3.836   2.067  -1.342  0.00  0.00    +0.000 OA
BRANCH   9  12
ATOM     12  C   UNL     1      -5.922   1.161  -0.097  0.00  0.00    +0.000 A 
ATOM     13  C   UNL     1      -6.792   2.264  -0.044  0.00  0.00    +0.000 A 
ATOM     14  C   UNL     1      -8.179   2.056   0.093  0.00  0.00    +0.000 A 
ATOM     15  C   UNL     1      -8.713   0.766   0.107  0.00  0.00    +0.000 A 
ATOM     16  C   UNL     1      -7.866  -0.313   0.005  0.00  0.00    +0.000 A 
ATOM     17  C   UNL     1      -6.502  -0.099  -0.104  0.00  0.00    +0.000 A 
ENDBRANCH   9  12
ENDBRANCH   1   9
BRANCH   1  18
ATOM     18  C   UNL     1      -3.818  -1.375  -0.093  0.00  0.00    +0.000 C 
BRANCH  18  19
ATOM     19  C   UNL     1      -3.166  -2.715  -0.379  0.00  0.00    +0.000 C 
ATOM     20  O   UNL     1      -2.187  -2.795  -1.140  0.00  0.00    +0.000 OA
ATOM     21  N   UNL     1      -3.718  -3.885   0.146  0.00  0.00    +0.000 N 
ATOM     22  H   UNL     1      -4.703  -4.094   0.004  0.00  0.00    +0.000 HD
BRANCH  21  23
ATOM     23  N   UNL     1      -2.818  -4.919   0.159  0.00  0.00    +0.000 NA
ATOM     24  C   UNL     1      -3.144  -6.156   0.022  0.00  0.00    +0.000 C 
BRANCH  24  25
ATOM     25  C   UNL     1      -2.092  -7.224   0.006  0.00  0.00    +0.000 A 
ATOM     26  C   UNL     1      -2.531  -8.554  -0.032  0.00  0.00    +0.000 A 
ATOM     27  C   UNL     1      -1.610  -9.608   0.013  0.00  0.00    +0.000 A 
ATOM     28  C   UNL     1      -0.243  -9.345   0.082  0.00  0.00    +0.000 A 
ATOM     29  C   UNL     1       0.211  -8.027   0.094  0.00  0.00    +0.000 A 
ATOM     30  C   UNL     1      -0.708  -6.970   0.057  0.00  0.00    +0.000 A 
BRANCH  30  31
ATOM     31  O   UNL     1      -0.229  -5.691   0.084  0.00  0.00    +0.000 OA
ATOM     32  H   UNL     1       0.739  -5.677   0.104  0.00  0.00    +0.000 HD
ENDBRANCH  30  31
ENDBRANCH  24  25
ENDBRANCH  21  23
ENDBRANCH  18  19
ENDBRANCH   1  18
TORSDOF 8
