REMARK  Name = CHEMBL456254
REMARK  13 active torsions:
REMARK  status: ('A' for Active; 'I' for Inactive)
REMARK    1  A    between atoms: C_1  and  O_2
REMARK    2  A    between atoms: O_2  and  C_3
REMARK    3  A    between atoms: C_6  and  O_7
REMARK    4  A    between atoms: O_7  and  C_8
REMARK    5  A    between atoms: C_9  and  S_10
REMARK    6  A    between atoms: S_10  and  N_13
REMARK    7  A    between atoms: N_13  and  C_14
REMARK    8  A    between atoms: N_13  and  C_28
REMARK    9  A    between atoms: C_14  and  C_15
REMARK   10  A    between atoms: C_18  and  C_19
REMARK   11  A    between atoms: C_24  and  C_25
REMARK   12  A    between atoms: C_31  and  O_32
REMARK   13  A    between atoms: O_32  and  C_33
REMARK                            x       y       z     vdW  Elec       q    Type
REMARK                         _______ _______ _______ _____ _____    ______ ____
ROOT
ATOM      1  N   UNL     1       1.814  -2.059  -4.753  0.00  0.00    +0.000 N 
ENDROOT
BRANCH   1   2
ATOM      2  C   UNL     1       1.287  -2.367  -6.074  0.00  0.00    +0.000 A 
ATOM      3  C   UNL     1       1.090  -3.670  -6.532  0.00  0.00    +0.000 A 
ATOM      4  C   UNL     1       0.650  -3.895  -7.826  0.00  0.00    +0.000 A 
ATOM      5  C   UNL     1       0.353  -2.806  -8.628  0.00  0.00    +0.000 A 
ATOM      6  N   UNL     1       0.496  -1.531  -8.205  0.00  0.00    +0.000 NA
ATOM      7  C   UNL     1       0.972  -1.344  -6.953  0.00  0.00    +0.000 A 
BRANCH   5   8
ATOM      8  O   UNL     1      -0.125  -2.908  -9.904  0.00  0.00    +0.000 OA
ATOM      9  C   UNL     1      -0.308  -4.234 -10.385  0.00  0.00    +0.000 C 
ENDBRANCH   5   8
ENDBRANCH   1   2
BRANCH   1  10
ATOM     10  S   UNL     1       3.162  -3.083  -4.410  0.00  0.00    +0.000 S 
ATOM     11  O   UNL     1       4.077  -2.810  -5.506  0.00  0.00    +0.000 OA
ATOM     12  O   UNL     1       2.604  -4.396  -4.175  0.00  0.00    +0.000 OA
BRANCH  10  17
ATOM     13  C   UNL     1       3.711  -1.348  -1.296  0.00  0.00    +0.000 A 
ATOM     14  C   UNL     1       4.524  -2.167  -0.521  0.00  0.00    +0.000 A 
ATOM     15  C   UNL     1       5.483  -2.941  -1.048  0.00  0.00    +0.000 A 
ATOM     16  C   UNL     1       5.101  -3.403  -2.269  0.00  0.00    +0.000 A 
ATOM     17  C   UNL     1       4.174  -2.682  -3.033  0.00  0.00    +0.000 A 
ATOM     18  C   UNL     1       3.796  -1.482  -2.603  0.00  0.00    +0.000 A 
BRANCH  13  20
ATOM     19  C   UNL     1       0.720  -0.298  -0.137  0.00  0.00    +0.000 C 
ATOM     20  O   UNL     1       2.328  -0.856  -1.092  0.00  0.00    +0.000 OA
ENDBRANCH  13  20
BRANCH  16  21
ATOM     21  O   UNL     1       5.659  -4.620  -2.435  0.00  0.00    +0.000 OA
ATOM     22  C   UNL     1       5.239  -5.184  -3.633  0.00  0.00    +0.000 C 
ENDBRANCH  16  21
ENDBRANCH  10  17
ENDBRANCH   1  10
BRANCH   1  23
ATOM     23  C   UNL     1       0.876  -1.189  -3.919  0.00  0.00    +0.000 C 
BRANCH  23  24
ATOM     24  C   UNL     1       1.020  -0.869  -2.406  0.00  0.00    +0.000 A 
ATOM     25  C   UNL     1       1.803   0.715  -1.969  0.00  0.00    +0.000 A 
ATOM     26  C   UNL     1       2.736   0.865  -0.424  0.00  0.00    +0.000 A 
ATOM     27  C   UNL     1       2.883  -0.584   0.698  0.00  0.00    +0.000 A 
ATOM     28  C   UNL     1       1.993  -2.159   0.220  0.00  0.00    +0.000 A 
ATOM     29  N   UNL     1       1.100  -2.269  -1.324  0.00  0.00    +0.000 NA
BRANCH  27  30
ATOM     30  C   UNL     1       3.951  -0.538   1.731  0.00  0.00    +0.000 A 
ATOM     31  C   UNL     1       5.308  -1.037   1.761  0.00  0.00    +0.000 A 
ATOM     32  C   UNL     1       5.801  -1.576   2.928  0.00  0.00    +0.000 A 
ATOM     33  C   UNL     1       5.161  -1.187   4.087  0.00  0.00    +0.000 A 
ATOM     34  C   UNL     1       3.969  -0.436   4.062  0.00  0.00    +0.000 A 
ATOM     35  C   UNL     1       3.346  -0.122   2.884  0.00  0.00    +0.000 A 
ATOM     36  C   UNL     1       1.997   0.515   2.718  0.00  0.00    +0.000 C 
ENDBRANCH  27  30
ENDBRANCH  23  24
ENDBRANCH   1  23
TORSDOF 9
