REMARK  Name = CHEMBL28627
REMARK  5 active torsions:
REMARK  status: ('A' for Active; 'I' for Inactive)
REMARK    1  A    between atoms: C_1  and  C_2
REMARK    2  A    between atoms: N_7  and  C_8
REMARK    3  A    between atoms: C_8  and  C_9
REMARK    4  A    between atoms: C_13  and  C_14
REMARK    5  A    between atoms: C_19  and  N_20
REMARK                            x       y       z     vdW  Elec       q    Type
REMARK                         _______ _______ _______ _____ _____    ______ ____
ROOT
ATOM      1  C   UNL     1       4.292   5.694  -0.566  0.00  0.00    +0.000 A 
ATOM      2  C   UNL     1       4.948   6.881  -0.790  0.00  0.00    +0.000 A 
ATOM      3  C   UNL     1       4.251   7.876  -0.073  0.00  0.00    +0.000 A 
ATOM      4  C   UNL     1       4.411   9.259   0.097  0.00  0.00    +0.000 A 
ATOM      5  C   UNL     1       3.482   9.964   0.879  0.00  0.00    +0.000 A 
ATOM      6  C   UNL     1       2.390   9.281   1.443  0.00  0.00    +0.000 A 
ATOM      7  C   UNL     1       2.236   7.891   1.322  0.00  0.00    +0.000 A 
ATOM      8  C   UNL     1       3.194   7.231   0.558  0.00  0.00    +0.000 A 
ATOM      9  O   UNL     1       3.252   5.891   0.305  0.00  0.00    +0.000 OA
ENDROOT
BRANCH   5  10
ATOM     10  C   UNL     1       3.656  11.450   0.991  0.00  0.00    +0.000 C 
ATOM     11  O   UNL     1       4.517  12.027   0.332  0.00  0.00    +0.000 OA
ATOM     12  N   UNL     1       2.755  12.142   1.779  0.00  0.00    +0.000 N 
ATOM     13  C   UNL     1       2.002  13.252   1.208  0.00  0.00    +0.000 C 
ATOM     14  C   UNL     1       2.205  14.528   2.001  0.00  0.00    +0.000 C 
ATOM     15  C   UNL     1       1.919  14.304   3.502  0.00  0.00    +0.000 C 
ATOM     16  C   UNL     1       2.781  13.149   4.031  0.00  0.00    +0.000 C 
ATOM     17  C   UNL     1       2.630  11.881   3.208  0.00  0.00    +0.000 C 
BRANCH  15  18
ATOM     18  N   UNL     1       0.451  14.222   3.807  0.00  0.00    +0.000 N 
ATOM     19  C   UNL     1      -0.408  13.253   3.284  0.00  0.00    +0.000 C 
ATOM     20  O   UNL     1      -0.233  12.042   3.216  0.00  0.00    +0.000 OA
ATOM     21  O   UNL     1      -1.530  13.774   2.732  0.00  0.00    +0.000 OA
ATOM     22  C   UNL     1      -2.363  14.307   3.737  0.00  0.00    +0.000 C 
ATOM     23  C   UNL     1      -1.595  15.235   4.625  0.00  0.00    +0.000 A 
ATOM     24  C   UNL     1      -2.298  16.104   5.462  0.00  0.00    +0.000 A 
ATOM     25  C   UNL     1      -1.605  16.952   6.313  0.00  0.00    +0.000 A 
ATOM     26  C   UNL     1      -0.213  16.925   6.334  0.00  0.00    +0.000 A 
ATOM     27  C   UNL     1       0.496  16.057   5.498  0.00  0.00    +0.000 A 
ATOM     28  C   UNL     1      -0.187  15.203   4.629  0.00  0.00    +0.000 A 
ENDBRANCH  15  18
ENDBRANCH   5  10
BRANCH   1  29
ATOM     29  C   UNL     1       4.609   4.322  -1.051  0.00  0.00    +0.000 C 
BRANCH  29  36
ATOM     30  C   UNL     1       0.989   0.003   0.062  0.00  0.00    +0.000 C 
ATOM     31  C   UNL     1       2.506   0.002   0.011  0.00  0.00    +0.000 C 
ATOM     32  O   UNL     1       3.153  -1.033   0.150  0.00  0.00    +0.000 OA
ATOM     33  N   UNL     1       3.081   1.205  -0.337  0.00  0.00    +0.000 N 
ATOM     34  C   UNL     1       4.276   1.299  -1.188  0.00  0.00    +0.000 C 
ATOM     35  C   UNL     1       4.018   2.339  -2.319  0.00  0.00    +0.000 C 
ATOM     36  N   UNL     1       3.536   3.664  -1.825  0.00  0.00    +0.000 NA
ATOM     37  C   UNL     1       2.329   3.429  -0.994  0.00  0.00    +0.000 C 
ATOM     38  C   UNL     1       2.599   2.479   0.175  0.00  0.00    +0.000 C 
ENDBRANCH  29  36
ENDBRANCH   1  29
TORSDOF 4
