REMARK  Name = CHEMBL3814232
REMARK  25 active torsions:
REMARK  status: ('A' for Active; 'I' for Inactive)
REMARK    1  A    between atoms: C_1  and  C_2
REMARK    2  A    between atoms: C_2  and  C_3
REMARK    3  A    between atoms: C_3  and  C_4
REMARK    4  A    between atoms: C_3  and  C_5
REMARK    5  A    between atoms: C_9  and  C_10
REMARK    6  A    between atoms: C_10  and  C_11
REMARK    7  A    between atoms: C_14  and  O_15
REMARK    8  A    between atoms: C_21  and  N_22
REMARK    9  A    between atoms: N_22  and  C_23
REMARK   10  A    between atoms: C_28  and  C_29
REMARK   11  A    between atoms: C_35  and  C_36
REMARK   12  A    between atoms: N_38  and  C_39
REMARK   13  A    between atoms: C_39  and  C_40
REMARK   14  A    between atoms: C_39  and  C_44
REMARK   15  A    between atoms: C_40  and  C_41
REMARK   16  A    between atoms: C_41  and  C_42
REMARK   17  A    between atoms: C_41  and  C_43
REMARK   18  A    between atoms: N_46  and  C_47
REMARK   19  A    between atoms: C_47  and  C_48
REMARK   20  A    between atoms: N_51  and  C_52
REMARK   21  A    between atoms: C_55  and  C_56
REMARK   22  A    between atoms: C_56  and  C_57
REMARK   23  A    between atoms: C_63  and  C_64
REMARK   24  A    between atoms: C_64  and  C_65
REMARK   25  A    between atoms: C_65  and  C_66
REMARK                            x       y       z     vdW  Elec       q    Type
REMARK                         _______ _______ _______ _____ _____    ______ ____
ROOT
ATOM      1  C   UNL     1      -0.437   4.814  -3.565  0.00  0.00    +0.000 C 
ATOM      2  N   UNL     1      -2.596   6.407  -4.561  0.00  0.00    +0.000 N 
ATOM      3  C   UNL     1      -4.778   7.783  -5.510  0.00  0.00    +0.000 C 
ATOM      4  O   UNL     1      -5.742   9.287  -6.053  0.00  0.00    +0.000 OA
ATOM      5  C   UNL     1      -7.448   8.337  -6.247  0.00  0.00    +0.000 C 
ATOM      6  N   UNL     1      -8.668   7.717  -7.346  0.00  0.00    +0.000 N 
ATOM      7  C   UNL     1      -7.394   7.410  -7.254  0.00  0.00    +0.000 C 
ATOM      8  O   UNL     1      -6.774   6.597  -7.855  0.00  0.00    +0.000 OA
ATOM      9  C   UNL     1      -6.334   7.660  -6.061  0.00  0.00    +0.000 C 
ATOM     10  C   UNL     1      -6.106   7.306  -4.709  0.00  0.00    +0.000 C 
ATOM     11  S   UNL     1      -4.931   6.002  -5.904  0.00  0.00    +0.000 S 
ATOM     12  S   UNL     1      -4.192   5.119  -4.295  0.00  0.00    +0.000 S 
ATOM     13  C   UNL     1      -2.855   4.086  -5.008  0.00  0.00    +0.000 C 
ATOM     14  C   UNL     1      -2.290   3.270  -3.939  0.00  0.00    +0.000 C 
ATOM     15  N   UNL     1      -1.906   4.243  -3.091  0.00  0.00    +0.000 N 
ATOM     16  C   UNL     1      -2.228   5.285  -2.258  0.00  0.00    +0.000 C 
ATOM     17  C   UNL     1      -1.121   3.659  -2.214  0.00  0.00    +0.000 C 
ATOM     18  O   UNL     1      -0.281   3.212  -3.040  0.00  0.00    +0.000 OA
ATOM     19  C   UNL     1       0.391   4.838  -1.686  0.00  0.00    +0.000 C 
ATOM     20  N   UNL     1       1.164   4.321  -0.666  0.00  0.00    +0.000 N 
ATOM     21  C   UNL     1       1.849   3.287  -0.675  0.00  0.00    +0.000 C 
ATOM     22  O   UNL     1       2.985   2.351   0.411  0.00  0.00    +0.000 OA
ATOM     23  C   UNL     1       2.530   2.714  -2.797  0.00  0.00    +0.000 C 
ATOM     24  N   UNL     1       3.827   3.117  -2.934  0.00  0.00    +0.000 N 
ATOM     25  C   UNL     1       1.973   3.978  -2.797  0.00  0.00    +0.000 C 
ATOM     26  O   UNL     1       3.750   3.482  -2.412  0.00  0.00    +0.000 OA
ATOM     27  H   UNL     1      -3.799   7.487  -5.204  0.00  0.00    +0.000 HD
ATOM     28  H   UNL     1      -9.301   7.152  -7.972  0.00  0.00    +0.000 HD
ATOM     29  H   UNL     1       1.085   4.327   0.253  0.00  0.00    +0.000 HD
ATOM     30  H   UNL     1       4.505   3.677  -3.424  0.00  0.00    +0.000 HD
ENDROOT
BRANCH  14  31
ATOM     31  C   UNL     1      -1.318   2.209  -4.541  0.00  0.00    +0.000 C 
ATOM     32  O   UNL     1      -0.159   2.119  -4.272  0.00  0.00    +0.000 OA
ATOM     33  N   UNL     1      -1.783   1.235  -5.400  0.00  0.00    +0.000 N 
ATOM     34  C   UNL     1      -2.675   1.373  -6.545  0.00  0.00    +0.000 C 
ATOM     35  C   UNL     1      -3.381   0.043  -6.555  0.00  0.00    +0.000 C 
ATOM     36  C   UNL     1      -2.258  -0.953  -6.283  0.00  0.00    +0.000 C 
ATOM     37  C   UNL     1      -1.325  -0.194  -5.374  0.00  0.00    +0.000 C 
BRANCH  37  38
ATOM     38  C   UNL     1      -0.108  -0.464  -6.214  0.00  0.00    +0.000 C 
ATOM     39  O   UNL     1       0.521   0.756  -6.722  0.00  0.00    +0.000 OA
ATOM     40  N   UNL     1       0.773  -1.600  -5.973  0.00  0.00    +0.000 N 
ATOM     41  H   UNL     1       0.346  -2.430  -5.634  0.00  0.00    +0.000 HD
BRANCH  40  42
ATOM     42  C   UNL     1       2.199  -1.689  -6.431  0.00  0.00    +0.000 C 
BRANCH  42  43
ATOM     43  C   UNL     1       2.668  -3.163  -6.378  0.00  0.00    +0.000 C 
ATOM     44  O   UNL     1       1.881  -4.028  -5.966  0.00  0.00    +0.000 OA
ATOM     45  N   UNL     1       3.976  -3.487  -6.818  0.00  0.00    +0.000 N 
ATOM     46  H   UNL     1       4.613  -2.783  -7.152  0.00  0.00    +0.000 HD
BRANCH  45  47
ATOM     47  C   UNL     1       4.463  -4.870  -6.786  0.00  0.00    +0.000 C 
BRANCH  47  48
ATOM     48  C   UNL     1       5.910  -4.989  -7.300  0.00  0.00    +0.000 C 
ATOM     49  N   UNL     1       6.566  -3.807  -7.721  0.00  0.00    +0.000 N 
ATOM     50  O   UNL     1       6.465  -6.092  -7.342  0.00  0.00    +0.000 OA
ATOM     51  H   UNL     1       6.146  -2.895  -7.700  0.00  0.00    +0.000 HD
ATOM     52  H   UNL     1       7.521  -3.842  -8.065  0.00  0.00    +0.000 HD
ENDBRANCH  47  48
ENDBRANCH  45  47
ENDBRANCH  42  43
BRANCH  42  53
ATOM     53  C   UNL     1       3.109  -0.824  -5.617  0.00  0.00    +0.000 C 
BRANCH  53  54
ATOM     54  C   UNL     1       2.693   0.609  -5.618  0.00  0.00    +0.000 C 
ATOM     55  C   UNL     1       1.396   0.794  -5.023  0.00  0.00    +0.000 C 
ATOM     56  C   UNL     1       3.601   1.500  -4.889  0.00  0.00    +0.000 C 
ENDBRANCH  53  54
ENDBRANCH  42  53
ENDBRANCH  40  42
ENDBRANCH  37  38
ENDBRANCH  14  31
BRANCH   9  57
ATOM     57  N   UNL     1      -7.356   9.486  -5.199  0.00  0.00    +0.000 NA
ATOM     58  C   UNL     1      -8.153  10.374  -6.411  0.00  0.00    +0.000 C 
ATOM     59  H   UNL     1      -6.857  10.189  -4.983  0.00  0.00    +0.000 HD
ENDBRANCH   9  57
BRANCH   1  60
ATOM     60  C   UNL     1       0.970   2.728  -2.252  0.00  0.00    +0.000 C 
ATOM     61  C   UNL     1       2.320   0.919  -0.976  0.00  0.00    +0.000 C 
BRANCH  60  63
ATOM     62  C   UNL     1       1.246   1.549   0.038  0.00  0.00    +0.000 C 
ATOM     63  C   UNL     1       2.629   2.096  -1.032  0.00  0.00    +0.000 C 
ENDBRANCH  60  63
ENDBRANCH   1  60
BRANCH  19  64
ATOM     64  C   UNL     1       1.753   5.743  -2.636  0.00  0.00    +0.000 C 
BRANCH  64  65
ATOM     65  C   UNL     1       1.276   6.111  -4.028  0.00  0.00    +0.000 C 
ATOM     66  N   UNL     1      -0.051   6.132  -4.498  0.00  0.00    +0.000 N 
ATOM     67  O   UNL     1       2.017   6.661  -4.808  0.00  0.00    +0.000 OA
ATOM     68  H   UNL     1      -1.189   5.828  -3.935  0.00  0.00    +0.000 HD
ATOM     69  H   UNL     1      -0.519   6.018  -5.312  0.00  0.00    +0.000 HD
ENDBRANCH  64  65
ENDBRANCH  19  64
BRANCH   5  70
ATOM     70  C   UNL     1      -9.329   8.606  -5.166  0.00  0.00    +0.000 C 
BRANCH  70  71
ATOM     71  C   UNL     1     -10.089   9.776  -4.476  0.00  0.00    +0.000 A 
ATOM     72  C   UNL     1     -10.650  10.765  -5.267  0.00  0.00    +0.000 A 
ATOM     73  C   UNL     1     -11.235  11.890  -4.730  0.00  0.00    +0.000 A 
ATOM     74  C   UNL     1     -11.313  12.004  -3.358  0.00  0.00    +0.000 A 
ATOM     75  C   UNL     1     -10.760  11.033  -2.550  0.00  0.00    +0.000 A 
ATOM     76  C   UNL     1     -10.161   9.924  -3.106  0.00  0.00    +0.000 A 
BRANCH  74  77
ATOM     77  O   UNL     1     -11.905  13.045  -2.722  0.00  0.00    +0.000 OA
ATOM     78  H   UNL     1     -12.299  13.730  -3.277  0.00  0.00    +0.000 HD
ENDBRANCH  74  77
ENDBRANCH  70  71
ENDBRANCH   5  70
BRANCH  23  79
ATOM     79  C   UNL     1       2.253   1.234  -3.077  0.00  0.00    +0.000 C 
BRANCH  79  80
ATOM     80  C   UNL     1       3.348   0.062  -2.874  0.00  0.00    +0.000 C 
BRANCH  80  81
ATOM     81  C   UNL     1       2.593  -1.176  -3.094  0.00  0.00    +0.000 C 
ATOM     82  N   UNL     1       1.212  -1.188  -3.355  0.00  0.00    +0.000 N 
ATOM     83  O   UNL     1       3.283  -2.201  -3.252  0.00  0.00    +0.000 OA
ATOM     84  H   UNL     1       0.603  -0.372  -3.283  0.00  0.00    +0.000 HD
ATOM     85  H   UNL     1       0.724  -2.002  -3.635  0.00  0.00    +0.000 HD
ENDBRANCH  80  81
ENDBRANCH  79  80
ENDBRANCH  23  79
TORSDOF 19
