REMARK  Name = CHEMBL196816
REMARK  9 active torsions:
REMARK  status: ('A' for Active; 'I' for Inactive)
REMARK    1  A    between atoms: C_1  and  C_2
REMARK    2  A    between atoms: C_2  and  C_25
REMARK    3  A    between atoms: N_3  and  N_4
REMARK    4  A    between atoms: C_5  and  C_7
REMARK    5  A    between atoms: C_7  and  N_8
REMARK    6  A    between atoms: N_8  and  C_9
REMARK    7  A    between atoms: N_8  and  S_16
REMARK    8  A    between atoms: S_16  and  C_19
REMARK    9  A    between atoms: C_30  and  O_31
REMARK                            x       y       z     vdW  Elec       q    Type
REMARK                         _______ _______ _______ _____ _____    ______ ____
ROOT
ATOM      1  N   UNL     1       3.432  -2.021  -5.824  0.00  0.00    +0.000 N 
ENDROOT
BRANCH   1   2
ATOM      2  C   UNL     1       4.854  -2.035  -5.611  0.00  0.00    +0.000 A 
ATOM      3  C   UNL     1       5.406  -2.695  -4.510  0.00  0.00    +0.000 A 
ATOM      4  C   UNL     1       6.754  -2.510  -4.181  0.00  0.00    +0.000 A 
ATOM      5  C   UNL     1       7.597  -1.806  -5.037  0.00  0.00    +0.000 A 
ATOM      6  C   UNL     1       7.060  -1.187  -6.152  0.00  0.00    +0.000 A 
ATOM      7 CL   UNL     1       8.078  -0.351  -7.259  0.00  0.00    +0.000 Cl
ATOM      8  C   UNL     1       5.687  -1.214  -6.365  0.00  0.00    +0.000 A 
ENDBRANCH   1   2
BRANCH   1   9
ATOM      9  S   UNL     1       2.742  -2.478  -7.329  0.00  0.00    +0.000 S 
ATOM     10  O   UNL     1       2.010  -3.704  -7.102  0.00  0.00    +0.000 OA
ATOM     11  O   UNL     1       2.042  -1.318  -7.863  0.00  0.00    +0.000 OA
BRANCH   9  12
ATOM     12  C   UNL     1       4.071  -2.854  -8.488  0.00  0.00    +0.000 A 
ATOM     13  C   UNL     1       4.429  -4.177  -8.759  0.00  0.00    +0.000 A 
ATOM     14  C   UNL     1       5.608  -4.441  -9.471  0.00  0.00    +0.000 A 
ATOM     15  C   UNL     1       6.400  -3.393  -9.943  0.00  0.00    +0.000 A 
ATOM     16  C   UNL     1       5.986  -2.078  -9.758  0.00  0.00    +0.000 A 
ATOM     17  C   UNL     1       4.781  -1.814  -9.101  0.00  0.00    +0.000 A 
ENDBRANCH   9  12
ENDBRANCH   1   9
BRANCH   1  18
ATOM     18  C   UNL     1       2.505  -1.574  -4.716  0.00  0.00    +0.000 C 
BRANCH  18  20
ATOM     19  N   UNL     1       2.391  -0.846  -2.307  0.00  0.00    +0.000 N 
ATOM     20  C   UNL     1       3.166  -0.950  -3.453  0.00  0.00    +0.000 C 
ATOM     21  O   UNL     1       4.322  -0.521  -3.434  0.00  0.00    +0.000 OA
ATOM     22  H   UNL     1       1.386  -0.923  -2.348  0.00  0.00    +0.000 HD
BRANCH  19  25
ATOM     23  C   UNL     1       0.859  -0.032  -0.018  0.00  0.00    +0.000 C 
ATOM     24  C   UNL     1       2.368  -0.082  -0.088  0.00  0.00    +0.000 C 
ATOM     25  N   UNL     1       3.030  -0.420  -1.156  0.00  0.00    +0.000 NA
BRANCH  24  26
ATOM     26  C   UNL     1       3.144   0.279   1.163  0.00  0.00    +0.000 A 
ATOM     27  C   UNL     1       4.332   1.029   1.080  0.00  0.00    +0.000 A 
ATOM     28  C   UNL     1       5.136   1.220   2.217  0.00  0.00    +0.000 A 
ATOM     29  C   UNL     1       4.735   0.720   3.455  0.00  0.00    +0.000 A 
ATOM     30  C   UNL     1       3.542   0.008   3.558  0.00  0.00    +0.000 A 
ATOM     31  C   UNL     1       2.758  -0.211   2.420  0.00  0.00    +0.000 A 
BRANCH  31  32
ATOM     32  O   UNL     1       1.621  -0.957   2.554  0.00  0.00    +0.000 OA
ATOM     33  H   UNL     1       1.462  -1.158   3.489  0.00  0.00    +0.000 HD
ENDBRANCH  31  32
ENDBRANCH  24  26
ENDBRANCH  19  25
ENDBRANCH  18  20
ENDBRANCH   1  18
TORSDOF 8
