REMARK  Name = CHEMBL3142789
REMARK  42 active torsions:
REMARK  status: ('A' for Active; 'I' for Inactive)
REMARK    1  A    between atoms: C_1  and  C_2
REMARK    2  A    between atoms: C_2  and  C_3
REMARK    3  A    between atoms: C_3  and  C_4
REMARK    4  A    between atoms: C_3  and  C_5
REMARK    5  A    between atoms: C_5  and  N_6
REMARK    6  A    between atoms: C_5  and  C_34
REMARK    7  A    between atoms: C_7  and  C_9
REMARK    8  A    between atoms: C_9  and  C_10
REMARK    9  A    between atoms: C_9  and  N_18
REMARK   10  A    between atoms: C_10  and  C_11
REMARK   11  A    between atoms: C_14  and  O_15
REMARK   12  A    between atoms: C_19  and  C_21
REMARK   13  A    between atoms: C_21  and  C_22
REMARK   14  A    between atoms: C_22  and  S_23
REMARK   15  A    between atoms: S_23  and  C_24
REMARK   16  A    between atoms: C_24  and  C_25
REMARK   17  A    between atoms: C_25  and  C_26
REMARK   18  A    between atoms: N_36  and  C_37
REMARK   19  A    between atoms: C_37  and  C_38
REMARK   20  A    between atoms: C_37  and  C_85
REMARK   21  A    between atoms: N_40  and  C_41
REMARK   22  A    between atoms: C_41  and  C_42
REMARK   23  A    between atoms: C_41  and  C_46
REMARK   24  A    between atoms: C_42  and  C_43
REMARK   25  A    between atoms: N_48  and  C_49
REMARK   26  A    between atoms: C_49  and  C_50
REMARK   27  A    between atoms: C_49  and  C_52
REMARK   28  A    between atoms: C_50  and  S_51
REMARK   29  A    between atoms: C_58  and  C_59
REMARK   30  A    between atoms: N_61  and  C_62
REMARK   31  A    between atoms: C_62  and  C_63
REMARK   32  A    between atoms: C_62  and  C_67
REMARK   33  A    between atoms: C_63  and  C_64
REMARK   34  A    between atoms: C_64  and  C_65
REMARK   35  A    between atoms: C_65  and  N_66
REMARK   36  A    between atoms: N_69  and  C_70
REMARK   37  A    between atoms: C_70  and  C_71
REMARK   38  A    between atoms: C_70  and  C_82
REMARK   39  A    between atoms: C_71  and  C_72
REMARK   40  A    between atoms: C_75  and  N_76
REMARK   41  A    between atoms: C_85  and  C_86
REMARK   42  A    between atoms: C_85  and  O_87
REMARK                            x       y       z     vdW  Elec       q    Type
REMARK                         _______ _______ _______ _____ _____    ______ ____
ROOT
ATOM      1  C   UNL     1       5.529   1.429  -0.802  0.00  0.00    +0.000 C 
ENDROOT
BRANCH   1   4
ATOM      2  C   UNL     1       5.261   0.773  -3.545  0.00  0.00    +0.000 C 
ATOM      3  O   UNL     1       6.380   1.069  -3.996  0.00  0.00    +0.000 OA
ATOM      4  N   UNL     1       4.830   1.314  -2.285  0.00  0.00    +0.000 N 
ATOM      5  H   UNL     1       3.834   1.350  -2.140  0.00  0.00    +0.000 HD
BRANCH   2   6
ATOM      6  C   UNL     1       4.336  -0.500  -4.425  0.00  0.00    +0.000 C 
BRANCH   6   9
ATOM      7  C   UNL     1       6.615  -1.378  -4.920  0.00  0.00    +0.000 C 
ATOM      8  O   UNL     1       7.452  -1.190  -5.810  0.00  0.00    +0.000 OA
ATOM      9  N   UNL     1       5.356  -1.016  -5.339  0.00  0.00    +0.000 N 
ATOM     10  H   UNL     1       5.281  -0.763  -6.324  0.00  0.00    +0.000 HD
BRANCH   7  11
ATOM     11  C   UNL     1       7.014  -2.016  -3.348  0.00  0.00    +0.000 C 
BRANCH  11  12
ATOM     12  N   UNL     1       8.531  -1.927  -3.180  0.00  0.00    +0.000 N 
ATOM     13  C   UNL     1       9.399  -2.408  -2.174  0.00  0.00    +0.000 C 
ATOM     14  O   UNL     1       9.029  -3.205  -1.304  0.00  0.00    +0.000 OA
ATOM     15  H   UNL     1       8.913  -1.843  -4.103  0.00  0.00    +0.000 HD
BRANCH  13  16
ATOM     16  C   UNL     1      10.937  -2.017  -2.159  0.00  0.00    +0.000 C 
BRANCH  16  17
ATOM     17  N   UNL     1      11.540  -2.296  -0.816  0.00  0.00    +0.000 N 
ATOM     18  C   UNL     1      11.249  -1.431   0.216  0.00  0.00    +0.000 C 
ATOM     19  O   UNL     1      10.758  -0.333  -0.038  0.00  0.00    +0.000 OA
ATOM     20  H   UNL     1      11.830  -3.238  -0.591  0.00  0.00    +0.000 HD
BRANCH  18  21
ATOM     21  C   UNL     1      11.575  -1.901   1.653  0.00  0.00    +0.000 C 
BRANCH  21  22
ATOM     22  C   UNL     1      11.038  -0.938   2.755  0.00  0.00    +0.000 C 
ATOM     23  C   UNL     1      11.178  -1.619   4.149  0.00  0.00    +0.000 C 
ATOM     24  C   UNL     1      10.772  -0.710   5.280  0.00  0.00    +0.000 C 
ATOM     25  C   UNL     1      11.498   0.650   5.232  0.00  0.00    +0.000 C 
ATOM     26  C   UNL     1      11.563   1.348   3.886  0.00  0.00    +0.000 C 
ATOM     27  C   UNL     1      11.876   0.376   2.764  0.00  0.00    +0.000 C 
BRANCH  22  28
ATOM     28  S   UNL     1       9.209  -0.844   2.307  0.00  0.00    +0.000 S 
BRANCH  28  29
ATOM     29  C   UNL     1       8.623   0.550   3.205  0.00  0.00    +0.000 C 
BRANCH  29  30
ATOM     30  C   UNL     1       7.316   1.060   2.793  0.00  0.00    +0.000 C 
BRANCH  30  31
ATOM     31  C   UNL     1       7.121   2.488   3.298  0.00  0.00    +0.000 C 
ATOM     32  N   UNL     1       7.716   2.920   4.418  0.00  0.00    +0.000 N 
ATOM     33  O   UNL     1       6.378   3.271   2.710  0.00  0.00    +0.000 OA
ATOM     34  H   UNL     1       8.084   2.176   5.001  0.00  0.00    +0.000 HD
ATOM     35  H   UNL     1       7.070   3.464   4.977  0.00  0.00    +0.000 HD
ENDBRANCH  30  31
ENDBRANCH  29  30
ENDBRANCH  28  29
ENDBRANCH  22  28
ENDBRANCH  21  22
ENDBRANCH  18  21
ENDBRANCH  16  17
BRANCH  16  36
ATOM     36  C   UNL     1      11.539  -2.931  -3.220  0.00  0.00    +0.000 C 
BRANCH  36  37
ATOM     37  C   UNL     1      11.117  -2.584  -4.632  0.00  0.00    +0.000 A 
ATOM     38  C   UNL     1      10.644  -1.306  -4.992  0.00  0.00    +0.000 A 
ATOM     39  C   UNL     1      10.042  -1.090  -6.227  0.00  0.00    +0.000 A 
ATOM     40  C   UNL     1      10.024  -2.108  -7.164  0.00  0.00    +0.000 A 
ATOM     41  C   UNL     1      10.617  -3.329  -6.879  0.00  0.00    +0.000 A 
ATOM     42  C   UNL     1      11.135  -3.582  -5.607  0.00  0.00    +0.000 A 
BRANCH  40  43
ATOM     43  O   UNL     1       9.427  -1.940  -8.378  0.00  0.00    +0.000 OA
ATOM     44  H   UNL     1       8.951  -1.090  -8.356  0.00  0.00    +0.000 HD
ENDBRANCH  40  43
ENDBRANCH  36  37
ENDBRANCH  16  36
ENDBRANCH  13  16
ENDBRANCH  11  12
BRANCH  11  45
ATOM     45  C   UNL     1       6.393  -1.325  -2.051  0.00  0.00    +0.000 C 
ATOM     46  C   UNL     1       7.071  -1.640  -0.717  0.00  0.00    +0.000 C 
BRANCH  45  48
ATOM     47  C   UNL     1       3.896  -0.968  -0.666  0.00  0.00    +0.000 C 
ATOM     48  C   UNL     1       4.896  -1.365  -1.766  0.00  0.00    +0.000 C 
ENDBRANCH  45  48
ENDBRANCH  11  45
ENDBRANCH   7  11
ENDBRANCH   6   9
BRANCH   6  49
ATOM     49  C   UNL     1       3.562  -1.907  -4.075  0.00  0.00    +0.000 C 
ATOM     50  C   UNL     1       2.447  -1.957  -3.035  0.00  0.00    +0.000 C 
BRANCH  49  51
ATOM     51  O   UNL     1       2.899  -2.362  -5.262  0.00  0.00    +0.000 OA
ATOM     52  H   UNL     1       2.270  -1.656  -5.476  0.00  0.00    +0.000 HD
ENDBRANCH  49  51
ENDBRANCH   6  49
ENDBRANCH   2   6
ENDBRANCH   1   4
BRANCH   1  53
ATOM     53  C   UNL     1       4.425   1.955   0.258  0.00  0.00    +0.000 C 
ATOM     54  O   UNL     1       3.338   2.323  -0.190  0.00  0.00    +0.000 OA
ATOM     55  N   UNL     1       4.629   1.818   1.629  0.00  0.00    +0.000 N 
ATOM     56  H   UNL     1       5.578   1.854   1.920  0.00  0.00    +0.000 HD
BRANCH  55  57
ATOM     57  C   UNL     1       3.741   2.382   2.705  0.00  0.00    +0.000 C 
BRANCH  57  58
ATOM     58  C   UNL     1       4.318   2.622   4.220  0.00  0.00    +0.000 C 
ATOM     59  O   UNL     1       5.170   1.922   4.765  0.00  0.00    +0.000 OA
ATOM     60  N   UNL     1       3.661   3.544   4.999  0.00  0.00    +0.000 N 
ATOM     61  C   UNL     1       2.440   3.126   5.658  0.00  0.00    +0.000 C 
ATOM     62  C   UNL     1       1.857   4.452   5.987  0.00  0.00    +0.000 C 
ATOM     63  C   UNL     1       3.089   5.041   6.612  0.00  0.00    +0.000 C 
ATOM     64  C   UNL     1       4.345   4.510   5.913  0.00  0.00    +0.000 C 
BRANCH  64  65
ATOM     65  C   UNL     1       5.309   4.001   7.080  0.00  0.00    +0.000 C 
ATOM     66  O   UNL     1       5.193   2.855   7.519  0.00  0.00    +0.000 OA
ATOM     67  N   UNL     1       6.230   4.910   7.657  0.00  0.00    +0.000 N 
ATOM     68  H   UNL     1       6.060   5.903   7.568  0.00  0.00    +0.000 HD
BRANCH  67  69
ATOM     69  C   UNL     1       7.222   4.572   8.758  0.00  0.00    +0.000 C 
BRANCH  69  70
ATOM     70  C   UNL     1       7.969   5.767   9.395  0.00  0.00    +0.000 C 
ATOM     71  O   UNL     1       7.991   6.860   8.836  0.00  0.00    +0.000 OA
ATOM     72  N   UNL     1       8.623   5.508  10.599  0.00  0.00    +0.000 N 
ATOM     73  H   UNL     1       8.806   4.552  10.859  0.00  0.00    +0.000 HD
BRANCH  72  74
ATOM     74  C   UNL     1       9.117   6.593  11.482  0.00  0.00    +0.000 C 
BRANCH  74  75
ATOM     75  C   UNL     1      10.180   6.116  12.510  0.00  0.00    +0.000 C 
ATOM     76  N   UNL     1      10.492   4.785  12.570  0.00  0.00    +0.000 N 
ATOM     77  O   UNL     1      10.726   6.883  13.302  0.00  0.00    +0.000 OA
ATOM     78  H   UNL     1      10.145   4.058  11.972  0.00  0.00    +0.000 HD
ATOM     79  H   UNL     1      11.194   4.509  13.248  0.00  0.00    +0.000 HD
ENDBRANCH  74  75
BRANCH  74  80
ATOM     80  C   UNL     1       7.976   7.298  12.291  0.00  0.00    +0.000 C 
BRANCH  80  81
ATOM     81  C   UNL     1       6.873   7.878  11.441  0.00  0.00    +0.000 A 
ATOM     82  C   UNL     1       6.631   9.227  11.233  0.00  0.00    +0.000 A 
ATOM     83  C   UNL     1       5.723   9.650  10.235  0.00  0.00    +0.000 A 
ATOM     84  C   UNL     1       5.014   8.759   9.420  0.00  0.00    +0.000 A 
ATOM     85  C   UNL     1       5.099   7.436   9.837  0.00  0.00    +0.000 A 
ATOM     86  I   UNL     1       3.653   6.032   9.629  0.00  0.00    +0.000 I 
ATOM     87  C   UNL     1       6.017   7.007  10.803  0.00  0.00    +0.000 A 
BRANCH  84  88
ATOM     88  N   UNL     1       4.170   9.363   8.464  0.00  0.00    +0.000 NA
ATOM     89  N   UNL     1       3.674   8.713   7.527  0.00  0.00    +0.000 NA
ATOM     90  N   UNL     1       3.150   8.237   6.639  0.00  0.00    +0.000 NA
ENDBRANCH  84  88
ENDBRANCH  80  81
ENDBRANCH  74  80
ENDBRANCH  72  74
ENDBRANCH  69  70
BRANCH  69  91
ATOM     91  C   UNL     1       8.426   3.870   8.208  0.00  0.00    +0.000 C 
BRANCH  91  92
ATOM     92  C   UNL     1       7.954   2.638   7.568  0.00  0.00    +0.000 C 
BRANCH  92  93
ATOM     93  C   UNL     1       9.115   2.048   6.916  0.00  0.00    +0.000 C 
BRANCH  93  94
ATOM     94  N   UNL     1       8.457   1.059   6.133  0.00  0.00    +0.000 NA
ATOM     95  H   UNL     1       8.041   0.288   6.651  0.00  0.00    +0.000 HD
ATOM     96  H   UNL     1       9.196   0.720   5.565  0.00  0.00    +0.000 HD
ENDBRANCH  93  94
ENDBRANCH  92  93
ENDBRANCH  91  92
ENDBRANCH  69  91
ENDBRANCH  67  69
ENDBRANCH  64  65
ENDBRANCH  57  58
BRANCH  57  97
ATOM     97  C   UNL     1       2.570   1.433   2.923  0.00  0.00    +0.000 C 
BRANCH  97  98
ATOM     98  S   UNL     1       1.430   1.006   1.591  0.00  0.00    +0.000 S 
ATOM     99  H   UNL     1       1.486   2.215   1.000  0.00  0.00    +0.000 HD
ENDBRANCH  97  98
ENDBRANCH  57  97
ENDBRANCH  55  57
ENDBRANCH   1  53
BRANCH   1 100
ATOM    100  C   UNL     1       6.771   2.291  -0.779  0.00  0.00    +0.000 C 
BRANCH 100 101
ATOM    101  C   UNL     1       7.957   1.959  -1.656  0.00  0.00    +0.000 C 
ATOM    102  N   UNL     1       8.356   0.701  -1.623  0.00  0.00    +0.000 N 
ATOM    103  O   UNL     1       8.646   2.798  -2.301  0.00  0.00    +0.000 OA
ATOM    104  H   UNL     1       7.641   0.225  -1.132  0.00  0.00    +0.000 HD
ATOM    105  H   UNL     1       8.592   0.251  -2.508  0.00  0.00    +0.000 HD
ENDBRANCH 100 101
ENDBRANCH   1 100
TORSDOF 39
