REMARK  Name = CHEMBL26877
REMARK  7 active torsions:
REMARK  status: ('A' for Active; 'I' for Inactive)
REMARK    1  A    between atoms: C_1  and  O_2
REMARK    2  A    between atoms: O_2  and  C_3
REMARK    3  A    between atoms: C_6  and  C_7
REMARK    4  A    between atoms: C_7  and  C_8
REMARK    5  A    between atoms: C_13  and  N_14
REMARK    6  A    between atoms: C_27  and  O_28
REMARK    7  A    between atoms: O_28  and  C_29
REMARK                            x       y       z     vdW  Elec       q    Type
REMARK                         _______ _______ _______ _____ _____    ______ ____
ROOT
ATOM      1  C   UNL     1       4.901  -6.054   0.980  0.00  0.00    +0.000 C 
ATOM      2  O   UNL     1       3.835  -6.407   0.487  0.00  0.00    +0.000 OA
ATOM      3  N   UNL     1       5.805  -7.073   1.238  0.00  0.00    +0.000 N 
ATOM      4  C   UNL     1       6.177  -7.953   0.148  0.00  0.00    +0.000 C 
ATOM      5  C   UNL     1       6.045  -9.421   0.475  0.00  0.00    +0.000 C 
ATOM      6  C   UNL     1       7.176  -9.809   1.779  0.00  0.00    +0.000 C 
ATOM      7  C   UNL     1       6.220  -8.910   2.859  0.00  0.00    +0.000 C 
ATOM      8  C   UNL     1       6.234  -7.409   2.582  0.00  0.00    +0.000 C 
ENDROOT
BRANCH   6   9
ATOM      9  N   UNL     1       8.917 -10.027   1.221  0.00  0.00    +0.000 N 
ATOM     10  C   UNL     1       8.406 -11.221   0.618  0.00  0.00    +0.000 C 
ATOM     11  O   UNL     1       7.395 -11.405  -0.116  0.00  0.00    +0.000 OA
ATOM     12  O   UNL     1       8.918 -12.334   1.082  0.00  0.00    +0.000 OA
ATOM     13  C   UNL     1       9.822 -12.514   0.068  0.00  0.00    +0.000 C 
ATOM     14  C   UNL     1      10.920 -11.972   0.854  0.00  0.00    +0.000 A 
ATOM     15  C   UNL     1      12.084 -12.936   0.755  0.00  0.00    +0.000 A 
ATOM     16  C   UNL     1      13.348 -12.674   1.163  0.00  0.00    +0.000 A 
ATOM     17  C   UNL     1      13.449 -11.319   1.376  0.00  0.00    +0.000 A 
ATOM     18  C   UNL     1      12.152 -10.294   1.455  0.00  0.00    +0.000 A 
ATOM     19  C   UNL     1      10.655 -10.652   1.409  0.00  0.00    +0.000 A 
ENDBRANCH   6   9
BRANCH   1  20
ATOM     20  C   UNL     1       5.384  -4.611   1.341  0.00  0.00    +0.000 C 
BRANCH  20  24
ATOM     21  C   UNL     1       3.014  -1.046   0.407  0.00  0.00    +0.000 A 
ATOM     22  C   UNL     1       4.199  -0.948   1.131  0.00  0.00    +0.000 A 
ATOM     23  C   UNL     1       4.994  -2.089   1.359  0.00  0.00    +0.000 A 
ATOM     24  C   UNL     1       4.579  -3.368   0.918  0.00  0.00    +0.000 A 
ATOM     25  C   UNL     1       3.423  -3.407   0.124  0.00  0.00    +0.000 A 
ATOM     26  C   UNL     1       2.627  -2.282  -0.077  0.00  0.00    +0.000 A 
BRANCH  21  28
ATOM     27  C   UNL     1       0.951   0.012  -0.033  0.00  0.00    +0.000 C 
ATOM     28  O   UNL     1       2.370   0.115   0.079  0.00  0.00    +0.000 OA
ENDBRANCH  21  28
BRANCH  25  29
ATOM     29  O   UNL     1       3.201  -4.527  -0.601  0.00  0.00    +0.000 OA
ATOM     30  C   UNL     1       1.933  -4.794  -1.168  0.00  0.00    +0.000 C 
ENDBRANCH  25  29
ENDBRANCH  20  24
ENDBRANCH   1  20
TORSDOF 5
