REMARK  Name = CHEMBL2369834
REMARK  20 active torsions:
REMARK  status: ('A' for Active; 'I' for Inactive)
REMARK    1  A    between atoms: N_1  and  C_2
REMARK    2  A    between atoms: C_2  and  C_3
REMARK    3  A    between atoms: C_3  and  C_4
REMARK    4  A    between atoms: C_8  and  C_9
REMARK    5  A    between atoms: C_9  and  C_10
REMARK    6  A    between atoms: C_19  and  C_20
REMARK    7  A    between atoms: C_20  and  C_21
REMARK    8  A    between atoms: C_24  and  O_25
REMARK    9  A    between atoms: C_36  and  C_37
REMARK   10  A    between atoms: C_43  and  C_44
REMARK   11  A    between atoms: N_46  and  C_47
REMARK   12  A    between atoms: C_47  and  C_48
REMARK   13  A    between atoms: C_47  and  C_55
REMARK   14  A    between atoms: C_48  and  C_49
REMARK   15  A    between atoms: C_49  and  C_50
REMARK   16  A    between atoms: C_50  and  N_51
REMARK   17  A    between atoms: N_57  and  C_58
REMARK   18  A    between atoms: C_58  and  C_59
REMARK   19  A    between atoms: C_65  and  C_66
REMARK   20  A    between atoms: C_66  and  C_67
REMARK                            x       y       z     vdW  Elec       q    Type
REMARK                         _______ _______ _______ _____ _____    ______ ____
ROOT
ATOM      1  C   UNL     1       5.222  -1.048   1.033  0.00  0.00    +0.000 C 
ATOM      2  N   UNL     1       6.032  -0.223   2.335  0.00  0.00    +0.000 N 
ATOM      3  C   UNL     1       5.775   0.630   3.528  0.00  0.00    +0.000 C 
ATOM      4  O   UNL     1       6.244   0.313   4.632  0.00  0.00    +0.000 OA
ATOM      5  C   UNL     1       4.869   2.020   3.400  0.00  0.00    +0.000 C 
ATOM      6  N   UNL     1       3.425   2.074   3.560  0.00  0.00    +0.000 N 
ATOM      7  C   UNL     1       2.607   1.828   4.607  0.00  0.00    +0.000 C 
ATOM      8  O   UNL     1       1.447   2.200   4.380  0.00  0.00    +0.000 OA
ATOM      9  C   UNL     1       3.137   1.217   6.038  0.00  0.00    +0.000 C 
ATOM     10  N   UNL     1       2.493   2.169   6.887  0.00  0.00    +0.000 N 
ATOM     11  C   UNL     1       1.146   2.211   7.091  0.00  0.00    +0.000 C 
ATOM     12  O   UNL     1       0.744   3.155   7.781  0.00  0.00    +0.000 OA
ATOM     13  C   UNL     1       0.122   1.148   6.543  0.00  0.00    +0.000 C 
ATOM     14  C   UNL     1       0.429  -0.032   5.603  0.00  0.00    +0.000 C 
ATOM     15  S   UNL     1      -0.895  -1.102   4.953  0.00  0.00    +0.000 S 
ATOM     16  S   UNL     1       0.248  -2.824   4.658  0.00  0.00    +0.000 S 
ATOM     17  C   UNL     1      -0.332  -3.591   3.105  0.00  0.00    +0.000 C 
ATOM     18  C   UNL     1       0.461  -4.607   2.267  0.00  0.00    +0.000 C 
ATOM     19  N   UNL     1       1.037  -3.984   1.051  0.00  0.00    +0.000 N 
ATOM     20  C   UNL     1       1.933  -2.979   0.954  0.00  0.00    +0.000 C 
ATOM     21  O   UNL     1       2.243  -2.445  -0.107  0.00  0.00    +0.000 OA
ATOM     22  C   UNL     1       2.616  -2.588   2.202  0.00  0.00    +0.000 C 
ATOM     23  N   UNL     1       4.003  -3.042   1.887  0.00  0.00    +0.000 N 
ATOM     24  C   UNL     1       5.191  -2.512   1.386  0.00  0.00    +0.000 C 
ATOM     25  O   UNL     1       6.248  -3.090   1.660  0.00  0.00    +0.000 OA
ATOM     26  H   UNL     1       6.747  -0.888   2.659  0.00  0.00    +0.000 HD
ATOM     27  H   UNL     1       2.884   2.227   2.701  0.00  0.00    +0.000 HD
ATOM     28  H   UNL     1       3.021   2.989   7.168  0.00  0.00    +0.000 HD
ATOM     29  H   UNL     1       0.744  -4.343   0.145  0.00  0.00    +0.000 HD
ATOM     30  H   UNL     1       4.141  -3.948   2.329  0.00  0.00    +0.000 HD
ENDROOT
BRANCH  18  31
ATOM     31  C   UNL     1      -0.423  -5.819   1.789  0.00  0.00    +0.000 C 
ATOM     32  O   UNL     1      -0.389  -6.138   0.596  0.00  0.00    +0.000 OA
ATOM     33  N   UNL     1      -1.005  -6.635   2.750  0.00  0.00    +0.000 N 
ATOM     34  C   UNL     1      -1.825  -6.285   3.901  0.00  0.00    +0.000 C 
ATOM     35  C   UNL     1      -1.430  -7.352   4.879  0.00  0.00    +0.000 C 
ATOM     36  C   UNL     1      -1.485  -8.594   4.010  0.00  0.00    +0.000 C 
ATOM     37  C   UNL     1      -1.113  -8.109   2.590  0.00  0.00    +0.000 C 
BRANCH  37  38
ATOM     38  C   UNL     1      -2.297  -8.559   1.715  0.00  0.00    +0.000 C 
ATOM     39  O   UNL     1      -3.222  -7.784   1.471  0.00  0.00    +0.000 OA
ATOM     40  N   UNL     1      -2.321  -9.894   1.324  0.00  0.00    +0.000 N 
ATOM     41  H   UNL     1      -1.749 -10.588   1.796  0.00  0.00    +0.000 HD
BRANCH  40  42
ATOM     42  C   UNL     1      -3.291 -10.414   0.333  0.00  0.00    +0.000 C 
BRANCH  42  43
ATOM     43  C   UNL     1      -3.297 -11.982   0.327  0.00  0.00    +0.000 C 
ATOM     44  O   UNL     1      -2.563 -12.636   1.066  0.00  0.00    +0.000 OA
ATOM     45  N   UNL     1      -4.181 -12.583  -0.554  0.00  0.00    +0.000 N 
ATOM     46  H   UNL     1      -4.774 -11.999  -1.118  0.00  0.00    +0.000 HD
BRANCH  45  47
ATOM     47  C   UNL     1      -4.284 -14.038  -0.696  0.00  0.00    +0.000 C 
BRANCH  47  48
ATOM     48  C   UNL     1      -5.304 -14.558  -1.727  0.00  0.00    +0.000 C 
ATOM     49  N   UNL     1      -6.028 -13.644  -2.439  0.00  0.00    +0.000 N 
ATOM     50  O   UNL     1      -5.484 -15.756  -1.934  0.00  0.00    +0.000 OA
ATOM     51  H   UNL     1      -5.971 -12.646  -2.352  0.00  0.00    +0.000 HD
ATOM     52  H   UNL     1      -6.696 -14.009  -3.108  0.00  0.00    +0.000 HD
ENDBRANCH  47  48
ENDBRANCH  45  47
ENDBRANCH  42  43
BRANCH  42  53
ATOM     53  C   UNL     1      -2.947  -9.900  -1.083  0.00  0.00    +0.000 C 
BRANCH  53  54
ATOM     54  C   UNL     1      -2.915  -8.378  -1.156  0.00  0.00    +0.000 C 
BRANCH  54  55
ATOM     55  C   UNL     1      -2.577  -7.816  -2.506  0.00  0.00    +0.000 C 
BRANCH  55  56
ATOM     56  N   UNL     1      -2.584  -6.358  -2.391  0.00  0.00    +0.000 NA
ATOM     57  C   UNL     1      -2.255  -5.704  -3.443  0.00  0.00    +0.000 C 
ATOM     58  N   UNL     1      -1.930  -6.235  -4.633  0.00  0.00    +0.000 N 
ATOM     59  N   UNL     1      -2.229  -4.363  -3.426  0.00  0.00    +0.000 N 
ATOM     60  H   UNL     1      -1.906  -7.238  -4.730  0.00  0.00    +0.000 HD
ATOM     61  H   UNL     1      -1.681  -5.683  -5.433  0.00  0.00    +0.000 HD
ATOM     62  H   UNL     1      -2.425  -3.910  -2.542  0.00  0.00    +0.000 HD
ATOM     63  H   UNL     1      -1.963  -3.793  -4.209  0.00  0.00    +0.000 HD
ENDBRANCH  55  56
ENDBRANCH  54  55
ENDBRANCH  53  54
ENDBRANCH  42  53
ENDBRANCH  40  42
ENDBRANCH  37  38
ENDBRANCH  18  31
BRANCH   9  64
ATOM     64  C   UNL     1       3.074  -0.222   6.842  0.00  0.00    +0.000 C 
BRANCH  64  65
ATOM     65  C   UNL     1       3.496  -1.513   6.188  0.00  0.00    +0.000 A 
ATOM     66  C   UNL     1       4.157  -1.286   5.057  0.00  0.00    +0.000 A 
ATOM     67  C   UNL     1       4.834  -2.257   4.367  0.00  0.00    +0.000 A 
ATOM     68  C   UNL     1       4.809  -3.581   4.629  0.00  0.00    +0.000 A 
ATOM     69  C   UNL     1       3.952  -3.900   5.635  0.00  0.00    +0.000 A 
ATOM     70  C   UNL     1       3.345  -2.876   6.452  0.00  0.00    +0.000 A 
BRANCH  68  71
ATOM     71  O   UNL     1       5.256  -4.496   3.717  0.00  0.00    +0.000 OA
ATOM     72  H   UNL     1       5.817  -4.079   3.012  0.00  0.00    +0.000 HD
ENDBRANCH  68  71
ENDBRANCH  64  65
ENDBRANCH   9  64
BRANCH   5  73
ATOM     73  C   UNL     1       5.276   3.193   4.198  0.00  0.00    +0.000 C 
BRANCH  73  74
ATOM     74  C   UNL     1       6.737   3.300   4.185  0.00  0.00    +0.000 A 
ATOM     75  C   UNL     1       7.609   2.529   3.391  0.00  0.00    +0.000 A 
ATOM     76  C   UNL     1       8.922   2.408   3.747  0.00  0.00    +0.000 A 
ATOM     77  C   UNL     1       9.400   3.299   4.688  0.00  0.00    +0.000 A 
ATOM     78  C   UNL     1       8.549   4.168   5.382  0.00  0.00    +0.000 A 
ATOM     79  C   UNL     1       7.200   4.136   5.169  0.00  0.00    +0.000 A 
ENDBRANCH  73  74
ENDBRANCH   5  73
BRANCH   1  80
ATOM     80  C   UNL     1       4.872  -0.457  -0.330  0.00  0.00    +0.000 C 
BRANCH  80  81
ATOM     81  C   UNL     1       5.719   0.737  -0.581  0.00  0.00    +0.000 C 
BRANCH  81  82
ATOM     82  N   UNL     1       5.567   1.155  -1.954  0.00  0.00    +0.000 NA
ATOM     83  H   UNL     1       6.192   1.938  -2.125  0.00  0.00    +0.000 HD
ATOM     84  H   UNL     1       4.617   1.490  -2.126  0.00  0.00    +0.000 HD
ENDBRANCH  81  82
ENDBRANCH  80  81
ENDBRANCH   1  80
BRANCH  22  85
ATOM     85  C   UNL     1       1.945  -1.274   2.631  0.00  0.00    +0.000 C 
BRANCH  85  86
ATOM     86  C   UNL     1       2.372   0.019   2.095  0.00  0.00    +0.000 C 
ATOM     87  N   UNL     1       3.653   0.176   2.393  0.00  0.00    +0.000 N 
ATOM     88  O   UNL     1       1.769   0.926   1.640  0.00  0.00    +0.000 OA
ATOM     89  H   UNL     1       4.219  -0.514   2.845  0.00  0.00    +0.000 HD
ATOM     90  H   UNL     1       4.183   0.813   1.825  0.00  0.00    +0.000 HD
ENDBRANCH  85  86
ENDBRANCH  22  85
TORSDOF 20
