REMARK  Name = CHEMBL2037502
REMARK  11 active torsions:
REMARK  status: ('A' for Active; 'I' for Inactive)
REMARK    1  A    between atoms: CD1_1  and  CG1_2
REMARK    2  A    between atoms: CG1_2  and  CB_3
REMARK    3  A    between atoms: CB_3  and  CG2_4
REMARK    4  A    between atoms: CB_3  and  CA_5
REMARK    5  A    between atoms: C_9  and  C_10
REMARK    6  A    between atoms: N_21  and  C_22
REMARK    7  A    between atoms: C_22  and  C_23
REMARK    8  A    between atoms: C_22  and  C_28
REMARK    9  A    between atoms: N_25  and  C_26
REMARK   10  A    between atoms: N_25  and  C_27
REMARK   11  A    between atoms: C_31  and  C_32
REMARK                            x       y       z     vdW  Elec       q    Type
REMARK                         _______ _______ _______ _____ _____    ______ ____
ROOT
ATOM      1  CA  ILE A   2       4.824  -1.107  -0.191  0.00  0.00    +0.000 C 
ATOM      2  C   ILE A   2       5.430  -1.933  -1.334  0.00  0.00    +0.000 C 
ATOM      3  O   ILE A   2       5.142  -2.000  -2.493  0.00  0.00    +0.000 OA
ATOM      4  N   UNK A   1       6.410  -2.718  -0.874  0.00  0.00    +0.000 N 
ATOM      5  C   UNK A   1       7.259  -2.239   0.165  0.00  0.00    +0.000 C 
ATOM      6  C   UNK A   1       6.446  -2.165   1.435  0.00  0.00    +0.000 C 
ATOM      7  O   UNK A   1       7.027  -2.414   2.480  0.00  0.00    +0.000 OA
ATOM      8  N   ILE A   2       5.114  -1.726   1.256  0.00  0.00    +0.000 N 
ATOM      9  H   UNK A   1       6.689  -3.350  -1.605  0.00  0.00    +0.000 HD
ENDROOT
BRANCH   5  10
ATOM     10  C   UNK A   1       8.472  -3.151   0.338  0.00  0.00    +0.000 C 
ATOM     11  C   UNK A   1       9.199  -3.165  -1.019  0.00  0.00    +0.000 C 
ATOM     12  C   UNK A   1       8.557  -4.357  -1.682  0.00  0.00    +0.000 A 
ATOM     13  C   UNK A   1       8.329  -4.536  -3.038  0.00  0.00    +0.000 A 
ATOM     14  C   UNK A   1       7.528  -5.608  -3.441  0.00  0.00    +0.000 A 
ATOM     15  C   UNK A   1       6.947  -6.469  -2.495  0.00  0.00    +0.000 A 
ATOM     16  C   UNK A   1       7.121  -6.247  -1.128  0.00  0.00    +0.000 A 
ATOM     17  C   UNK A   1       7.920  -5.183  -0.736  0.00  0.00    +0.000 A 
ATOM     18  C   UNK A   1       8.089  -4.626   0.648  0.00  0.00    +0.000 C 
ENDBRANCH   5  10
BRANCH   1  19
ATOM     19  CB  ILE A   2       3.359  -1.071  -0.538  0.00  0.00    +0.000 C 
ATOM     20  CG2 ILE A   2       2.820   0.382  -0.480  0.00  0.00    +0.000 C 
BRANCH  19  22
ATOM     21  CD1 ILE A   2       3.154  -3.585  -1.005  0.00  0.00    +0.000 C 
ATOM     22  CG1 ILE A   2       2.728  -2.160  -1.500  0.00  0.00    +0.000 C 
ENDBRANCH  19  22
ENDBRANCH   1  19
BRANCH   8  23
ATOM     23  C   UNK A   0       4.079  -1.795   2.470  0.00  0.00    +0.000 C 
BRANCH  23  24
ATOM     24  C   UNK A   0       4.808  -2.067   3.849  0.00  0.00    +0.000 A 
ATOM     25  C   UNK A   0       5.826  -1.221   4.336  0.00  0.00    +0.000 A 
ATOM     26  C   UNK A   0       6.663  -1.635   5.386  0.00  0.00    +0.000 A 
ATOM     27  C   UNK A   0       6.417  -2.838   6.058  0.00  0.00    +0.000 A 
ATOM     28  C   UNK A   0       7.201  -3.326   7.222  0.00  0.00    +0.000 C 
ATOM     29  N   UNK A   0       5.373  -3.643   5.660  0.00  0.00    +0.000 N 
ATOM     30  O   UNK A   0       5.096  -4.734   6.259  0.00  0.00    +0.000 OA
ATOM     31  C   UNK A   0       4.611  -3.254   4.573  0.00  0.00    +0.000 A 
ENDBRANCH  23  24
BRANCH  23  32
ATOM     32  C   UNK A   0       2.739  -2.849   2.337  0.00  0.00    +0.000 C 
ATOM     33  O   UNK A   0       2.805  -4.021   2.728  0.00  0.00    +0.000 OA
ATOM     34  N   UNK A   0       1.520  -2.512   1.725  0.00  0.00    +0.000 N 
ATOM     35  C   UNK A   0       1.205  -1.229   1.197  0.00  0.00    +0.000 C 
ATOM     36  C   UNK A   0       0.656  -3.580   1.201  0.00  0.00    +0.000 C 
ENDBRANCH  23  32
ENDBRANCH   8  23
TORSDOF 6
