REMARK  Name = CHEMBL4209952
REMARK  2 active torsions:
REMARK  status: ('A' for Active; 'I' for Inactive)
REMARK    1  A    between atoms: C_2  and  C_3
REMARK    2  A    between atoms: C_6  and  C_7
REMARK                            x       y       z     vdW  Elec       q    Type
REMARK                         _______ _______ _______ _____ _____    ______ ____
ROOT
ATOM      1  O   UNL     1       2.520  -0.816   1.274  0.00  0.00    +0.000 OA
ATOM      2  C   UNL     1       3.767  -0.966   0.985  0.00  0.00    +0.000 C 
ATOM      3  N   UNL     1       5.350  -1.837   1.689  0.00  0.00    +0.000 N 
ATOM      4  C   UNL     1       5.160  -0.492   1.348  0.00  0.00    +0.000 C 
ATOM      5  C   UNL     1       4.893  -0.633   2.833  0.00  0.00    +0.000 C 
ATOM      6  C   UNL     1       6.406  -0.298   2.686  0.00  0.00    +0.000 C 
ATOM      7  C   UNL     1       6.603  -1.024   4.081  0.00  0.00    +0.000 C 
ATOM      8  C   UNL     1       7.808  -1.214   3.357  0.00  0.00    +0.000 A 
ATOM      9  C   UNL     1       9.058  -0.476   2.689  0.00  0.00    +0.000 A 
ATOM     10  C   UNL     1      10.361  -0.957   2.660  0.00  0.00    +0.000 A 
ATOM     11  C   UNL     1      10.384  -1.828   3.620  0.00  0.00    +0.000 A 
ATOM     12  C   UNL     1       8.746  -2.490   3.604  0.00  0.00    +0.000 A 
ATOM     13  C   UNL     1       7.088  -2.315   2.818  0.00  0.00    +0.000 A 
ENDROOT
BRANCH   2  14
ATOM     14  C   UNL     1       3.485   0.192  -0.597  0.00  0.00    +0.000 A 
ATOM     15  C   UNL     1       4.166  -0.409  -1.590  0.00  0.00    +0.000 A 
ATOM     16  C   UNL     1       4.747   0.239  -2.719  0.00  0.00    +0.000 A 
ATOM     17  C   UNL     1       4.314   1.398  -3.365  0.00  0.00    +0.000 A 
ATOM     18  C   UNL     1       3.222   1.981  -2.753  0.00  0.00    +0.000 A 
ATOM     19  C   UNL     1       2.723   1.383  -1.427  0.00  0.00    +0.000 A 
BRANCH  17  20
ATOM     20  C   UNL     1       4.972   1.830  -4.617  0.00  0.00    +0.000 A 
ATOM     21  N   UNL     1       5.056   0.914  -5.614  0.00  0.00    +0.000 NA
ATOM     22  C   UNL     1       5.698   1.299  -6.734  0.00  0.00    +0.000 A 
ATOM     23  C   UNL     1       6.283   2.529  -6.881  0.00  0.00    +0.000 A 
ATOM     24  C   UNL     1       6.172   3.373  -5.804  0.00  0.00    +0.000 A 
ATOM     25  N   UNL     1       5.514   3.061  -4.668  0.00  0.00    +0.000 NA
ENDBRANCH  17  20
ENDBRANCH   2  14
TORSDOF 2
