REMARK  Name = CHEMBL521789
REMARK  11 active torsions:
REMARK  status: ('A' for Active; 'I' for Inactive)
REMARK    1  A    between atoms: C_1  and  C_2
REMARK    2  A    between atoms: C_2  and  O_3
REMARK    3  A    between atoms: O_3  and  C_4
REMARK    4  A    between atoms: C_7  and  C_8
REMARK    5  A    between atoms: C_11  and  C_12
REMARK    6  A    between atoms: C_12  and  O_13
REMARK    7  A    between atoms: O_13  and  C_14
REMARK    8  A    between atoms: N_15  and  C_16
REMARK    9  A    between atoms: C_19  and  O_20
REMARK   10  A    between atoms: O_20  and  C_21
REMARK   11  A    between atoms: C_25  and  C_26
REMARK                            x       y       z     vdW  Elec       q    Type
REMARK                         _______ _______ _______ _____ _____    ______ ____
ROOT
ATOM      1  C   UNL     1       8.604   2.637  -0.040  0.00  0.00    +0.000 A 
ATOM      2  N   UNL     1       9.482   2.603   0.943  0.00  0.00    +0.000 NA
ATOM      3  N   UNL     1      10.738   2.894   0.433  0.00  0.00    +0.000 NA
ATOM      4  C   UNL     1      10.625   3.131  -0.860  0.00  0.00    +0.000 A 
ATOM      5  N   UNL     1       9.292   2.947  -1.208  0.00  0.00    +0.000 N 
ENDROOT
BRANCH   1   9
ATOM      6  C   UNL     1       4.377   1.573   0.101  0.00  0.00    +0.000 A 
ATOM      7  C   UNL     1       4.911   2.586   0.925  0.00  0.00    +0.000 A 
ATOM      8  C   UNL     1       6.277   2.956   0.877  0.00  0.00    +0.000 A 
ATOM      9  C   UNL     1       7.161   2.296   0.025  0.00  0.00    +0.000 A 
ATOM     10  C   UNL     1       6.613   1.308  -0.809  0.00  0.00    +0.000 A 
ATOM     11  C   UNL     1       5.229   0.961  -0.820  0.00  0.00    +0.000 A 
BRANCH  11  12
ATOM     12  C   UNL     1       4.820  -0.049  -1.860  0.00  0.00    +0.000 C 
ATOM     13  F   UNL     1       5.423   0.177  -3.063  0.00  0.00    +0.000 F 
ATOM     14  F   UNL     1       5.193  -1.308  -1.493  0.00  0.00    +0.000 F 
ATOM     15  F   UNL     1       3.497  -0.113  -2.163  0.00  0.00    +0.000 F 
ENDBRANCH  11  12
BRANCH   6  16
ATOM     16  O   UNL     1       3.015   1.413   0.165  0.00  0.00    +0.000 OA
BRANCH  16  18
ATOM     17  C   UNL     1       0.964   0.144   0.204  0.00  0.00    +0.000 C 
ATOM     18  C   UNL     1       2.482   0.092   0.354  0.00  0.00    +0.000 C 
ENDBRANCH  16  18
ENDBRANCH   6  16
ENDBRANCH   1   9
BRANCH   5  19
ATOM     19  C   UNL     1       8.713   3.114  -2.463  0.00  0.00    +0.000 A 
ATOM     20  C   UNL     1       7.768   4.114  -2.653  0.00  0.00    +0.000 A 
ATOM     21  C   UNL     1       7.318   4.337  -3.941  0.00  0.00    +0.000 A 
ATOM     22  C   UNL     1       7.811   3.551  -4.984  0.00  0.00    +0.000 A 
ATOM     23  N   UNL     1       8.711   2.559  -4.795  0.00  0.00    +0.000 NA
ATOM     24  C   UNL     1       9.151   2.359  -3.542  0.00  0.00    +0.000 A 
BRANCH  22  25
ATOM     25  O   UNL     1       7.464   3.701  -6.295  0.00  0.00    +0.000 OA
ATOM     26  C   UNL     1       6.477   4.685  -6.563  0.00  0.00    +0.000 C 
ENDBRANCH  22  25
ENDBRANCH   5  19
BRANCH   4  27
ATOM     27  C   UNL     1      11.725   3.628  -1.776  0.00  0.00    +0.000 C 
BRANCH  27  28
ATOM     28  O   UNL     1      11.140   4.034  -3.003  0.00  0.00    +0.000 OA
ATOM     29  C   UNL     1      12.020   4.280  -4.080  0.00  0.00    +0.000 C 
ENDBRANCH  27  28
ENDBRANCH   4  27
TORSDOF 8
