REMARK  Name = CHEMBL590349
REMARK  8 active torsions:
REMARK  status: ('A' for Active; 'I' for Inactive)
REMARK    1  A    between atoms: C_1  and  O_2
REMARK    2  A    between atoms: O_2  and  C_3
REMARK    3  A    between atoms: C_3  and  C_4
REMARK    4  A    between atoms: C_10  and  O_11
REMARK    5  A    between atoms: O_11  and  C_12
REMARK    6  A    between atoms: N_20  and  C_21
REMARK    7  A    between atoms: C_24  and  O_25
REMARK    8  A    between atoms: O_25  and  C_26
REMARK                            x       y       z     vdW  Elec       q    Type
REMARK                         _______ _______ _______ _____ _____    ______ ____
ROOT
ATOM      1  C   UNL     1       4.577  -1.246  -0.308  0.00  0.00    +0.000 A 
ATOM      2  N   UNL     1       5.464  -0.268  -0.240  0.00  0.00    +0.000 NA
ATOM      3  N   UNL     1       6.737  -0.828  -0.111  0.00  0.00    +0.000 NA
ATOM      4  C   UNL     1       6.633  -2.148  -0.157  0.00  0.00    +0.000 A 
ATOM      5  N   UNL     1       7.569  -3.127  -0.119  0.00  0.00    +0.000 N 
ATOM      6  C   UNL     1       8.725  -3.385   0.671  0.00  0.00    +0.000 C 
ATOM      7  C   UNL     1       9.343  -4.092  -0.580  0.00  0.00    +0.000 C 
ATOM      8  C   UNL     1       7.852  -4.219  -1.002  0.00  0.00    +0.000 C 
ATOM      9  N   UNL     1       5.282  -2.440  -0.281  0.00  0.00    +0.000 N 
ENDROOT
BRANCH   9  10
ATOM     10  C   UNL     1       4.730  -3.725  -0.253  0.00  0.00    +0.000 A 
ATOM     11  C   UNL     1       3.918  -4.152  -1.291  0.00  0.00    +0.000 A 
ATOM     12  C   UNL     1       3.497  -5.472  -1.276  0.00  0.00    +0.000 A 
ATOM     13  C   UNL     1       3.891  -6.303  -0.228  0.00  0.00    +0.000 A 
ATOM     14  N   UNL     1       4.665  -5.877   0.794  0.00  0.00    +0.000 NA
ATOM     15  C   UNL     1       5.076  -4.596   0.766  0.00  0.00    +0.000 A 
BRANCH  13  16
ATOM     16  O   UNL     1       3.557  -7.621  -0.119  0.00  0.00    +0.000 OA
ATOM     17  C   UNL     1       2.758  -8.146  -1.168  0.00  0.00    +0.000 C 
ENDBRANCH  13  16
ENDBRANCH   9  10
BRANCH   1  18
ATOM     18  C   UNL     1       3.064  -1.208  -0.295  0.00  0.00    +0.000 C 
BRANCH  18  20
ATOM     19  C   UNL     1       1.106   0.089  -0.031  0.00  0.00    +0.000 C 
ATOM     20  O   UNL     1       2.540   0.100  -0.037  0.00  0.00    +0.000 OA
ENDBRANCH  18  20
ENDBRANCH   1  18
BRANCH   7  21
ATOM     21  O   UNL     1      10.242  -3.266  -1.387  0.00  0.00    +0.000 OA
BRANCH  21  22
ATOM     22  C   UNL     1      10.934  -3.893  -2.402  0.00  0.00    +0.000 A 
ATOM     23  C   UNL     1      12.327  -4.000  -2.267  0.00  0.00    +0.000 A 
ATOM     24  C   UNL     1      13.098  -4.581  -3.287  0.00  0.00    +0.000 A 
ATOM     25  C   UNL     1      12.483  -5.086  -4.429  0.00  0.00    +0.000 A 
ATOM     26  C   UNL     1      11.109  -4.953  -4.581  0.00  0.00    +0.000 A 
ATOM     27  C   UNL     1      10.348  -4.305  -3.605  0.00  0.00    +0.000 A 
ATOM     28 CL   UNL     1       8.744  -3.923  -4.096  0.00  0.00    +0.000 Cl
ENDBRANCH  21  22
ENDBRANCH   7  21
TORSDOF 6
