REMARK  Name = CHEMBL2113212
REMARK  9 active torsions:
REMARK  status: ('A' for Active; 'I' for Inactive)
REMARK    1  A    between atoms: C_1  and  C_2
REMARK    2  A    between atoms: C_2  and  C_3
REMARK    3  A    between atoms: C_3  and  C_4
REMARK    4  A    between atoms: C_7  and  S_8
REMARK    5  A    between atoms: S_8  and  N_11
REMARK    6  A    between atoms: N_11  and  C_12
REMARK    7  A    between atoms: N_11  and  C_27
REMARK    8  A    between atoms: C_12  and  C_13
REMARK    9  A    between atoms: N_15  and  N_16
REMARK                            x       y       z     vdW  Elec       q    Type
REMARK                         _______ _______ _______ _____ _____    ______ ____
ROOT
ATOM      1  N   UNL     1       9.491   2.950   1.276  0.00  0.00    +0.000 N 
ENDROOT
BRANCH   1   2
ATOM      2  C   UNL     1      10.977   3.168   1.205  0.00  0.00    +0.000 A 
ATOM      3  C   UNL     1      11.574   3.993   2.178  0.00  0.00    +0.000 A 
ATOM      4  C   UNL     1      12.917   4.411   2.096  0.00  0.00    +0.000 A 
ATOM      5  C   UNL     1      13.731   3.935   1.077  0.00  0.00    +0.000 A 
ATOM      6 CL   UNL     1      15.409   4.327   1.067  0.00  0.00    +0.000 Cl
ATOM      7  C   UNL     1      13.184   3.117   0.094  0.00  0.00    +0.000 A 
ATOM      8  C   UNL     1      11.812   2.755   0.146  0.00  0.00    +0.000 A 
ENDBRANCH   1   2
BRANCH   1   9
ATOM      9  S   UNL     1       8.911   1.355   0.831  0.00  0.00    +0.000 S 
ATOM     10  O   UNL     1       9.462   0.446   1.816  0.00  0.00    +0.000 OA
ATOM     11  O   UNL     1       9.255   1.141  -0.571  0.00  0.00    +0.000 OA
BRANCH   9  15
ATOM     12  C   UNL     1       4.376   1.102   0.305  0.00  0.00    +0.000 A 
ATOM     13  C   UNL     1       5.159  -0.027   0.012  0.00  0.00    +0.000 A 
ATOM     14  C   UNL     1       6.541  -0.012   0.274  0.00  0.00    +0.000 A 
ATOM     15  C   UNL     1       7.112   1.092   0.929  0.00  0.00    +0.000 A 
ATOM     16  C   UNL     1       6.245   2.038   1.444  0.00  0.00    +0.000 A 
ATOM     17  C   UNL     1       4.976   2.183   0.902  0.00  0.00    +0.000 A 
BRANCH  12  18
ATOM     18  C   UNL     1       2.879   1.210   0.292  0.00  0.00    +0.000 C 
BRANCH  18  20
ATOM     19  C   UNL     1       0.771  -0.018  -0.086  0.00  0.00    +0.000 C 
ATOM     20  C   UNL     1       2.268  -0.093  -0.136  0.00  0.00    +0.000 C 
ENDBRANCH  18  20
ENDBRANCH  12  18
ENDBRANCH   9  15
ENDBRANCH   1   9
BRANCH   1  21
ATOM     21  C   UNL     1       8.670   4.244   1.337  0.00  0.00    +0.000 C 
BRANCH  21  22
ATOM     22  C   UNL     1       7.299   4.433   0.639  0.00  0.00    +0.000 C 
ATOM     23  O   UNL     1       7.120   3.784  -0.417  0.00  0.00    +0.000 OA
ATOM     24  N   UNL     1       6.327   5.312   1.237  0.00  0.00    +0.000 N 
ATOM     25  H   UNL     1       6.619   5.822   2.073  0.00  0.00    +0.000 HD
BRANCH  24  26
ATOM     26  N   UNL     1       5.250   6.138   0.522  0.00  0.00    +0.000 NA
ATOM     27  C   UNL     1       4.516   6.877   1.359  0.00  0.00    +0.000 C 
ATOM     28  C   UNL     1       4.167   6.320   2.702  0.00  0.00    +0.000 C 
ATOM     29  O   UNL     1       5.096   6.320   3.476  0.00  0.00    +0.000 OA
ATOM     30  N   UNL     1       2.827   6.668   2.923  0.00  0.00    +0.000 N 
ATOM     31  C   UNL     1       2.800   8.021   2.555  0.00  0.00    +0.000 A 
ATOM     32  C   UNL     1       2.100   8.882   3.425  0.00  0.00    +0.000 A 
ATOM     33  C   UNL     1       2.374  10.226   3.439  0.00  0.00    +0.000 A 
ATOM     34  C   UNL     1       3.401  10.639   2.589  0.00  0.00    +0.000 A 
ATOM     35  C   UNL     1       4.104   9.713   1.660  0.00  0.00    +0.000 A 
ATOM     36  C   UNL     1       3.777   8.327   1.581  0.00  0.00    +0.000 A 
ATOM     37  H   UNL     1       2.152   6.241   2.289  0.00  0.00    +0.000 HD
ENDBRANCH  24  26
ENDBRANCH  21  22
ENDBRANCH   1  21
TORSDOF 8
