REMARK  Name = CHEMBL282781
REMARK  6 active torsions:
REMARK  status: ('A' for Active; 'I' for Inactive)
REMARK    1  A    between atoms: C_1  and  S_2
REMARK    2  A    between atoms: S_2  and  N_5
REMARK    3  A    between atoms: N_8  and  C_9
REMARK    4  A    between atoms: C_9  and  C_10
REMARK    5  A    between atoms: C_14  and  C_15
REMARK    6  A    between atoms: C_20  and  N_21
REMARK                            x       y       z     vdW  Elec       q    Type
REMARK                         _______ _______ _______ _____ _____    ______ ____
ROOT
ATOM      1  C   UNL     1       6.765   2.459   2.696  0.00  0.00    +0.000 A 
ATOM      2  C   UNL     1       7.575   2.901   3.707  0.00  0.00    +0.000 A 
ATOM      3  C   UNL     1       8.554   1.908   3.911  0.00  0.00    +0.000 A 
ATOM      4  C   UNL     1       9.643   1.777   4.779  0.00  0.00    +0.000 A 
ATOM      5  C   UNL     1      10.398   0.597   4.748  0.00  0.00    +0.000 A 
ATOM      6  C   UNL     1      10.027  -0.445   3.877  0.00  0.00    +0.000 A 
ATOM      7  C   UNL     1       8.972  -0.317   2.963  0.00  0.00    +0.000 A 
ATOM      8  C   UNL     1       8.277   0.887   3.012  0.00  0.00    +0.000 A 
ATOM      9  O   UNL     1       7.243   1.266   2.210  0.00  0.00    +0.000 OA
ENDROOT
BRANCH   5  10
ATOM     10  C   UNL     1      11.552   0.484   5.701  0.00  0.00    +0.000 C 
ATOM     11  O   UNL     1      11.736   1.333   6.568  0.00  0.00    +0.000 OA
ATOM     12  N   UNL     1      12.418  -0.579   5.528  0.00  0.00    +0.000 N 
ATOM     13  C   UNL     1      12.562  -1.627   6.540  0.00  0.00    +0.000 C 
ATOM     14  C   UNL     1      14.024  -1.991   6.735  0.00  0.00    +0.000 C 
ATOM     15  C   UNL     1      14.714  -2.292   5.386  0.00  0.00    +0.000 C 
ATOM     16  C   UNL     1      14.530  -1.121   4.416  0.00  0.00    +0.000 C 
ATOM     17  C   UNL     1      13.077  -0.756   4.247  0.00  0.00    +0.000 C 
BRANCH  15  18
ATOM     18  N   UNL     1      14.378  -3.653   4.845  0.00  0.00    +0.000 N 
ATOM     19  C   UNL     1      13.079  -4.080   4.522  0.00  0.00    +0.000 C 
ATOM     20  O   UNL     1      12.213  -3.483   3.928  0.00  0.00    +0.000 OA
ATOM     21  O   UNL     1      12.785  -5.305   5.038  0.00  0.00    +0.000 OA
ATOM     22  C   UNL     1      13.551  -6.312   4.416  0.00  0.00    +0.000 C 
ATOM     23  C   UNL     1      15.003  -5.954   4.414  0.00  0.00    +0.000 A 
ATOM     24  C   UNL     1      15.945  -6.949   4.145  0.00  0.00    +0.000 A 
ATOM     25  C   UNL     1      17.295  -6.629   4.110  0.00  0.00    +0.000 A 
ATOM     26  C   UNL     1      17.703  -5.318   4.333  0.00  0.00    +0.000 A 
ATOM     27  C   UNL     1      16.764  -4.319   4.600  0.00  0.00    +0.000 A 
ATOM     28  C   UNL     1      15.403  -4.627   4.652  0.00  0.00    +0.000 A 
ENDBRANCH  15  18
ENDBRANCH   5  10
BRANCH   1  29
ATOM     29  C   UNL     1       5.519   3.053   2.125  0.00  0.00    +0.000 C 
BRANCH  29  33
ATOM     30  N   UNL     1       3.331   1.295  -0.276  0.00  0.00    +0.000 NA
ATOM     31  C   UNL     1       3.009   2.674   0.281  0.00  0.00    +0.000 C 
ATOM     32  C   UNL     1       3.079   2.734   1.820  0.00  0.00    +0.000 C 
ATOM     33  N   UNL     1       4.353   2.209   2.385  0.00  0.00    +0.000 NA
ATOM     34  C   UNL     1       4.588   0.887   1.784  0.00  0.00    +0.000 C 
ATOM     35  C   UNL     1       4.696   0.946   0.230  0.00  0.00    +0.000 C 
BRANCH  30  37
ATOM     36  C   UNL     1       0.748   0.150  -0.107  0.00  0.00    +0.000 C 
ATOM     37  S   UNL     1       2.461  -0.182  -0.177  0.00  0.00    +0.000 S 
ATOM     38  O   UNL     1       2.712  -0.872   1.071  0.00  0.00    +0.000 OA
ATOM     39  O   UNL     1       2.767  -0.894  -1.399  0.00  0.00    +0.000 OA
ENDBRANCH  30  37
ENDBRANCH  29  33
ENDBRANCH   1  29
TORSDOF 5
