REMARK  Name = CHEMBL265858
REMARK  19 active torsions:
REMARK  status: ('A' for Active; 'I' for Inactive)
REMARK    1  A    between atoms: C_2  and  C_4
REMARK    2  A    between atoms: C_4  and  N_5
REMARK    3  A    between atoms: C_6  and  C_8
REMARK    4  A    between atoms: C_8  and  C_9
REMARK    5  A    between atoms: C_8  and  N_16
REMARK    6  A    between atoms: C_9  and  C_10
REMARK    7  A    between atoms: C_10  and  C_11
REMARK    8  A    between atoms: C_11  and  N_12
REMARK    9  A    between atoms: C_17  and  C_19
REMARK   10  A    between atoms: C_24  and  C_26
REMARK   11  A    between atoms: C_35  and  C_36
REMARK   12  A    between atoms: C_36  and  C_37
REMARK   13  A    between atoms: C_40  and  O_41
REMARK   14  A    between atoms: C_47  and  C_48
REMARK   15  A    between atoms: C_48  and  C_49
REMARK   16  A    between atoms: C_58  and  C_59
REMARK   17  A    between atoms: C_59  and  C_60
REMARK   18  A    between atoms: C_69  and  C_70
REMARK   19  A    between atoms: C_70  and  C_71
REMARK                            x       y       z     vdW  Elec       q    Type
REMARK                         _______ _______ _______ _____ _____    ______ ____
ROOT
ATOM      1  C   UNL     1      10.869   5.559  -0.841  0.00  0.00    +0.000 C 
ATOM      2  C   UNL     1      10.786   8.056  -0.022  0.00  0.00    +0.000 C 
ATOM      3  S   UNL     1       9.814  10.177   1.407  0.00  0.00    +0.000 S 
ATOM      4  S   UNL     1       8.272  12.167   2.661  0.00  0.00    +0.000 S 
ATOM      5  C   UNL     1       6.277  11.994   2.799  0.00  0.00    +0.000 C 
ATOM      6  C   UNL     1       4.999  12.749   2.474  0.00  0.00    +0.000 C 
ATOM      7  C   UNL     1       3.761  11.916   2.065  0.00  0.00    +0.000 C 
ATOM      8  O   UNL     1       2.657  12.455   1.961  0.00  0.00    +0.000 OA
ATOM      9  N   UNL     1       3.920  10.586   1.774  0.00  0.00    +0.000 N 
ATOM     10  C   UNL     1       5.150   9.840   1.877  0.00  0.00    +0.000 C 
ATOM     11  C   UNL     1       6.140  10.456   0.676  0.00  0.00    +0.000 C 
ATOM     12  O   UNL     1       6.439  11.657   0.454  0.00  0.00    +0.000 OA
ATOM     13  N   UNL     1       6.814   9.611  -0.029  0.00  0.00    +0.000 N 
ATOM     14  C   UNL     1       6.483   8.248  -0.177  0.00  0.00    +0.000 C 
ATOM     15  C   UNL     1       6.983   7.389   1.344  0.00  0.00    +0.000 C 
ATOM     16  O   UNL     1       6.879   7.836   2.508  0.00  0.00    +0.000 OA
ATOM     17  N   UNL     1       7.356   6.115   1.293  0.00  0.00    +0.000 N 
ATOM     18  C   UNL     1       7.982   5.629   0.175  0.00  0.00    +0.000 C 
ATOM     19  C   UNL     1       6.904   5.182  -0.720  0.00  0.00    +0.000 C 
ATOM     20  O   UNL     1       5.998   5.827  -1.252  0.00  0.00    +0.000 OA
ATOM     21  N   UNL     1       7.193   4.028  -1.224  0.00  0.00    +0.000 N 
ATOM     22  C   UNL     1       8.309   3.197  -0.828  0.00  0.00    +0.000 C 
ATOM     23  C   UNL     1       9.332   4.559  -1.470  0.00  0.00    +0.000 C 
ATOM     24  O   UNL     1       9.291   5.615  -1.145  0.00  0.00    +0.000 OA
ATOM     25  N   UNL     1      10.997   4.120  -1.860  0.00  0.00    +0.000 N 
ATOM     26  H   UNL     1       3.103  10.000   1.547  0.00  0.00    +0.000 HD
ATOM     27  H   UNL     1       7.453  10.069  -0.647  0.00  0.00    +0.000 HD
ATOM     28  H   UNL     1       7.977   5.946   2.072  0.00  0.00    +0.000 HD
ATOM     29  H   UNL     1       6.816   3.889  -2.151  0.00  0.00    +0.000 HD
ATOM     30  H   UNL     1      11.689   3.547  -2.727  0.00  0.00    +0.000 HD
ENDROOT
BRANCH   1  36
ATOM     31  C   UNL     1       7.921   2.592  -4.132  0.00  0.00    +0.000 C 
ATOM     32  C   UNL     1       6.383   2.459  -3.692  0.00  0.00    +0.000 C 
ATOM     33  C   UNL     1       5.951   1.186  -4.233  0.00  0.00    +0.000 C 
ATOM     34  C   UNL     1       7.757   0.585  -3.818  0.00  0.00    +0.000 C 
ATOM     35  N   UNL     1       9.257   2.001  -3.177  0.00  0.00    +0.000 N 
ATOM     36  C   UNL     1      10.334   3.373  -1.854  0.00  0.00    +0.000 C 
ATOM     37  O   UNL     1      10.481   1.841  -2.162  0.00  0.00    +0.000 OA
BRANCH  31  39
ATOM     38  N   UNL     1       9.193   4.696  -3.931  0.00  0.00    +0.000 N 
ATOM     39  C   UNL     1       8.565   3.662  -3.717  0.00  0.00    +0.000 C 
ATOM     40  O   UNL     1       8.554   3.519  -2.594  0.00  0.00    +0.000 OA
ATOM     41  H   UNL     1       8.929   4.881  -4.800  0.00  0.00    +0.000 HD
BRANCH  38  42
ATOM     42  C   UNL     1       9.964   5.723  -3.230  0.00  0.00    +0.000 C 
BRANCH  42  44
ATOM     43  N   UNL     1       9.751   7.463  -1.291  0.00  0.00    +0.000 N 
ATOM     44  C   UNL     1       8.978   6.582  -2.531  0.00  0.00    +0.000 C 
ATOM     45  O   UNL     1       7.942   5.881  -2.482  0.00  0.00    +0.000 OA
ATOM     46  H   UNL     1      10.757   7.121  -1.056  0.00  0.00    +0.000 HD
BRANCH  43  47
ATOM     47  C   UNL     1       9.007   7.767   0.434  0.00  0.00    +0.000 C 
BRANCH  47  49
ATOM     48  N   UNL     1       9.197   8.492   2.747  0.00  0.00    +0.000 N 
ATOM     49  C   UNL     1       9.906   7.984   1.552  0.00  0.00    +0.000 C 
ATOM     50  O   UNL     1      11.411   7.367   1.198  0.00  0.00    +0.000 OA
ATOM     51  H   UNL     1       9.713   9.288   3.193  0.00  0.00    +0.000 HD
ATOM     52  H   UNL     1       8.201   8.614   2.849  0.00  0.00    +0.000 HD
ENDBRANCH  47  49
ENDBRANCH  43  47
ENDBRANCH  42  44
BRANCH  42  53
ATOM     53  C   UNL     1      10.373   6.877  -3.864  0.00  0.00    +0.000 C 
BRANCH  53  54
ATOM     54  C   UNL     1      10.051   6.598  -5.260  0.00  0.00    +0.000 C 
BRANCH  54  55
ATOM     55  C   UNL     1      10.551   7.736  -6.059  0.00  0.00    +0.000 C 
BRANCH  55  56
ATOM     56  N   UNL     1      10.267   7.499  -7.474  0.00  0.00    +0.000 NA
ATOM     57  C   UNL     1      10.640   8.398  -8.333  0.00  0.00    +0.000 C 
ATOM     58  N   UNL     1      11.291   9.557  -7.966  0.00  0.00    +0.000 N 
ATOM     59  N   UNL     1      10.381   8.196  -9.682  0.00  0.00    +0.000 N 
ATOM     60  H   UNL     1      11.507   9.760  -6.983  0.00  0.00    +0.000 HD
ATOM     61  H   UNL     1      11.596  10.279  -8.602  0.00  0.00    +0.000 HD
ATOM     62  H   UNL     1       9.899   7.350 -10.021  0.00  0.00    +0.000 HD
ATOM     63  H   UNL     1      10.633   8.837 -10.425  0.00  0.00    +0.000 HD
ENDBRANCH  55  56
ENDBRANCH  54  55
ENDBRANCH  53  54
ENDBRANCH  42  53
ENDBRANCH  38  42
ENDBRANCH  31  39
ENDBRANCH   1  36
BRANCH  10  64
ATOM     64  C   UNL     1       4.736   8.468   1.668  0.00  0.00    +0.000 C 
BRANCH  64  65
ATOM     65  C   UNL     1       4.041   7.713   2.660  0.00  0.00    +0.000 A 
ATOM     66  C   UNL     1       3.185   8.450   3.416  0.00  0.00    +0.000 A 
ATOM     67  C   UNL     1       2.365   7.863   4.326  0.00  0.00    +0.000 A 
ATOM     68  C   UNL     1       2.424   6.501   4.481  0.00  0.00    +0.000 A 
ATOM     69  C   UNL     1       3.326   5.751   3.751  0.00  0.00    +0.000 A 
ATOM     70  C   UNL     1       4.143   6.353   2.827  0.00  0.00    +0.000 A 
BRANCH  68  71
ATOM     71  O   UNL     1       1.638   5.809   5.344  0.00  0.00    +0.000 OA
ATOM     72  H   UNL     1       1.007   6.350   5.844  0.00  0.00    +0.000 HD
ENDBRANCH  68  71
ENDBRANCH  64  65
ENDBRANCH  10  64
BRANCH  14  73
ATOM     73  C   UNL     1       7.190   7.888  -1.369  0.00  0.00    +0.000 C 
BRANCH  73  74
ATOM     74  C   UNL     1       6.914   8.339  -2.650  0.00  0.00    +0.000 A 
ATOM     75  C   UNL     1       7.356   9.592  -2.834  0.00  0.00    +0.000 A 
ATOM     76  C   UNL     1       6.883  10.229  -3.913  0.00  0.00    +0.000 A 
ATOM     77  C   UNL     1       6.314   9.547  -4.948  0.00  0.00    +0.000 A 
ATOM     78  C   UNL     1       5.971   8.242  -4.758  0.00  0.00    +0.000 A 
ATOM     79  C   UNL     1       6.291   7.611  -3.605  0.00  0.00    +0.000 A 
ENDBRANCH  73  74
ENDBRANCH  14  73
BRANCH  18  80
ATOM     80  C   UNL     1       9.297   4.874   0.724  0.00  0.00    +0.000 C 
BRANCH  80  81
ATOM     81  C   UNL     1      10.624   5.160   1.329  0.00  0.00    +0.000 C 
ATOM     82  C   UNL     1      10.280   6.250   2.044  0.00  0.00    +0.000 C 
ATOM     83  C   UNL     1      11.311   7.210   2.920  0.00  0.00    +0.000 C 
ATOM     84  C   UNL     1      11.253   6.333   3.953  0.00  0.00    +0.000 C 
ATOM     85  C   UNL     1      11.618   4.965   3.442  0.00  0.00    +0.000 C 
ATOM     86  C   UNL     1      10.676   4.365   2.454  0.00  0.00    +0.000 C 
ENDBRANCH  80  81
ENDBRANCH  18  80
BRANCH  22  87
ATOM     87  C   UNL     1       8.208   1.778  -1.313  0.00  0.00    +0.000 C 
BRANCH  87  88
ATOM     88  C   UNL     1       6.948   1.194  -1.197  0.00  0.00    +0.000 C 
ATOM     89  N   UNL     1       6.162   1.984  -0.448  0.00  0.00    +0.000 N 
ATOM     90  O   UNL     1       6.633   0.149  -1.714  0.00  0.00    +0.000 OA
ATOM     91  H   UNL     1       6.427   2.920  -0.134  0.00  0.00    +0.000 HD
ATOM     92  H   UNL     1       5.272   1.657  -0.205  0.00  0.00    +0.000 HD
ENDBRANCH  87  88
ENDBRANCH  22  87
TORSDOF 19
