REMARK  Name = CHEMBL2037517
REMARK  11 active torsions:
REMARK  status: ('A' for Active; 'I' for Inactive)
REMARK    1  A    between atoms: C_1  and  C_2
REMARK    2  A    between atoms: C_2  and  C_3
REMARK    3  A    between atoms: C_3  and  C_4
REMARK    4  A    between atoms: C_3  and  C_6
REMARK    5  A    between atoms: C_4  and  C_5
REMARK    6  A    between atoms: C_10  and  C_11
REMARK    7  A    between atoms: N_22  and  C_23
REMARK    8  A    between atoms: C_23  and  C_24
REMARK    9  A    between atoms: C_23  and  C_32
REMARK   10  A    between atoms: C_35  and  C_36
REMARK   11  A    between atoms: C_38  and  C_39
REMARK                            x       y       z     vdW  Elec       q    Type
REMARK                         _______ _______ _______ _____ _____    ______ ____
ROOT
ATOM      1  C   UNK A   2       4.792   1.332  -0.173  0.00  0.00    +0.000 C 
ATOM      2  C   UNK A   2       5.280   0.118   0.550  0.00  0.00    +0.000 C 
ATOM      3  O   UNK A   2       4.873  -1.074   0.577  0.00  0.00    +0.000 OA
ATOM      4  N   UNK A   1       6.425   0.255   1.156  0.00  0.00    +0.000 N 
ATOM      5  C   UNK A   1       7.291   1.363   0.897  0.00  0.00    +0.000 C 
ATOM      6  C   UNK A   1       6.527   2.629   1.195  0.00  0.00    +0.000 C 
ATOM      7  O   UNK A   1       7.127   3.557   1.751  0.00  0.00    +0.000 OA
ATOM      8  N   UNK A   2       5.184   2.613   0.828  0.00  0.00    +0.000 N 
ATOM      9  H   UNK A   1       6.724  -0.644   1.511  0.00  0.00    +0.000 HD
ENDROOT
BRANCH   5  10
ATOM     10  C   UNK A   1       8.437   1.312   1.896  0.00  0.00    +0.000 C 
ATOM     11  C   UNK A   1       9.256   0.040   1.670  0.00  0.00    +0.000 C 
ATOM     12  C   UNK A   1       8.603  -0.920   2.625  0.00  0.00    +0.000 A 
ATOM     13  C   UNK A   1       8.583  -2.299   2.538  0.00  0.00    +0.000 A 
ATOM     14  C   UNK A   1       7.789  -3.008   3.442  0.00  0.00    +0.000 A 
ATOM     15  C   UNK A   1       7.006  -2.337   4.395  0.00  0.00    +0.000 A 
ATOM     16  C   UNK A   1       6.998  -0.943   4.455  0.00  0.00    +0.000 A 
ATOM     17  C   UNK A   1       7.814  -0.247   3.575  0.00  0.00    +0.000 A 
ATOM     18  C   UNK A   1       7.884   1.236   3.361  0.00  0.00    +0.000 C 
ENDBRANCH   5  10
BRANCH   1  19
ATOM     19  C   UNK A   2       3.300   1.154  -0.608  0.00  0.00    +0.000 C 
BRANCH  19  21
ATOM     20  C   UNK A   2       1.025  -1.266  -0.468  0.00  0.00    +0.000 C 
ATOM     21  C   UNK A   2       2.663  -0.621  -0.590  0.00  0.00    +0.000 C 
ENDBRANCH  19  21
BRANCH  19  22
ATOM     22  C   UNK A   2       2.817   2.402   0.185  0.00  0.00    +0.000 C 
ATOM     23  C   UNK A   2       1.615   3.341   0.509  0.00  0.00    +0.000 C 
ENDBRANCH  19  22
ENDBRANCH   1  19
BRANCH   8  24
ATOM     24  C   UNK A   0       4.117   3.588   1.737  0.00  0.00    +0.000 C 
BRANCH  24  25
ATOM     25  C   UNK A   0       2.609   2.860   2.779  0.00  0.00    +0.000 C 
ATOM     26  O   UNK A   0       2.013   3.510   3.662  0.00  0.00    +0.000 OA
ATOM     27  N   UNK A   0       1.507   1.709   2.367  0.00  0.00    +0.000 N 
ATOM     28  C   UNK A   0       1.698   0.626   1.383  0.00  0.00    +0.000 C 
ATOM     29  C   UNK A   0       0.886   1.046  -0.304  0.00  0.00    +0.000 C 
ATOM     30  O   UNK A   0      -0.511   1.023  -0.192  0.00  0.00    +0.000 OA
ATOM     31  C   UNK A   0      -0.913   2.049   0.710  0.00  0.00    +0.000 C 
ATOM     32  C   UNK A   0      -0.131   2.031   2.300  0.00  0.00    +0.000 C 
ENDBRANCH  24  25
BRANCH  24  33
ATOM     33  C   UNK A   0       4.845   4.939   2.094  0.00  0.00    +0.000 A 
ATOM     34  C   UNK A   0       5.785   5.594   1.222  0.00  0.00    +0.000 A 
ATOM     35  C   UNK A   0       6.598   6.612   1.723  0.00  0.00    +0.000 A 
ATOM     36  C   UNK A   0       6.335   7.040   3.006  0.00  0.00    +0.000 A 
ATOM     37  C   UNK A   0       7.070   8.086   3.734  0.00  0.00    +0.000 C 
ATOM     38  N   UNK A   0       5.332   6.583   3.749  0.00  0.00    +0.000 NA
ATOM     39  C   UNK A   0       4.618   5.572   3.287  0.00  0.00    +0.000 A 
ATOM     40  C   UNK A   0       3.522   5.226   4.176  0.00  0.00    +0.000 C 
ENDBRANCH  24  33
ENDBRANCH   8  24
TORSDOF 7
