REMARK  Name = CHEMBL2112903
REMARK  14 active torsions:
REMARK  status: ('A' for Active; 'I' for Inactive)
REMARK    1  A    between atoms: C_1  and  C_2
REMARK    2  A    between atoms: C_7  and  N_8
REMARK    3  A    between atoms: N_11  and  S_12
REMARK    4  A    between atoms: S_12  and  C_15
REMARK    5  A    between atoms: C_15  and  C_16
REMARK    6  A    between atoms: C_21  and  N_22
REMARK    7  A    between atoms: C_23  and  C_25
REMARK    8  A    between atoms: C_25  and  N_26
REMARK    9  A    between atoms: C_25  and  C_27
REMARK   10  A    between atoms: C_27  and  C_28
REMARK   11  A    between atoms: C_28  and  S_29
REMARK   12  A    between atoms: S_29  and  C_30
REMARK   13  A    between atoms: C_33  and  C_34
REMARK   14  A    between atoms: C_33  and  C_35
REMARK                            x       y       z     vdW  Elec       q    Type
REMARK                         _______ _______ _______ _____ _____    ______ ____
ROOT
ATOM      1  C   UNL     1       2.996   7.001  -3.247  0.00  0.00    +0.000 C 
ATOM      2  C   UNL     1       1.932   6.479  -4.258  0.00  0.00    +0.000 C 
ATOM      3  C   UNL     1       1.308   7.814  -4.800  0.00  0.00    +0.000 C 
ATOM      4  C   UNL     1       2.028   8.898  -3.969  0.00  0.00    +0.000 C 
ATOM      5  C   UNL     1       3.473   9.054  -4.496  0.00  0.00    +0.000 C 
ATOM      6  C   UNL     1       4.138   7.720  -4.090  0.00  0.00    +0.000 C 
ATOM      7  C   UNL     1       2.189   8.193  -2.609  0.00  0.00    +0.000 C 
ATOM      8  C   UNL     1       2.970   9.026  -1.585  0.00  0.00    +0.000 C 
ATOM      9  C   UNL     1       0.759   7.888  -2.052  0.00  0.00    +0.000 C 
ENDROOT
BRANCH   6  10
ATOM     10  N   UNL     1       4.710   6.919  -5.201  0.00  0.00    +0.000 N 
ATOM     11  C   UNL     1       4.031   6.609  -6.360  0.00  0.00    +0.000 C 
ATOM     12  O   UNL     1       2.974   7.138  -6.679  0.00  0.00    +0.000 OA
ATOM     13  H   UNL     1       5.720   6.890  -5.266  0.00  0.00    +0.000 HD
BRANCH  11  14
ATOM     14  C   UNL     1       4.595   5.602  -7.349  0.00  0.00    +0.000 C 
BRANCH  14  15
ATOM     15  N   UNL     1       5.343   4.509  -6.719  0.00  0.00    +0.000 NA
ATOM     16  H   UNL     1       4.723   3.952  -6.134  0.00  0.00    +0.000 HD
ATOM     17  H   UNL     1       6.071   4.880  -6.116  0.00  0.00    +0.000 HD
ENDBRANCH  14  15
BRANCH  14  18
ATOM     18  C   UNL     1       3.394   5.027  -8.148  0.00  0.00    +0.000 C 
BRANCH  18  19
ATOM     19  C   UNL     1       3.851   4.226  -9.341  0.00  0.00    +0.000 C 
BRANCH  19  20
ATOM     20  S   UNL     1       2.506   3.630 -10.351  0.00  0.00    +0.000 S 
ATOM     21  C   UNL     1       1.547   2.560  -9.296  0.00  0.00    +0.000 C 
ATOM     22  O   UNL     1       1.669   4.758 -10.712  0.00  0.00    +0.000 OA
ATOM     23  O   UNL     1       3.098   2.798 -11.382  0.00  0.00    +0.000 OA
ENDBRANCH  19  20
ENDBRANCH  18  19
ENDBRANCH  14  18
ENDBRANCH  11  14
ENDBRANCH   6  10
BRANCH   1  24
ATOM     24  C   UNL     1       3.602   5.945  -2.297  0.00  0.00    +0.000 C 
BRANCH  24  25
ATOM     25  S   UNL     1       2.532   5.634  -0.887  0.00  0.00    +0.000 S 
ATOM     26  O   UNL     1       1.264   5.226  -1.472  0.00  0.00    +0.000 OA
ATOM     27  O   UNL     1       2.579   6.698   0.072  0.00  0.00    +0.000 OA
BRANCH  25  31
ATOM     28  N   UNL     1       1.058   2.379  -0.022  0.00  0.00    +0.000 N 
ATOM     29  C   UNL     1       0.832   3.571   0.811  0.00  0.00    +0.000 C 
ATOM     30  C   UNL     1       2.232   4.125   1.219  0.00  0.00    +0.000 C 
ATOM     31  N   UNL     1       3.131   4.346  -0.015  0.00  0.00    +0.000 NA
ATOM     32  C   UNL     1       3.269   3.076  -0.765  0.00  0.00    +0.000 C 
ATOM     33  C   UNL     1       1.895   2.554  -1.214  0.00  0.00    +0.000 C 
BRANCH  28  40
ATOM     34  C   UNL     1       2.501  -0.115   0.053  0.00  0.00    +0.000 C 
ATOM     35  C   UNL     1       0.995  -0.027   0.022  0.00  0.00    +0.000 A 
ATOM     36  C   UNL     1       0.263  -1.217   0.008  0.00  0.00    +0.000 A 
ATOM     37  C   UNL     1      -1.127  -1.188   0.004  0.00  0.00    +0.000 A 
ATOM     38  C   UNL     1      -1.797   0.032   0.017  0.00  0.00    +0.000 A 
ATOM     39  C   UNL     1      -1.077   1.230   0.047  0.00  0.00    +0.000 A 
ATOM     40  C   UNL     1       0.322   1.220   0.036  0.00  0.00    +0.000 A 
ENDBRANCH  28  40
ENDBRANCH  25  31
ENDBRANCH  24  25
ENDBRANCH   1  24
TORSDOF 10
