REMARK  Name = CHEMBL25310
REMARK  12 active torsions:
REMARK  status: ('A' for Active; 'I' for Inactive)
REMARK    1  A    between atoms: C_1  and  C_2
REMARK    2  A    between atoms: C_2  and  C_4
REMARK    3  A    between atoms: C_4  and  C_5
REMARK    4  A    between atoms: C_5  and  C_6
REMARK    5  A    between atoms: C_6  and  C_7
REMARK    6  A    between atoms: N_9  and  C_10
REMARK    7  A    between atoms: C_12  and  C_13
REMARK    8  A    between atoms: N_25  and  C_26
REMARK    9  A    between atoms: C_26  and  C_27
REMARK   10  A    between atoms: N_29  and  C_30
REMARK   11  A    between atoms: C_30  and  C_31
REMARK   12  A    between atoms: C_31  and  C_32
REMARK                            x       y       z     vdW  Elec       q    Type
REMARK                         _______ _______ _______ _____ _____    ______ ____
ROOT
ATOM      1  C   UNL     1       9.465   2.104   2.120  0.00  0.00    +0.000 C 
ATOM      2  N   UNL     1       9.889   0.951   2.918  0.00  0.00    +0.000 NA
ATOM      3  C   UNL     1      11.101   0.519   2.782  0.00  0.00    +0.000 C 
ATOM      4  C   UNL     1      12.139   1.124   1.886  0.00  0.00    +0.000 A 
ATOM      5  C   UNL     1      13.067   0.260   1.272  0.00  0.00    +0.000 A 
ATOM      6  C   UNL     1      14.117   0.762   0.503  0.00  0.00    +0.000 A 
ATOM      7  C   UNL     1      14.209   2.126   0.273  0.00  0.00    +0.000 A 
ATOM      8  C   UNL     1      13.255   2.983   0.815  0.00  0.00    +0.000 A 
ATOM      9  C   UNL     1      12.271   2.513   1.705  0.00  0.00    +0.000 A 
ATOM     10  N   UNL     1      11.550   3.469   2.485  0.00  0.00    +0.000 N 
ATOM     11  C   UNL     1      10.171   3.373   2.687  0.00  0.00    +0.000 C 
ATOM     12  O   UNL     1       9.536   4.273   3.253  0.00  0.00    +0.000 OA
ENDROOT
BRANCH   3  13
ATOM     13  C   UNL     1      11.505  -0.668   3.601  0.00  0.00    +0.000 A 
ATOM     14  C   UNL     1      10.818  -1.882   3.494  0.00  0.00    +0.000 A 
ATOM     15  C   UNL     1      11.163  -2.949   4.332  0.00  0.00    +0.000 A 
ATOM     16  C   UNL     1      12.246  -2.831   5.206  0.00  0.00    +0.000 A 
ATOM     17  C   UNL     1      12.992  -1.654   5.237  0.00  0.00    +0.000 A 
ATOM     18  C   UNL     1      12.594  -0.555   4.474  0.00  0.00    +0.000 A 
ENDBRANCH   3  13
BRANCH   1  21
ATOM     19  C   UNL     1       7.170   1.499   1.473  0.00  0.00    +0.000 C 
ATOM     20  O   UNL     1       7.579   0.711   0.622  0.00  0.00    +0.000 OA
ATOM     21  N   UNL     1       8.023   2.242   2.249  0.00  0.00    +0.000 N 
ATOM     22  H   UNL     1       7.689   2.915   2.926  0.00  0.00    +0.000 HD
BRANCH  19  23
ATOM     23  C   UNL     1       5.680   1.737   1.712  0.00  0.00    +0.000 C 
BRANCH  23  24
ATOM     24  C   UNL     1       4.850   0.822   0.804  0.00  0.00    +0.000 C 
BRANCH  24  25
ATOM     25  C   UNL     1       3.338   0.981   0.960  0.00  0.00    +0.000 C 
BRANCH  25  27
ATOM     26  C   UNL     1       1.087   0.077   0.066  0.00  0.00    +0.000 C 
ATOM     27  C   UNL     1       2.591   0.036   0.025  0.00  0.00    +0.000 C 
ATOM     28  O   UNL     1       3.168  -0.736  -0.741  0.00  0.00    +0.000 OA
ENDBRANCH  25  27
ENDBRANCH  24  25
ENDBRANCH  23  24
ENDBRANCH  19  23
ENDBRANCH   1  21
BRANCH  10  29
ATOM     29  C   UNL     1      12.265   4.621   3.094  0.00  0.00    +0.000 C 
BRANCH  29  30
ATOM     30  C   UNL     1      13.808   4.580   3.169  0.00  0.00    +0.000 C 
ATOM     31  O   UNL     1      14.462   3.531   3.111  0.00  0.00    +0.000 OA
ATOM     32  N   UNL     1      14.475   5.778   3.323  0.00  0.00    +0.000 N 
ATOM     33  H   UNL     1      14.036   6.535   3.834  0.00  0.00    +0.000 HD
BRANCH  32  34
ATOM     34  C   UNL     1      15.920   5.720   3.200  0.00  0.00    +0.000 C 
BRANCH  34  35
ATOM     35  C   UNL     1      16.667   6.904   3.794  0.00  0.00    +0.000 C 
BRANCH  35  36
ATOM     36  C   UNL     1      18.158   6.835   3.545  0.00  0.00    +0.000 A 
ATOM     37  C   UNL     1      18.885   8.026   3.437  0.00  0.00    +0.000 A 
ATOM     38  C   UNL     1      20.221   8.001   3.034  0.00  0.00    +0.000 A 
ATOM     39  C   UNL     1      20.878   6.784   2.858  0.00  0.00    +0.000 A 
ATOM     40  C   UNL     1      20.207   5.594   3.108  0.00  0.00    +0.000 A 
ATOM     41  C   UNL     1      18.847   5.618   3.412  0.00  0.00    +0.000 A 
ENDBRANCH  35  36
ENDBRANCH  34  35
ENDBRANCH  32  34
ENDBRANCH  29  30
ENDBRANCH  10  29
TORSDOF 11
