REMARK  Name = CHEMBL2369835
REMARK  21 active torsions:
REMARK  status: ('A' for Active; 'I' for Inactive)
REMARK    1  A    between atoms: C_2  and  C_4
REMARK    2  A    between atoms: C_4  and  N_5
REMARK    3  A    between atoms: C_6  and  C_8
REMARK    4  A    between atoms: C_8  and  C_9
REMARK    5  A    between atoms: C_8  and  N_16
REMARK    6  A    between atoms: C_9  and  C_10
REMARK    7  A    between atoms: C_10  and  C_11
REMARK    8  A    between atoms: C_11  and  N_12
REMARK    9  A    between atoms: C_17  and  C_19
REMARK   10  A    between atoms: C_24  and  C_26
REMARK   11  A    between atoms: C_35  and  C_36
REMARK   12  A    between atoms: C_36  and  C_37
REMARK   13  A    between atoms: C_40  and  O_41
REMARK   14  A    between atoms: C_47  and  C_48
REMARK   15  A    between atoms: C_48  and  C_49
REMARK   16  A    between atoms: C_58  and  C_59
REMARK   17  A    between atoms: C_59  and  C_60
REMARK   18  A    between atoms: C_60  and  C_61
REMARK   19  A    between atoms: C_61  and  O_63
REMARK   20  A    between atoms: C_67  and  C_68
REMARK   21  A    between atoms: C_68  and  C_69
REMARK                            x       y       z     vdW  Elec       q    Type
REMARK                         _______ _______ _______ _____ _____    ______ ____
ROOT
ATOM      1  C   UNL     1       8.493   2.226   5.796  0.00  0.00    +0.000 C 
ATOM      2  C   UNL     1       7.780   4.451   6.694  0.00  0.00    +0.000 C 
ATOM      3  S   UNL     1       7.364   7.049   6.971  0.00  0.00    +0.000 S 
ATOM      4  S   UNL     1       7.476   9.789   7.355  0.00  0.00    +0.000 S 
ATOM      5  C   UNL     1       8.200  11.104   5.827  0.00  0.00    +0.000 C 
ATOM      6  C   UNL     1       9.264  12.155   5.405  0.00  0.00    +0.000 C 
ATOM      7  C   UNL     1      10.011  11.955   4.057  0.00  0.00    +0.000 C 
ATOM      8  O   UNL     1      10.705  12.850   3.570  0.00  0.00    +0.000 OA
ATOM      9  N   UNL     1       9.950  10.738   3.449  0.00  0.00    +0.000 N 
ATOM     10  C   UNL     1       9.142   9.618   3.877  0.00  0.00    +0.000 C 
ATOM     11  C   UNL     1       9.856   9.069   5.257  0.00  0.00    +0.000 C 
ATOM     12  O   UNL     1      10.209   9.735   6.253  0.00  0.00    +0.000 OA
ATOM     13  N   UNL     1       9.898   7.779   5.463  0.00  0.00    +0.000 N 
ATOM     14  C   UNL     1       9.853   6.813   4.451  0.00  0.00    +0.000 C 
ATOM     15  C   UNL     1       8.227   6.688   4.156  0.00  0.00    +0.000 C 
ATOM     16  O   UNL     1       7.364   7.499   3.804  0.00  0.00    +0.000 OA
ATOM     17  N   UNL     1       7.664   5.559   4.222  0.00  0.00    +0.000 N 
ATOM     18  C   UNL     1       8.438   4.536   4.452  0.00  0.00    +0.000 C 
ATOM     19  C   UNL     1       9.959   4.272   3.082  0.00  0.00    +0.000 C 
ATOM     20  O   UNL     1      10.948   4.942   2.867  0.00  0.00    +0.000 OA
ATOM     21  N   UNL     1       9.760   3.077   2.181  0.00  0.00    +0.000 N 
ATOM     22  C   UNL     1       8.748   1.433   2.777  0.00  0.00    +0.000 C 
ATOM     23  C   UNL     1       9.863   1.843   4.723  0.00  0.00    +0.000 C 
ATOM     24  O   UNL     1      10.126   2.768   5.574  0.00  0.00    +0.000 OA
ATOM     25  N   UNL     1       9.208   0.692   4.919  0.00  0.00    +0.000 N 
ATOM     26  H   UNL     1      10.383  10.605   2.524  0.00  0.00    +0.000 HD
ATOM     27  H   UNL     1      10.331   7.552   6.351  0.00  0.00    +0.000 HD
ATOM     28  H   UNL     1       6.794   5.439   3.760  0.00  0.00    +0.000 HD
ATOM     29  H   UNL     1      10.790   2.724   2.287  0.00  0.00    +0.000 HD
ATOM     30  H   UNL     1       9.100  -0.547   5.530  0.00  0.00    +0.000 HD
ENDROOT
BRANCH   1  36
ATOM     31  C   UNL     1      11.642   0.035   2.572  0.00  0.00    +0.000 C 
ATOM     32  C   UNL     1      11.891   0.759   1.146  0.00  0.00    +0.000 C 
ATOM     33  C   UNL     1      12.136  -0.341   0.234  0.00  0.00    +0.000 C 
ATOM     34  C   UNL     1      10.894  -1.405   1.258  0.00  0.00    +0.000 C 
ATOM     35  N   UNL     1      10.318  -0.634   3.099  0.00  0.00    +0.000 N 
ATOM     36  C   UNL     1       8.988   0.420   4.321  0.00  0.00    +0.000 C 
ATOM     37  O   UNL     1       8.614  -0.955   3.884  0.00  0.00    +0.000 OA
BRANCH  31  39
ATOM     38  N   UNL     1      10.419   1.744   3.013  0.00  0.00    +0.000 N 
ATOM     39  C   UNL     1      11.343   0.939   3.505  0.00  0.00    +0.000 C 
ATOM     40  O   UNL     1      11.504   0.823   4.696  0.00  0.00    +0.000 OA
ATOM     41  H   UNL     1       9.951   1.825   1.880  0.00  0.00    +0.000 HD
BRANCH  38  42
ATOM     42  C   UNL     1       8.690   2.661   3.783  0.00  0.00    +0.000 C 
BRANCH  42  44
ATOM     43  N   UNL     1       8.678   0.792   6.606  0.00  0.00    +0.000 N 
ATOM     44  C   UNL     1       7.382   1.348   5.011  0.00  0.00    +0.000 C 
ATOM     45  O   UNL     1       6.599   1.324   5.932  0.00  0.00    +0.000 OA
ATOM     46  H   UNL     1       9.903   0.451   5.924  0.00  0.00    +0.000 HD
BRANCH  43  47
ATOM     47  C   UNL     1       8.138  -0.401   7.039  0.00  0.00    +0.000 C 
BRANCH  47  49
ATOM     48  N   UNL     1       8.829  -2.326   8.167  0.00  0.00    +0.000 N 
ATOM     49  C   UNL     1       9.263  -1.435   7.251  0.00  0.00    +0.000 C 
ATOM     50  O   UNL     1      10.339  -1.493   6.660  0.00  0.00    +0.000 OA
ATOM     51  H   UNL     1       9.445  -3.043   8.497  0.00  0.00    +0.000 HD
ATOM     52  H   UNL     1       7.905  -2.250   8.566  0.00  0.00    +0.000 HD
ENDBRANCH  47  49
ENDBRANCH  43  47
ENDBRANCH  42  44
BRANCH  42  53
ATOM     53  C   UNL     1       7.555   3.425   2.583  0.00  0.00    +0.000 C 
BRANCH  53  54
ATOM     54  C   UNL     1       8.115   4.519   1.920  0.00  0.00    +0.000 C 
BRANCH  54  55
ATOM     55  C   UNL     1       6.921   4.961   1.385  0.00  0.00    +0.000 C 
BRANCH  55  56
ATOM     56  N   UNL     1       7.393   5.785   0.426  0.00  0.00    +0.000 NA
ATOM     57  C   UNL     1       6.446   6.475  -0.012  0.00  0.00    +0.000 C 
ATOM     58  N   UNL     1       5.178   6.449   0.055  0.00  0.00    +0.000 N 
ATOM     59  N   UNL     1       6.710   7.369  -0.846  0.00  0.00    +0.000 N 
ATOM     60  H   UNL     1       4.860   5.690   0.568  0.00  0.00    +0.000 HD
ATOM     61  H   UNL     1       4.660   7.045  -0.554  0.00  0.00    +0.000 HD
ATOM     62  H   UNL     1       8.028   7.202  -0.815  0.00  0.00    +0.000 HD
ATOM     63  H   UNL     1       6.338   8.301  -1.322  0.00  0.00    +0.000 HD
ENDBRANCH  55  56
ENDBRANCH  54  55
ENDBRANCH  53  54
ENDBRANCH  42  53
ENDBRANCH  38  42
ENDBRANCH  31  39
ENDBRANCH   1  36
BRANCH  10  64
ATOM     64  C   UNL     1       9.220   8.671   2.799  0.00  0.00    +0.000 C 
BRANCH  64  65
ATOM     65  C   UNL     1       8.561   9.039   1.624  0.00  0.00    +0.000 A 
ATOM     66  C   UNL     1       8.512  10.284   1.178  0.00  0.00    +0.000 A 
ATOM     67  C   UNL     1       8.139  10.726  -0.076  0.00  0.00    +0.000 A 
ATOM     68  C   UNL     1       7.772   9.953  -1.041  0.00  0.00    +0.000 A 
ATOM     69  C   UNL     1       8.080   8.781  -0.633  0.00  0.00    +0.000 A 
ATOM     70  C   UNL     1       8.244   8.188   0.738  0.00  0.00    +0.000 A 
BRANCH  68  71
ATOM     71  O   UNL     1       7.325   9.959  -2.268  0.00  0.00    +0.000 OA
ATOM     72  H   UNL     1       7.372  10.869  -2.538  0.00  0.00    +0.000 HD
ENDBRANCH  68  71
ENDBRANCH  64  65
ENDBRANCH  10  64
BRANCH  22  73
ATOM     73  C   UNL     1       8.712   0.371   1.814  0.00  0.00    +0.000 C 
BRANCH  73  74
ATOM     74  C   UNL     1       9.069   0.738   0.509  0.00  0.00    +0.000 C 
ATOM     75  N   UNL     1       9.017   2.047   0.266  0.00  0.00    +0.000 N 
ATOM     76  O   UNL     1       9.536  -0.058  -0.259  0.00  0.00    +0.000 OA
ATOM     77  H   UNL     1       8.808   2.747   0.945  0.00  0.00    +0.000 HD
ATOM     78  H   UNL     1       9.165   2.441  -0.626  0.00  0.00    +0.000 HD
ENDBRANCH  73  74
ENDBRANCH  22  73
BRANCH  18  79
ATOM     79  C   UNL     1       7.072   3.620   4.646  0.00  0.00    +0.000 C 
BRANCH  79  80
ATOM     80  C   UNL     1       5.977   3.430   5.489  0.00  0.00    +0.000 C 
BRANCH  80  81
ATOM     81  C   UNL     1       5.019   2.116   5.161  0.00  0.00    +0.000 C 
ATOM     82  O   UNL     1       5.234   1.105   4.461  0.00  0.00    +0.000 OA
BRANCH  81  83
ATOM     83  O   UNL     1       4.123   2.058   6.139  0.00  0.00    +0.000 OA
ATOM     84  H   UNL     1       4.034   2.879   6.637  0.00  0.00    +0.000 HD
ENDBRANCH  81  83
ENDBRANCH  80  81
ENDBRANCH  79  80
ENDBRANCH  18  79
BRANCH  14  85
ATOM     85  C   UNL     1      10.513   5.681   5.099  0.00  0.00    +0.000 C 
BRANCH  85  86
ATOM     86  C   UNL     1      11.922   5.632   5.311  0.00  0.00    +0.000 A 
ATOM     87  C   UNL     1      12.653   4.493   5.496  0.00  0.00    +0.000 A 
ATOM     88  C   UNL     1      13.850   4.661   6.138  0.00  0.00    +0.000 A 
ATOM     89  C   UNL     1      14.418   5.904   6.294  0.00  0.00    +0.000 A 
ATOM     90  C   UNL     1      13.679   7.006   6.011  0.00  0.00    +0.000 A 
ATOM     91  C   UNL     1      12.462   6.858   5.476  0.00  0.00    +0.000 A 
ENDBRANCH  85  86
ENDBRANCH  14  85
TORSDOF 21
