REMARK  Name = CHEMBL2369829
REMARK  19 active torsions:
REMARK  status: ('A' for Active; 'I' for Inactive)
REMARK    1  A    between atoms: C_1  and  C_2
REMARK    2  A    between atoms: C_2  and  C_3
REMARK    3  A    between atoms: C_7  and  C_8
REMARK    4  A    between atoms: C_8  and  C_9
REMARK    5  A    between atoms: C_18  and  C_19
REMARK    6  A    between atoms: C_19  and  C_20
REMARK    7  A    between atoms: C_23  and  O_24
REMARK    8  A    between atoms: C_35  and  C_36
REMARK    9  A    between atoms: C_42  and  C_43
REMARK   10  A    between atoms: N_45  and  C_46
REMARK   11  A    between atoms: C_46  and  C_47
REMARK   12  A    between atoms: C_46  and  C_54
REMARK   13  A    between atoms: C_47  and  C_48
REMARK   14  A    between atoms: C_48  and  C_49
REMARK   15  A    between atoms: C_49  and  N_50
REMARK   16  A    between atoms: N_56  and  C_57
REMARK   17  A    between atoms: C_57  and  C_58
REMARK   18  A    between atoms: C_64  and  C_65
REMARK   19  A    between atoms: C_65  and  C_66
REMARK                            x       y       z     vdW  Elec       q    Type
REMARK                         _______ _______ _______ _____ _____    ______ ____
ROOT
ATOM      1  C   UNL     1       3.189   1.545  -1.038  0.00  0.00    +0.000 C 
ATOM      2  N   UNL     1       3.807   2.883  -0.764  0.00  0.00    +0.000 N 
ATOM      3  C   UNL     1       3.975   3.475   0.490  0.00  0.00    +0.000 C 
ATOM      4  O   UNL     1       5.003   4.117   0.744  0.00  0.00    +0.000 OA
ATOM      5  C   UNL     1       2.774   3.509   1.426  0.00  0.00    +0.000 C 
ATOM      6  N   UNL     1       2.513   2.376   2.271  0.00  0.00    +0.000 N 
ATOM      7  C   UNL     1       2.907   2.241   3.594  0.00  0.00    +0.000 C 
ATOM      8  O   UNL     1       2.056   1.659   4.289  0.00  0.00    +0.000 OA
ATOM      9  C   UNL     1       4.521   2.719   4.152  0.00  0.00    +0.000 C 
ATOM     10  N   UNL     1       4.240   3.043   5.525  0.00  0.00    +0.000 N 
ATOM     11  C   UNL     1       4.051   2.164   6.544  0.00  0.00    +0.000 C 
ATOM     12  O   UNL     1       3.865   2.683   7.654  0.00  0.00    +0.000 OA
ATOM     13  C   UNL     1       4.057   0.601   6.444  0.00  0.00    +0.000 C 
ATOM     14  C   UNL     1       4.227  -0.235   5.186  0.00  0.00    +0.000 C 
ATOM     15  S   UNL     1       3.971  -2.073   5.103  0.00  0.00    +0.000 S 
ATOM     16  S   UNL     1       5.309  -2.707   3.644  0.00  0.00    +0.000 S 
ATOM     17  C   UNL     1       4.472  -3.649   2.246  0.00  0.00    +0.000 C 
ATOM     18  C   UNL     1       4.848  -3.963   0.754  0.00  0.00    +0.000 C 
ATOM     19  N   UNL     1       3.773  -3.497  -0.205  0.00  0.00    +0.000 N 
ATOM     20  C   UNL     1       3.298  -2.248  -0.442  0.00  0.00    +0.000 C 
ATOM     21  O   UNL     1       2.368  -1.942  -1.171  0.00  0.00    +0.000 OA
ATOM     22  C   UNL     1       4.087  -1.213   0.181  0.00  0.00    +0.000 C 
ATOM     23  N   UNL     1       4.705  -0.436  -0.870  0.00  0.00    +0.000 N 
ATOM     24  C   UNL     1       4.335   0.674  -1.578  0.00  0.00    +0.000 C 
ATOM     25  O   UNL     1       5.143   1.116  -2.407  0.00  0.00    +0.000 OA
ATOM     26  H   UNL     1       4.700   3.046  -1.244  0.00  0.00    +0.000 HD
ATOM     27  H   UNL     1       1.655   1.870   2.065  0.00  0.00    +0.000 HD
ATOM     28  H   UNL     1       4.204   4.029   5.765  0.00  0.00    +0.000 HD
ATOM     29  H   UNL     1       3.349  -4.190  -0.811  0.00  0.00    +0.000 HD
ATOM     30  H   UNL     1       5.653  -0.763  -1.052  0.00  0.00    +0.000 HD
ENDROOT
BRANCH  18  31
ATOM     31  C   UNL     1       5.036  -5.503   0.459  0.00  0.00    +0.000 C 
ATOM     32  O   UNL     1       4.438  -5.986  -0.508  0.00  0.00    +0.000 OA
ATOM     33  N   UNL     1       6.035  -6.197   1.132  0.00  0.00    +0.000 N 
ATOM     34  C   UNL     1       6.316  -6.248   2.561  0.00  0.00    +0.000 C 
ATOM     35  C   UNL     1       7.798  -6.475   2.567  0.00  0.00    +0.000 C 
ATOM     36  C   UNL     1       7.940  -7.570   1.532  0.00  0.00    +0.000 C 
ATOM     37  C   UNL     1       6.800  -7.316   0.516  0.00  0.00    +0.000 C 
BRANCH  37  38
ATOM     38  C   UNL     1       6.031  -8.649   0.479  0.00  0.00    +0.000 C 
ATOM     39  O   UNL     1       5.028  -8.805   1.176  0.00  0.00    +0.000 OA
ATOM     40  N   UNL     1       6.581  -9.680  -0.276  0.00  0.00    +0.000 N 
ATOM     41  H   UNL     1       7.555  -9.654  -0.566  0.00  0.00    +0.000 HD
BRANCH  40  42
ATOM     42  C   UNL     1       5.855 -10.942  -0.549  0.00  0.00    +0.000 C 
BRANCH  42  43
ATOM     43  C   UNL     1       6.819 -12.025  -1.146  0.00  0.00    +0.000 C 
ATOM     44  O   UNL     1       8.011 -11.792  -1.345  0.00  0.00    +0.000 OA
ATOM     45  N   UNL     1       6.252 -13.256  -1.430  0.00  0.00    +0.000 N 
ATOM     46  H   UNL     1       5.278 -13.400  -1.227  0.00  0.00    +0.000 HD
BRANCH  45  47
ATOM     47  C   UNL     1       7.018 -14.361  -2.015  0.00  0.00    +0.000 C 
BRANCH  47  48
ATOM     48  C   UNL     1       6.243 -15.666  -2.285  0.00  0.00    +0.000 C 
ATOM     49  N   UNL     1       4.914 -15.704  -1.975  0.00  0.00    +0.000 N 
ATOM     50  O   UNL     1       6.774 -16.663  -2.770  0.00  0.00    +0.000 OA
ATOM     51  H   UNL     1       4.378 -14.958  -1.571  0.00  0.00    +0.000 HD
ATOM     52  H   UNL     1       4.425 -16.574  -2.156  0.00  0.00    +0.000 HD
ENDBRANCH  47  48
ENDBRANCH  45  47
ENDBRANCH  42  43
BRANCH  42  53
ATOM     53  C   UNL     1       4.694 -10.694  -1.538  0.00  0.00    +0.000 C 
BRANCH  53  54
ATOM     54  C   UNL     1       3.714  -9.644  -1.030  0.00  0.00    +0.000 C 
BRANCH  54  55
ATOM     55  C   UNL     1       2.566  -9.349  -1.950  0.00  0.00    +0.000 C 
BRANCH  55  56
ATOM     56  N   UNL     1       1.740  -8.323  -1.313  0.00  0.00    +0.000 NA
ATOM     57  C   UNL     1       0.739  -7.901  -1.992  0.00  0.00    +0.000 C 
ATOM     58  N   UNL     1       0.376  -8.330  -3.212  0.00  0.00    +0.000 N 
ATOM     59  N   UNL     1      -0.066  -6.951  -1.492  0.00  0.00    +0.000 N 
ATOM     60  H   UNL     1       0.938  -9.033  -3.667  0.00  0.00    +0.000 HD
ATOM     61  H   UNL     1      -0.426  -7.985  -3.705  0.00  0.00    +0.000 HD
ATOM     62  H   UNL     1       0.174  -6.574  -0.584  0.00  0.00    +0.000 HD
ATOM     63  H   UNL     1      -0.871  -6.583  -1.968  0.00  0.00    +0.000 HD
ENDBRANCH  55  56
ENDBRANCH  54  55
ENDBRANCH  53  54
ENDBRANCH  42  53
ENDBRANCH  40  42
ENDBRANCH  37  38
ENDBRANCH  18  31
BRANCH   1  65
ATOM     64  C   UNL     1       0.678   2.114  -1.605  0.00  0.00    +0.000 C 
ATOM     65  C   UNL     1       1.895   1.240  -1.806  0.00  0.00    +0.000 C 
ENDBRANCH   1  65
BRANCH   9  66
ATOM     66  C   UNL     1       6.155   2.154   4.103  0.00  0.00    +0.000 C 
BRANCH  66  67
ATOM     67  C   UNL     1       6.955   1.929   2.770  0.00  0.00    +0.000 A 
ATOM     68  C   UNL     1       6.205   2.209   1.679  0.00  0.00    +0.000 A 
ATOM     69  C   UNL     1       6.372   1.660   0.401  0.00  0.00    +0.000 A 
ATOM     70  C   UNL     1       7.386   0.840   0.015  0.00  0.00    +0.000 A 
ATOM     71  C   UNL     1       8.180   0.462   1.082  0.00  0.00    +0.000 A 
ATOM     72  C   UNL     1       7.997   1.013   2.449  0.00  0.00    +0.000 A 
BRANCH  70  73
ATOM     73  O   UNL     1       7.283   0.041  -1.105  0.00  0.00    +0.000 OA
ATOM     74  H   UNL     1       6.703   0.444  -1.807  0.00  0.00    +0.000 HD
ENDBRANCH  70  73
ENDBRANCH  66  67
ENDBRANCH   9  66
BRANCH   5  75
ATOM     75  C   UNL     1       2.719   4.796   2.225  0.00  0.00    +0.000 C 
BRANCH  75  76
ATOM     76  C   UNL     1       3.123   6.018   1.461  0.00  0.00    +0.000 A 
ATOM     77  C   UNL     1       3.426   6.048   0.082  0.00  0.00    +0.000 A 
ATOM     78  C   UNL     1       4.135   7.080  -0.480  0.00  0.00    +0.000 A 
ATOM     79  C   UNL     1       4.243   8.236   0.257  0.00  0.00    +0.000 A 
ATOM     80  C   UNL     1       3.855   8.269   1.601  0.00  0.00    +0.000 A 
ATOM     81  C   UNL     1       3.365   7.140   2.228  0.00  0.00    +0.000 A 
ENDBRANCH  75  76
ENDBRANCH   5  75
BRANCH  22  82
ATOM     82  C   UNL     1       3.384  -0.663   1.374  0.00  0.00    +0.000 C 
BRANCH  82  83
ATOM     83  C   UNL     1       4.488  -0.168   2.120  0.00  0.00    +0.000 C 
ATOM     84  N   UNL     1       5.719  -0.612   2.019  0.00  0.00    +0.000 N 
ATOM     85  O   UNL     1       4.339   0.744   2.925  0.00  0.00    +0.000 OA
ATOM     86  H   UNL     1       6.159  -0.783   1.132  0.00  0.00    +0.000 HD
ATOM     87  H   UNL     1       6.249   0.079   2.481  0.00  0.00    +0.000 HD
ENDBRANCH  82  83
ENDBRANCH  22  82
TORSDOF 18
