REMARK  Name = CHEMBL1779409
REMARK  13 active torsions:
REMARK  status: ('A' for Active; 'I' for Inactive)
REMARK    1  A    between atoms: C_1  and  O_2
REMARK    2  A    between atoms: O_2  and  C_3
REMARK    3  A    between atoms: C_6  and  S_7
REMARK    4  A    between atoms: S_7  and  N_10
REMARK    5  A    between atoms: C_13  and  C_14
REMARK    6  A    between atoms: C_13  and  N_28
REMARK    7  A    between atoms: C_16  and  C_17
REMARK    8  A    between atoms: C_17  and  N_18
REMARK    9  A    between atoms: C_25  and  O_26
REMARK   10  A    between atoms: O_26  and  C_27
REMARK   11  A    between atoms: C_32  and  C_33
REMARK   12  A    between atoms: N_35  and  C_36
REMARK   13  A    between atoms: N_35  and  C_37
REMARK                            x       y       z     vdW  Elec       q    Type
REMARK                         _______ _______ _______ _____ _____    ______ ____
ROOT
ATOM      1  N   UNL     1       5.631   5.334  -5.641  0.00  0.00    +0.000 N 
ATOM      2  C   UNL     1       5.577   4.557  -6.731  0.00  0.00    +0.000 C 
ATOM      3  O   UNL     1       6.567   4.039  -7.187  0.00  0.00    +0.000 OA
ATOM      4  C   UNL     1       4.083   5.605  -7.000  0.00  0.00    +0.000 C 
ATOM      5  C   UNL     1       4.778   5.792  -8.247  0.00  0.00    +0.000 A 
ATOM      6  C   UNL     1       5.356   5.145  -9.379  0.00  0.00    +0.000 A 
ATOM      7  C   UNL     1       6.152   5.911 -10.189  0.00  0.00    +0.000 A 
ATOM      8 CL   UNL     1       7.436   5.283 -11.123  0.00  0.00    +0.000 Cl
ATOM      9  C   UNL     1       6.071   7.209  -9.868  0.00  0.00    +0.000 A 
ATOM     10  C   UNL     1       5.777   7.377  -8.449  0.00  0.00    +0.000 A 
ATOM     11  C   UNL     1       5.749   6.210  -7.440  0.00  0.00    +0.000 A 
ENDROOT
BRANCH   4  12
ATOM     12  C   UNL     1       2.701   5.167  -7.207  0.00  0.00    +0.000 A 
ATOM     13  C   UNL     1       1.783   6.236  -7.485  0.00  0.00    +0.000 A 
ATOM     14  C   UNL     1       0.453   6.088  -7.483  0.00  0.00    +0.000 A 
ATOM     15  C   UNL     1       0.261   4.889  -8.071  0.00  0.00    +0.000 A 
ATOM     16  C   UNL     1       0.966   3.764  -7.687  0.00  0.00    +0.000 A 
ATOM     17  C   UNL     1       2.234   3.880  -7.281  0.00  0.00    +0.000 A 
BRANCH  17  18
ATOM     18  O   UNL     1       2.808   2.641  -7.362  0.00  0.00    +0.000 OA
ATOM     19  C   UNL     1       4.143   2.797  -7.589  0.00  0.00    +0.000 C 
ENDBRANCH  17  18
BRANCH  14  20
ATOM     20  C   UNL     1      -0.614   7.118  -7.178  0.00  0.00    +0.000 C 
BRANCH  20  21
ATOM     21  N   UNL     1      -1.974   6.560  -6.881  0.00  0.00    +0.000 NA
ATOM     22  C   UNL     1      -1.928   5.664  -5.697  0.00  0.00    +0.000 C 
ATOM     23  C   UNL     1      -1.714   4.263  -6.222  0.00  0.00    +0.000 C 
ATOM     24  C   UNL     1      -2.463   4.274  -7.563  0.00  0.00    +0.000 C 
ATOM     25  C   UNL     1      -2.571   5.770  -7.976  0.00  0.00    +0.000 C 
ENDBRANCH  20  21
ENDBRANCH  14  20
ENDBRANCH   4  12
BRANCH   4  26
ATOM     26  N   UNL     1       4.085   6.993  -5.827  0.00  0.00    +0.000 NA
ATOM     27  C   UNL     1       2.844   7.482  -5.258  0.00  0.00    +0.000 C 
ATOM     28  C   UNL     1       2.594   8.693  -6.149  0.00  0.00    +0.000 C 
ATOM     29  C   UNL     1       3.933   9.373  -6.254  0.00  0.00    +0.000 C 
ATOM     30  C   UNL     1       4.911   8.253  -5.968  0.00  0.00    +0.000 C 
BRANCH  30  31
ATOM     31  C   UNL     1       6.023   8.583  -4.984  0.00  0.00    +0.000 C 
ATOM     32  O   UNL     1       6.227   7.936  -3.960  0.00  0.00    +0.000 OA
ATOM     33  N   UNL     1       6.886   9.628  -5.426  0.00  0.00    +0.000 N 
ATOM     34  C   UNL     1       6.840  10.348  -6.716  0.00  0.00    +0.000 C 
ATOM     35  C   UNL     1       7.910  10.060  -4.503  0.00  0.00    +0.000 C 
ENDBRANCH  30  31
ENDBRANCH   4  26
BRANCH   1  36
ATOM     36  S   UNL     1       5.613   3.247  -4.748  0.00  0.00    +0.000 S 
ATOM     37  O   UNL     1       6.944   3.241  -4.184  0.00  0.00    +0.000 OA
ATOM     38  O   UNL     1       5.336   2.114  -5.638  0.00  0.00    +0.000 OA
BRANCH  36  42
ATOM     39  C   UNL     1       3.063   0.636  -1.144  0.00  0.00    +0.000 A 
ATOM     40  C   UNL     1       4.197   0.085  -1.734  0.00  0.00    +0.000 A 
ATOM     41  C   UNL     1       4.941   0.855  -2.742  0.00  0.00    +0.000 A 
ATOM     42  C   UNL     1       4.558   2.229  -3.185  0.00  0.00    +0.000 A 
ATOM     43  C   UNL     1       3.343   2.645  -2.671  0.00  0.00    +0.000 A 
ATOM     44  C   UNL     1       2.655   1.888  -1.634  0.00  0.00    +0.000 A 
BRANCH  39  46
ATOM     45  C   UNL     1       1.051   0.059   0.022  0.00  0.00    +0.000 C 
ATOM     46  O   UNL     1       2.481  -0.012  -0.073  0.00  0.00    +0.000 OA
ENDBRANCH  39  46
ENDBRANCH  36  42
ENDBRANCH   1  36
TORSDOF 9
