REMARK  Name = CHEMBL2370343
REMARK  44 active torsions:
REMARK  status: ('A' for Active; 'I' for Inactive)
REMARK    1  A    between atoms: C_1  and  C_2
REMARK    2  A    between atoms: C_2  and  C_3
REMARK    3  A    between atoms: C_3  and  C_4
REMARK    4  A    between atoms: C_3  and  C_5
REMARK    5  A    between atoms: C_5  and  N_6
REMARK    6  A    between atoms: C_5  and  C_35
REMARK    7  A    between atoms: C_7  and  C_9
REMARK    8  A    between atoms: C_9  and  C_10
REMARK    9  A    between atoms: C_9  and  N_19
REMARK   10  A    between atoms: C_10  and  C_11
REMARK   11  A    between atoms: C_14  and  O_15
REMARK   12  A    between atoms: O_15  and  C_16
REMARK   13  A    between atoms: C_20  and  C_22
REMARK   14  A    between atoms: C_22  and  C_23
REMARK   15  A    between atoms: C_23  and  S_24
REMARK   16  A    between atoms: S_24  and  C_25
REMARK   17  A    between atoms: C_25  and  C_26
REMARK   18  A    between atoms: C_26  and  C_27
REMARK   19  A    between atoms: N_37  and  C_38
REMARK   20  A    between atoms: C_38  and  C_39
REMARK   21  A    between atoms: C_38  and  C_83
REMARK   22  A    between atoms: N_41  and  C_42
REMARK   23  A    between atoms: C_42  and  C_43
REMARK   24  A    between atoms: C_42  and  C_47
REMARK   25  A    between atoms: C_43  and  C_44
REMARK   26  A    between atoms: N_49  and  C_50
REMARK   27  A    between atoms: C_50  and  C_51
REMARK   28  A    between atoms: C_50  and  C_53
REMARK   29  A    between atoms: C_51  and  S_52
REMARK   30  A    between atoms: N_55  and  C_56
REMARK   31  A    between atoms: C_56  and  C_57
REMARK   32  A    between atoms: N_59  and  C_60
REMARK   33  A    between atoms: C_60  and  C_61
REMARK   34  A    between atoms: C_60  and  C_65
REMARK   35  A    between atoms: C_61  and  C_62
REMARK   36  A    between atoms: C_62  and  C_63
REMARK   37  A    between atoms: C_63  and  N_64
REMARK   38  A    between atoms: N_67  and  C_68
REMARK   39  A    between atoms: C_68  and  C_69
REMARK   40  A    between atoms: C_68  and  C_80
REMARK   41  A    between atoms: C_69  and  C_70
REMARK   42  A    between atoms: C_73  and  N_74
REMARK   43  A    between atoms: C_83  and  C_84
REMARK   44  A    between atoms: C_83  and  O_85
REMARK                            x       y       z     vdW  Elec       q    Type
REMARK                         _______ _______ _______ _____ _____    ______ ____
ROOT
ATOM      1  C   UNL     1       7.557  -4.638  -2.163  0.00  0.00    +0.000 C 
ENDROOT
BRANCH   1   4
ATOM      2  C   UNL     1       8.837  -5.787  -3.940  0.00  0.00    +0.000 C 
ATOM      3  O   UNL     1       9.280  -4.645  -3.741  0.00  0.00    +0.000 OA
ATOM      4  N   UNL     1       7.792  -5.830  -3.131  0.00  0.00    +0.000 N 
ATOM      5  H   UNL     1       7.487  -6.731  -2.773  0.00  0.00    +0.000 HD
BRANCH   2   6
ATOM      6  C   UNL     1       9.486  -6.490  -5.118  0.00  0.00    +0.000 C 
BRANCH   6   9
ATOM      7  C   UNL     1      11.876  -5.334  -4.545  0.00  0.00    +0.000 C 
ATOM      8  O   UNL     1      13.077  -5.366  -4.836  0.00  0.00    +0.000 OA
ATOM      9  N   UNL     1      11.029  -6.320  -5.102  0.00  0.00    +0.000 N 
ATOM     10  H   UNL     1      11.504  -6.728  -5.906  0.00  0.00    +0.000 HD
BRANCH   7  11
ATOM     11  C   UNL     1      11.353  -4.215  -3.580  0.00  0.00    +0.000 C 
BRANCH  11  12
ATOM     12  N   UNL     1      12.156  -3.598  -2.571  0.00  0.00    +0.000 N 
ATOM     13  C   UNL     1      11.606  -2.973  -1.470  0.00  0.00    +0.000 C 
ATOM     14  O   UNL     1      10.471  -3.241  -1.068  0.00  0.00    +0.000 OA
ATOM     15  H   UNL     1      13.119  -3.432  -2.821  0.00  0.00    +0.000 HD
BRANCH  13  16
ATOM     16  C   UNL     1      12.510  -1.935  -0.745  0.00  0.00    +0.000 C 
BRANCH  16  17
ATOM     17  N   UNL     1      13.034  -0.919  -1.681  0.00  0.00    +0.000 N 
ATOM     18  C   UNL     1      13.932  -1.335  -2.631  0.00  0.00    +0.000 C 
ATOM     19  O   UNL     1      14.223  -2.523  -2.732  0.00  0.00    +0.000 OA
ATOM     20  H   UNL     1      13.018   0.055  -1.408  0.00  0.00    +0.000 HD
BRANCH  18  21
ATOM     21  C   UNL     1      14.542  -0.327  -3.556  0.00  0.00    +0.000 C 
BRANCH  21  22
ATOM     22  C   UNL     1      15.355  -1.029  -4.709  0.00  0.00    +0.000 C 
ATOM     23  C   UNL     1      14.424  -1.909  -5.598  0.00  0.00    +0.000 C 
ATOM     24  C   UNL     1      15.060  -2.409  -6.886  0.00  0.00    +0.000 C 
ATOM     25  C   UNL     1      15.792  -1.325  -7.660  0.00  0.00    +0.000 C 
ATOM     26  C   UNL     1      16.648  -0.377  -6.819  0.00  0.00    +0.000 C 
ATOM     27  C   UNL     1      15.930   0.109  -5.575  0.00  0.00    +0.000 C 
BRANCH  22  28
ATOM     28  S   UNL     1      16.789  -1.959  -3.837  0.00  0.00    +0.000 S 
BRANCH  28  29
ATOM     29  C   UNL     1      17.561  -2.995  -5.098  0.00  0.00    +0.000 C 
BRANCH  29  30
ATOM     30  C   UNL     1      18.633  -3.908  -4.591  0.00  0.00    +0.000 C 
BRANCH  30  31
ATOM     31  C   UNL     1      19.355  -4.597  -5.746  0.00  0.00    +0.000 C 
ATOM     32  N   UNL     1      19.012  -4.317  -7.042  0.00  0.00    +0.000 N 
ATOM     33  O   UNL     1      20.258  -5.403  -5.533  0.00  0.00    +0.000 OA
ATOM     34  H   UNL     1      18.268  -3.707  -7.353  0.00  0.00    +0.000 HD
ATOM     35  H   UNL     1      19.516  -4.804  -7.771  0.00  0.00    +0.000 HD
ENDBRANCH  30  31
ENDBRANCH  29  30
ENDBRANCH  28  29
ENDBRANCH  22  28
ENDBRANCH  21  22
ENDBRANCH  18  21
ENDBRANCH  16  17
BRANCH  16  36
ATOM     36  C   UNL     1      11.731  -1.323   0.438  0.00  0.00    +0.000 C 
BRANCH  36  37
ATOM     37  C   UNL     1      11.221  -2.364   1.427  0.00  0.00    +0.000 A 
ATOM     38  C   UNL     1      11.533  -3.735   1.307  0.00  0.00    +0.000 A 
ATOM     39  C   UNL     1      10.820  -4.707   1.990  0.00  0.00    +0.000 A 
ATOM     40  C   UNL     1       9.943  -4.323   2.988  0.00  0.00    +0.000 A 
ATOM     41  C   UNL     1       9.669  -2.965   3.175  0.00  0.00    +0.000 A 
ATOM     42  C   UNL     1      10.286  -1.990   2.387  0.00  0.00    +0.000 A 
BRANCH  40  43
ATOM     43  O   UNL     1       9.442  -5.352   3.733  0.00  0.00    +0.000 OA
ATOM     44  C   UNL     1       8.697  -4.965   4.877  0.00  0.00    +0.000 C 
ENDBRANCH  40  43
ENDBRANCH  36  37
ENDBRANCH  16  36
ENDBRANCH  13  16
ENDBRANCH  11  12
BRANCH  11  45
ATOM     45  C   UNL     1      10.569  -2.985  -4.446  0.00  0.00    +0.000 C 
ATOM     46  C   UNL     1       9.894  -1.897  -3.266  0.00  0.00    +0.000 C 
BRANCH  45  48
ATOM     47  C   UNL     1       7.951  -4.095  -6.194  0.00  0.00    +0.000 C 
ATOM     48  C   UNL     1       9.647  -3.647  -5.940  0.00  0.00    +0.000 C 
ENDBRANCH  45  48
ENDBRANCH  11  45
ENDBRANCH   7  11
ENDBRANCH   6   9
BRANCH   6  49
ATOM     49  C   UNL     1       8.913  -7.870  -5.144  0.00  0.00    +0.000 C 
ATOM     50  C   UNL     1       7.380  -7.750  -5.306  0.00  0.00    +0.000 C 
BRANCH  49  51
ATOM     51  O   UNL     1       9.428  -8.596  -6.260  0.00  0.00    +0.000 OA
ATOM     52  H   UNL     1       9.155  -8.141  -7.078  0.00  0.00    +0.000 HD
ENDBRANCH  49  51
ENDBRANCH   6  49
ENDBRANCH   2   6
ENDBRANCH   1   4
BRANCH   1  53
ATOM     53  C   UNL     1       6.703  -5.280  -1.122  0.00  0.00    +0.000 C 
ATOM     54  O   UNL     1       6.144  -6.345  -1.394  0.00  0.00    +0.000 OA
ATOM     55  N   UNL     1       6.515  -4.611   0.054  0.00  0.00    +0.000 N 
ATOM     56  H   UNL     1       6.873  -3.666   0.211  0.00  0.00    +0.000 HD
BRANCH  55  57
ATOM     57  C   UNL     1       5.706  -5.221   1.104  0.00  0.00    +0.000 C 
BRANCH  57  58
ATOM     58  C   UNL     1       5.422  -4.150   2.212  0.00  0.00    +0.000 C 
ATOM     59  O   UNL     1       5.864  -3.002   2.138  0.00  0.00    +0.000 OA
ATOM     60  N   UNL     1       4.636  -4.537   3.274  0.00  0.00    +0.000 N 
ATOM     61  H   UNL     1       4.208  -5.461   3.314  0.00  0.00    +0.000 HD
BRANCH  60  62
ATOM     62  C   UNL     1       4.247  -3.625   4.364  0.00  0.00    +0.000 C 
BRANCH  62  63
ATOM     63  C   UNL     1       3.184  -4.348   5.211  0.00  0.00    +0.000 C 
ATOM     64  O   UNL     1       2.680  -5.390   4.781  0.00  0.00    +0.000 OA
ATOM     65  N   UNL     1       2.823  -3.818   6.427  0.00  0.00    +0.000 N 
ATOM     66  H   UNL     1       3.211  -2.925   6.734  0.00  0.00    +0.000 HD
BRANCH  65  67
ATOM     67  C   UNL     1       1.992  -4.529   7.480  0.00  0.00    +0.000 C 
BRANCH  67  68
ATOM     68  C   UNL     1       1.876  -3.588   8.645  0.00  0.00    +0.000 C 
ATOM     69  O   UNL     1       2.874  -2.871   8.681  0.00  0.00    +0.000 OA
ATOM     70  N   UNL     1       0.933  -3.756   9.653  0.00  0.00    +0.000 N 
ATOM     71  H   UNL     1       0.577  -4.692   9.735  0.00  0.00    +0.000 HD
BRANCH  70  72
ATOM     72  C   UNL     1       0.641  -2.860  10.859  0.00  0.00    +0.000 C 
BRANCH  72  73
ATOM     73  C   UNL     1      -0.236  -3.495  11.984  0.00  0.00    +0.000 C 
ATOM     74  N   UNL     1      -0.606  -4.801  11.854  0.00  0.00    +0.000 N 
ATOM     75  O   UNL     1      -0.583  -2.882  12.993  0.00  0.00    +0.000 OA
ATOM     76  H   UNL     1      -0.376  -5.407  11.090  0.00  0.00    +0.000 HD
ATOM     77  H   UNL     1      -1.180  -5.193  12.592  0.00  0.00    +0.000 HD
ENDBRANCH  72  73
BRANCH  72  78
ATOM     78  C   UNL     1      -0.065  -1.524  10.444  0.00  0.00    +0.000 C 
BRANCH  78  79
ATOM     79  C   UNL     1       0.770  -0.610   9.579  0.00  0.00    +0.000 A 
ATOM     80  C   UNL     1       2.128  -0.795   9.462  0.00  0.00    +0.000 A 
ATOM     81  C   UNL     1       2.877  -0.275   8.403  0.00  0.00    +0.000 A 
ATOM     82  C   UNL     1       2.403   0.784   7.663  0.00  0.00    +0.000 A 
ATOM     83  C   UNL     1       1.140   1.261   8.068  0.00  0.00    +0.000 A 
ATOM     84  I   UNL     1       0.393   3.187   7.717  0.00  0.00    +0.000 I 
ATOM     85  C   UNL     1       0.301   0.516   8.942  0.00  0.00    +0.000 A 
BRANCH  82  86
ATOM     86  N   UNL     1       3.308   1.212   6.673  0.00  0.00    +0.000 NA
ATOM     87  N   UNL     1       3.084   2.278   6.090  0.00  0.00    +0.000 NA
ATOM     88  N   UNL     1       2.919   3.258   5.531  0.00  0.00    +0.000 NA
ENDBRANCH  82  86
ENDBRANCH  78  79
ENDBRANCH  72  78
ENDBRANCH  70  72
ENDBRANCH  67  68
BRANCH  67  89
ATOM     89  C   UNL     1       2.797  -5.626   8.185  0.00  0.00    +0.000 C 
BRANCH  89  90
ATOM     90  C   UNL     1       3.199  -6.638   7.171  0.00  0.00    +0.000 C 
BRANCH  90  91
ATOM     91  C   UNL     1       3.908  -7.814   7.751  0.00  0.00    +0.000 C 
BRANCH  91  92
ATOM     92  N   UNL     1       4.201  -8.677   6.624  0.00  0.00    +0.000 NA
ATOM     93  H   UNL     1       3.335  -8.941   6.152  0.00  0.00    +0.000 HD
ATOM     94  H   UNL     1       4.656  -9.523   6.944  0.00  0.00    +0.000 HD
ENDBRANCH  91  92
ENDBRANCH  90  91
ENDBRANCH  89  90
ENDBRANCH  67  89
ENDBRANCH  65  67
ENDBRANCH  62  63
ENDBRANCH  60  62
ENDBRANCH  57  58
BRANCH  57  95
ATOM     95  C   UNL     1       6.406  -6.447   1.732  0.00  0.00    +0.000 C 
BRANCH  95  96
ATOM     96  S   UNL     1       6.780  -7.961   0.762  0.00  0.00    +0.000 S 
ATOM     97  H   UNL     1       5.779  -7.834  -0.137  0.00  0.00    +0.000 HD
ENDBRANCH  95  96
ENDBRANCH  57  95
ENDBRANCH  55  57
ENDBRANCH   1  53
BRANCH   1  98
ATOM     98  C   UNL     1       6.681  -3.398  -2.633  0.00  0.00    +0.000 C 
BRANCH  98  99
ATOM     99  C   UNL     1       6.978  -2.418  -3.724  0.00  0.00    +0.000 C 
ATOM    100  N   UNL     1       8.051  -2.745  -4.360  0.00  0.00    +0.000 N 
ATOM    101  O   UNL     1       6.416  -1.409  -4.101  0.00  0.00    +0.000 OA
ATOM    102  H   UNL     1       8.595  -3.510  -3.960  0.00  0.00    +0.000 HD
ATOM    103  H   UNL     1       8.502  -2.124  -5.013  0.00  0.00    +0.000 HD
ENDBRANCH  98  99
ENDBRANCH   1  98
TORSDOF 40
