REMARK  Name = CHEMBL306416
REMARK  9 active torsions:
REMARK  status: ('A' for Active; 'I' for Inactive)
REMARK    1  A    between atoms: C_1  and  O_2
REMARK    2  A    between atoms: O_2  and  C_3
REMARK    3  A    between atoms: C_5  and  O_6
REMARK    4  A    between atoms: O_6  and  C_7
REMARK    5  A    between atoms: N_10  and  C_11
REMARK    6  A    between atoms: C_11  and  C_12
REMARK    7  A    between atoms: C_18  and  C_19
REMARK    8  A    between atoms: C_25  and  C_26
REMARK    9  A    between atoms: C_31  and  N_32
REMARK                            x       y       z     vdW  Elec       q    Type
REMARK                         _______ _______ _______ _____ _____    ______ ____
ROOT
ATOM      1  C   UNL     1       2.885  -0.649   0.580  0.00  0.00    +0.000 A 
ATOM      2  C   UNL     1       2.532  -2.014   0.972  0.00  0.00    +0.000 A 
ATOM      3  C   UNL     1       3.326  -2.687   1.833  0.00  0.00    +0.000 A 
ATOM      4  C   UNL     1       4.316  -1.850   2.156  0.00  0.00    +0.000 A 
ATOM      5  F   UNL     1       5.123  -2.420   2.935  0.00  0.00    +0.000 F 
ATOM      6  C   UNL     1       4.714  -0.569   1.946  0.00  0.00    +0.000 A 
ATOM      7  C   UNL     1       3.967   0.093   1.092  0.00  0.00    +0.000 A 
ENDROOT
BRANCH   7   8
ATOM      8  C   UNL     1       4.554   1.434   0.902  0.00  0.00    +0.000 C 
ATOM      9  O   UNL     1       5.652   1.790   1.329  0.00  0.00    +0.000 OA
ATOM     10  N   UNL     1       3.790   2.264   0.191  0.00  0.00    +0.000 N 
ATOM     11  C   UNL     1       4.304   2.723  -1.068  0.00  0.00    +0.000 C 
ATOM     12  C   UNL     1       4.111   4.210  -1.102  0.00  0.00    +0.000 C 
ATOM     13  C   UNL     1       2.637   4.568  -0.803  0.00  0.00    +0.000 C 
ATOM     14  C   UNL     1       2.176   4.003   0.552  0.00  0.00    +0.000 C 
ATOM     15  C   UNL     1       2.440   2.539   0.602  0.00  0.00    +0.000 C 
BRANCH  13  16
ATOM     16  N   UNL     1       1.746   4.272  -1.980  0.00  0.00    +0.000 N 
ATOM     17  C   UNL     1       1.590   3.014  -2.576  0.00  0.00    +0.000 C 
ATOM     18  O   UNL     1       1.376   1.953  -2.050  0.00  0.00    +0.000 OA
ATOM     19  O   UNL     1       1.716   3.040  -3.927  0.00  0.00    +0.000 OA
ATOM     20  C   UNL     1       0.591   3.675  -4.482  0.00  0.00    +0.000 C 
ATOM     21  C   UNL     1       0.412   5.020  -3.851  0.00  0.00    +0.000 A 
ATOM     22  C   UNL     1      -0.373   5.967  -4.500  0.00  0.00    +0.000 A 
ATOM     23  C   UNL     1      -0.561   7.212  -3.920  0.00  0.00    +0.000 A 
ATOM     24  C   UNL     1       0.017   7.505  -2.687  0.00  0.00    +0.000 A 
ATOM     25  C   UNL     1       0.799   6.558  -2.029  0.00  0.00    +0.000 A 
ATOM     26  C   UNL     1       1.014   5.311  -2.611  0.00  0.00    +0.000 A 
ENDBRANCH  13  16
ENDBRANCH   7   8
BRANCH   1  28
ATOM     27  C   UNL     1       0.803  -0.103  -0.085  0.00  0.00    +0.000 C 
ATOM     28  O   UNL     1       2.176  -0.095  -0.432  0.00  0.00    +0.000 OA
ENDBRANCH   1  28
BRANCH   3  29
ATOM     29  O   UNL     1       3.219  -3.965   2.313  0.00  0.00    +0.000 OA
BRANCH  29  30
ATOM     30  C   UNL     1       4.073  -4.624   3.381  0.00  0.00    +0.000 C 
ATOM     31  C   UNL     1       4.089  -3.991   4.807  0.00  0.00    +0.000 C 
ATOM     32  C   UNL     1       4.995  -2.759   4.973  0.00  0.00    +0.000 C 
ATOM     33  N   UNL     1       6.434  -3.040   4.447  0.00  0.00    +0.000 NA
ATOM     34  C   UNL     1       6.497  -3.975   3.249  0.00  0.00    +0.000 C 
ATOM     35  C   UNL     1       5.500  -5.079   3.023  0.00  0.00    +0.000 C 
BRANCH  33  36
ATOM     36  C   UNL     1       7.056  -1.739   4.002  0.00  0.00    +0.000 C 
BRANCH  36  37
ATOM     37  C   UNL     1       8.379  -1.789   3.266  0.00  0.00    +0.000 A 
ATOM     38  C   UNL     1       9.418  -1.233   4.016  0.00  0.00    +0.000 A 
ATOM     39  C   UNL     1      10.713  -1.357   3.579  0.00  0.00    +0.000 A 
ATOM     40  C   UNL     1      10.958  -2.046   2.402  0.00  0.00    +0.000 A 
ATOM     41  N   UNL     1       9.951  -2.517   1.576  0.00  0.00    +0.000 N 
ATOM     42  O   UNL     1      10.280  -3.147   0.518  0.00  0.00    +0.000 OA
ATOM     43  C   UNL     1       8.630  -2.308   1.930  0.00  0.00    +0.000 A 
ATOM     44  C   UNL     1       7.665  -2.696   0.818  0.00  0.00    +0.000 C 
ENDBRANCH  36  37
ENDBRANCH  33  36
ENDBRANCH  29  30
ENDBRANCH   3  29
TORSDOF 7
