REMARK  Name = CHEMBL3354579
REMARK  27 active torsions:
REMARK  status: ('A' for Active; 'I' for Inactive)
REMARK    1  A    between atoms: C_1  and  C_2
REMARK    2  A    between atoms: C_2  and  C_3
REMARK    3  A    between atoms: C_3  and  C_4
REMARK    4  A    between atoms: C_3  and  C_5
REMARK    5  A    between atoms: C_9  and  C_10
REMARK    6  A    between atoms: C_10  and  C_11
REMARK    7  A    between atoms: C_14  and  O_15
REMARK    8  A    between atoms: C_26  and  C_27
REMARK    9  A    between atoms: N_29  and  C_30
REMARK   10  A    between atoms: N_29  and  C_34
REMARK   11  A    between atoms: C_30  and  C_31
REMARK   12  A    between atoms: C_31  and  C_32
REMARK   13  A    between atoms: C_32  and  O_33
REMARK   14  A    between atoms: C_34  and  C_35
REMARK   15  A    between atoms: N_37  and  C_38
REMARK   16  A    between atoms: C_38  and  C_39
REMARK   17  A    between atoms: C_38  and  C_43
REMARK   18  A    between atoms: C_39  and  C_40
REMARK   19  A    between atoms: C_40  and  C_41
REMARK   20  A    between atoms: C_40  and  C_42
REMARK   21  A    between atoms: N_45  and  C_46
REMARK   22  A    between atoms: C_46  and  C_47
REMARK   23  A    between atoms: C_53  and  C_54
REMARK   24  A    between atoms: C_54  and  C_55
REMARK   25  A    between atoms: C_61  and  C_62
REMARK   26  A    between atoms: C_62  and  C_63
REMARK   27  A    between atoms: C_63  and  C_64
REMARK                            x       y       z     vdW  Elec       q    Type
REMARK                         _______ _______ _______ _____ _____    ______ ____
ROOT
ATOM      1  C   UNL     1       4.907   2.065  -1.884  0.00  0.00    +0.000 C 
ATOM      2  N   UNL     1       4.880   3.648  -3.012  0.00  0.00    +0.000 N 
ATOM      3  C   UNL     1       4.608   5.034  -3.410  0.00  0.00    +0.000 C 
ATOM      4  O   UNL     1       4.424   5.126  -4.658  0.00  0.00    +0.000 OA
ATOM      5  C   UNL     1       4.520   6.553  -2.621  0.00  0.00    +0.000 C 
ATOM      6  N   UNL     1       5.065   7.703  -3.490  0.00  0.00    +0.000 N 
ATOM      7  C   UNL     1       4.518   8.695  -4.271  0.00  0.00    +0.000 C 
ATOM      8  O   UNL     1       5.274   9.607  -4.640  0.00  0.00    +0.000 OA
ATOM      9  C   UNL     1       3.052   8.799  -4.711  0.00  0.00    +0.000 C 
ATOM     10  C   UNL     1       2.138   7.690  -4.334  0.00  0.00    +0.000 C 
ATOM     11  C   UNL     1       0.686   7.810  -4.784  0.00  0.00    +0.000 C 
ATOM     12  S   UNL     1      -0.262   6.793  -3.676  0.00  0.00    +0.000 S 
ATOM     13  C   UNL     1      -1.746   5.979  -4.447  0.00  0.00    +0.000 C 
ATOM     14  C   UNL     1      -2.235   4.616  -3.644  0.00  0.00    +0.000 C 
ATOM     15  N   UNL     1      -1.592   3.361  -4.077  0.00  0.00    +0.000 N 
ATOM     16  C   UNL     1      -0.335   3.005  -3.846  0.00  0.00    +0.000 C 
ATOM     17  O   UNL     1      -0.007   1.792  -4.142  0.00  0.00    +0.000 OA
ATOM     18  C   UNL     1       0.606   4.033  -3.460  0.00  0.00    +0.000 C 
ATOM     19  N   UNL     1       1.450   3.664  -2.469  0.00  0.00    +0.000 N 
ATOM     20  C   UNL     1       2.601   3.053  -2.687  0.00  0.00    +0.000 C 
ATOM     21  O   UNL     1       3.298   3.317  -1.702  0.00  0.00    +0.000 OA
ATOM     22  C   UNL     1       2.923   1.813  -3.757  0.00  0.00    +0.000 C 
ATOM     23  N   UNL     1       4.347   1.504  -4.097  0.00  0.00    +0.000 N 
ATOM     24  C   UNL     1       5.352   1.377  -3.133  0.00  0.00    +0.000 C 
ATOM     25  O   UNL     1       6.530   1.251  -3.404  0.00  0.00    +0.000 OA
ATOM     26  H   UNL     1       4.622   3.367  -3.960  0.00  0.00    +0.000 HD
ATOM     27  H   UNL     1       6.050   7.896  -3.336  0.00  0.00    +0.000 HD
ATOM     28  H   UNL     1      -2.188   2.577  -4.337  0.00  0.00    +0.000 HD
ATOM     29  H   UNL     1       1.525   4.479  -1.881  0.00  0.00    +0.000 HD
ATOM     30  H   UNL     1       4.778   2.049  -4.833  0.00  0.00    +0.000 HD
ENDROOT
BRANCH  14  31
ATOM     31  C   UNL     1      -3.747   4.450  -3.785  0.00  0.00    +0.000 C 
ATOM     32  O   UNL     1      -4.194   3.475  -4.397  0.00  0.00    +0.000 OA
ATOM     33  N   UNL     1      -4.562   5.402  -3.178  0.00  0.00    +0.000 N 
BRANCH  33  34
ATOM     34  C   UNL     1      -6.039   5.326  -3.491  0.00  0.00    +0.000 C 
BRANCH  34  35
ATOM     35  C   UNL     1      -7.024   6.309  -2.702  0.00  0.00    +0.000 C 
ATOM     36  O   UNL     1      -6.687   6.917  -1.685  0.00  0.00    +0.000 OA
ATOM     37  N   UNL     1      -8.199   6.698  -3.325  0.00  0.00    +0.000 N 
ATOM     38  H   UNL     1      -8.649   6.110  -4.021  0.00  0.00    +0.000 HD
BRANCH  37  39
ATOM     39  C   UNL     1      -8.865   7.992  -2.987  0.00  0.00    +0.000 C 
BRANCH  39  40
ATOM     40  C   UNL     1     -10.361   7.888  -3.384  0.00  0.00    +0.000 C 
ATOM     41  O   UNL     1     -10.795   6.919  -4.006  0.00  0.00    +0.000 OA
ATOM     42  N   UNL     1     -11.159   8.954  -3.021  0.00  0.00    +0.000 N 
ATOM     43  H   UNL     1     -10.752   9.727  -2.524  0.00  0.00    +0.000 HD
BRANCH  42  44
ATOM     44  C   UNL     1     -12.586   8.981  -3.329  0.00  0.00    +0.000 C 
BRANCH  44  45
ATOM     45  C   UNL     1     -13.355  10.225  -2.855  0.00  0.00    +0.000 C 
ATOM     46  N   UNL     1     -12.661  11.205  -2.204  0.00  0.00    +0.000 N 
ATOM     47  O   UNL     1     -14.561  10.366  -3.043  0.00  0.00    +0.000 OA
ATOM     48  H   UNL     1     -11.680  11.199  -1.992  0.00  0.00    +0.000 HD
ATOM     49  H   UNL     1     -13.187  12.015  -1.896  0.00  0.00    +0.000 HD
ENDBRANCH  44  45
ENDBRANCH  42  44
ENDBRANCH  39  40
BRANCH  39  50
ATOM     50  C   UNL     1      -8.257   9.263  -3.688  0.00  0.00    +0.000 C 
BRANCH  50  51
ATOM     51  C   UNL     1      -6.770   9.514  -3.438  0.00  0.00    +0.000 C 
ATOM     52  C   UNL     1      -5.938   8.541  -4.224  0.00  0.00    +0.000 C 
ATOM     53  C   UNL     1      -6.206  10.818  -3.971  0.00  0.00    +0.000 C 
ENDBRANCH  50  51
ENDBRANCH  39  50
ENDBRANCH  37  39
ENDBRANCH  34  35
ENDBRANCH  33  34
BRANCH  33  54
ATOM     54  C   UNL     1      -4.070   6.600  -2.471  0.00  0.00    +0.000 C 
BRANCH  54  55
ATOM     55  C   UNL     1      -2.770   6.651  -1.746  0.00  0.00    +0.000 C 
BRANCH  55  56
ATOM     56  C   UNL     1      -2.322   8.050  -1.386  0.00  0.00    +0.000 C 
BRANCH  56  57
ATOM     57  O   UNL     1      -0.937   8.067  -1.193  0.00  0.00    +0.000 OA
ATOM     58  H   UNL     1      -0.678   7.130  -1.228  0.00  0.00    +0.000 HD
ENDBRANCH  56  57
ENDBRANCH  55  56
ENDBRANCH  54  55
ENDBRANCH  33  54
ENDBRANCH  14  31
BRANCH   1  59
ATOM     59  C   UNL     1       3.596   0.792  -1.156  0.00  0.00    +0.000 C 
ATOM     60  C   UNL     1       3.171  -0.243   0.037  0.00  0.00    +0.000 C 
BRANCH  59  62
ATOM     61  C   UNL     1       0.831   1.402  -0.652  0.00  0.00    +0.000 C 
ATOM     62  C   UNL     1       2.347   1.457  -0.666  0.00  0.00    +0.000 C 
ENDBRANCH  59  62
ENDBRANCH   1  59
BRANCH  18  63
ATOM     63  C   UNL     1       1.587   4.664  -4.395  0.00  0.00    +0.000 C 
BRANCH  63  64
ATOM     64  C   UNL     1       1.183   4.955  -5.762  0.00  0.00    +0.000 C 
ATOM     65  N   UNL     1      -0.030   4.527  -6.103  0.00  0.00    +0.000 N 
ATOM     66  O   UNL     1       1.886   5.584  -6.566  0.00  0.00    +0.000 OA
ATOM     67  H   UNL     1      -0.663   4.267  -5.364  0.00  0.00    +0.000 HD
ATOM     68  H   UNL     1      -0.466   5.095  -6.805  0.00  0.00    +0.000 HD
ENDBRANCH  63  64
ENDBRANCH  18  63
BRANCH   5  69
ATOM     69  C   UNL     1       3.445   7.282  -1.614  0.00  0.00    +0.000 C 
BRANCH  69  70
ATOM     70  C   UNL     1       2.459   6.506  -0.793  0.00  0.00    +0.000 A 
ATOM     71  C   UNL     1       2.790   5.273  -0.435  0.00  0.00    +0.000 A 
ATOM     72  C   UNL     1       1.816   4.354   0.135  0.00  0.00    +0.000 A 
ATOM     73  C   UNL     1       0.494   4.566   0.378  0.00  0.00    +0.000 A 
ATOM     74  C   UNL     1       0.254   5.874   0.262  0.00  0.00    +0.000 A 
ATOM     75  C   UNL     1       1.227   6.818  -0.281  0.00  0.00    +0.000 A 
BRANCH  73  76
ATOM     76  O   UNL     1      -0.612   3.769   0.439  0.00  0.00    +0.000 OA
ATOM     77  H   UNL     1      -0.652   2.831   0.180  0.00  0.00    +0.000 HD
ENDBRANCH  73  76
ENDBRANCH  69  70
ENDBRANCH   5  69
BRANCH  22  78
ATOM     78  C   UNL     1       2.159   0.499  -3.619  0.00  0.00    +0.000 C 
BRANCH  78  79
ATOM     79  C   UNL     1       2.787  -0.822  -3.970  0.00  0.00    +0.000 C 
BRANCH  79  80
ATOM     80  C   UNL     1       1.703  -1.888  -3.904  0.00  0.00    +0.000 C 
ATOM     81  N   UNL     1       0.494  -1.582  -3.325  0.00  0.00    +0.000 N 
ATOM     82  O   UNL     1       1.907  -3.018  -4.329  0.00  0.00    +0.000 OA
ATOM     83  H   UNL     1       0.182  -0.659  -3.046  0.00  0.00    +0.000 HD
ATOM     84  H   UNL     1      -0.242  -2.268  -3.381  0.00  0.00    +0.000 HD
ENDBRANCH  79  80
ENDBRANCH  78  79
ENDBRANCH  22  78
TORSDOF 23
