REMARK  Name = CHEMBL371983
REMARK  14 active torsions:
REMARK  status: ('A' for Active; 'I' for Inactive)
REMARK    1  A    between atoms: CD1_1  and  CG_2
REMARK    2  A    between atoms: CG_2  and  CD2_3
REMARK    3  A    between atoms: CG_2  and  CB_4
REMARK    4  A    between atoms: CB_4  and  CA_5
REMARK    5  A    between atoms: C_9  and  C_10
REMARK    6  A    between atoms: N_21  and  C_22
REMARK    7  A    between atoms: C_22  and  C_23
REMARK    8  A    between atoms: C_22  and  C_30
REMARK    9  A    between atoms: N_25  and  C_26
REMARK   10  A    between atoms: C_26  and  C_27
REMARK   11  A    between atoms: C_26  and  C_28
REMARK   12  A    between atoms: C_26  and  C_29
REMARK   13  A    between atoms: C_34  and  N_35
REMARK   14  A    between atoms: N_38  and  C_39
REMARK                            x       y       z     vdW  Elec       q    Type
REMARK                         _______ _______ _______ _____ _____    ______ ____
ROOT
ATOM      1  CA  LEU A   2       4.723  -0.579  -1.193  0.00  0.00    +0.000 C 
ATOM      2  C   LEU A   2       5.111  -0.326  -2.661  0.00  0.00    +0.000 C 
ATOM      3  O   LEU A   2       4.451   0.233  -3.505  0.00  0.00    +0.000 OA
ATOM      4  N   UNK A   1       6.387  -0.719  -2.925  0.00  0.00    +0.000 N 
ATOM      5  C   UNK A   1       7.255  -1.282  -1.911  0.00  0.00    +0.000 C 
ATOM      6  C   UNK A   1       6.484  -2.308  -1.072  0.00  0.00    +0.000 C 
ATOM      7  O   UNK A   1       7.100  -3.268  -0.642  0.00  0.00    +0.000 OA
ATOM      8  N   LEU A   2       5.137  -2.016  -0.842  0.00  0.00    +0.000 N 
ATOM      9  H   UNK A   1       6.697  -0.521  -3.868  0.00  0.00    +0.000 HD
ENDROOT
BRANCH   5  10
ATOM     10  C   UNK A   1       8.429  -2.084  -2.514  0.00  0.00    +0.000 C 
ATOM     11  C   UNK A   1       9.364  -1.224  -3.365  0.00  0.00    +0.000 C 
ATOM     12  C   UNK A   1       8.738  -1.373  -4.716  0.00  0.00    +0.000 A 
ATOM     13  C   UNK A   1       8.851  -0.516  -5.791  0.00  0.00    +0.000 A 
ATOM     14  C   UNK A   1       8.077  -0.779  -6.922  0.00  0.00    +0.000 A 
ATOM     15  C   UNK A   1       7.201  -1.877  -6.960  0.00  0.00    +0.000 A 
ATOM     16  C   UNK A   1       7.093  -2.739  -5.869  0.00  0.00    +0.000 A 
ATOM     17  C   UNK A   1       7.883  -2.484  -4.763  0.00  0.00    +0.000 A 
ATOM     18  C   UNK A   1       7.882  -3.203  -3.452  0.00  0.00    +0.000 C 
ENDBRANCH   5  10
BRANCH   1  19
ATOM     19  CB  LEU A   2       3.259  -0.283  -1.066  0.00  0.00    +0.000 C 
BRANCH  19  21
ATOM     20  CD1 LEU A   2       1.066   0.248   0.031  0.00  0.00    +0.000 C 
ATOM     21  CG  LEU A   2       2.601   0.369   0.130  0.00  0.00    +0.000 C 
ATOM     22  CD2 LEU A   2       3.032  -0.354   1.407  0.00  0.00    +0.000 C 
ENDBRANCH  19  21
ENDBRANCH   1  19
BRANCH   8  23
ATOM     23  C   UNK A   0       4.181  -3.107  -0.295  0.00  0.00    +0.000 C 
BRANCH  23  24
ATOM     24  C   UNK A   0       4.869  -4.368   0.306  0.00  0.00    +0.000 A 
ATOM     25  C   UNK A   0       4.607  -5.667  -0.140  0.00  0.00    +0.000 A 
ATOM     26  C   UNK A   0       5.190  -6.792   0.409  0.00  0.00    +0.000 A 
ATOM     27  C   UNK A   0       6.238  -6.643   1.290  0.00  0.00    +0.000 A 
ATOM     28  C   UNK A   0       6.594  -5.376   1.743  0.00  0.00    +0.000 A 
ATOM     29  C   UNK A   0       5.836  -4.263   1.322  0.00  0.00    +0.000 A 
BRANCH  28  30
ATOM     30  N   UNK A   0       7.682  -5.172   2.556  0.00  0.00    +0.000 N 
ATOM     31  C   UNK A   0       7.464  -4.602   3.879  0.00  0.00    +0.000 C 
ATOM     32  C   UNK A   0       8.613  -3.634   4.207  0.00  0.00    +0.000 C 
ATOM     33  N   UNK A   0       9.927  -4.311   4.111  0.00  0.00    +0.000 NA
ATOM     34  C   UNK A   0      11.000  -3.406   4.494  0.00  0.00    +0.000 C 
ATOM     35  C   UNK A   0      10.099  -4.787   2.714  0.00  0.00    +0.000 C 
ATOM     36  C   UNK A   0       8.987  -5.787   2.301  0.00  0.00    +0.000 C 
ENDBRANCH  28  30
ENDBRANCH  23  24
BRANCH  23  37
ATOM     37  C   UNK A   0       2.900  -3.519  -1.248  0.00  0.00    +0.000 C 
ATOM     38  O   UNK A   0       2.648  -4.672  -1.585  0.00  0.00    +0.000 OA
ATOM     39  N   UNK A   0       1.965  -2.591  -1.668  0.00  0.00    +0.000 N 
ATOM     40  H   UNK A   0       1.638  -1.902  -1.024  0.00  0.00    +0.000 HD
BRANCH  39  41
ATOM     41  C   UNK A   0       0.901  -2.862  -2.608  0.00  0.00    +0.000 C 
ATOM     42  C   UNK A   0       1.531  -3.396  -3.891  0.00  0.00    +0.000 C 
ATOM     43  C   UNK A   0      -0.086  -3.790  -1.900  0.00  0.00    +0.000 C 
ATOM     44  C   UNK A   0       0.189  -1.531  -2.940  0.00  0.00    +0.000 C 
ENDBRANCH  39  41
ENDBRANCH  23  37
ENDBRANCH   8  23
TORSDOF 8
