REMARK  Name = CHEMBL467184
REMARK  8 active torsions:
REMARK  status: ('A' for Active; 'I' for Inactive)
REMARK    1  A    between atoms: C_1  and  O_2
REMARK    2  A    between atoms: O_2  and  C_3
REMARK    3  A    between atoms: C_6  and  N_7
REMARK    4  A    between atoms: C_8  and  C_9
REMARK    5  A    between atoms: C_12  and  C_13
REMARK    6  A    between atoms: C_16  and  C_17
REMARK    7  A    between atoms: C_22  and  O_23
REMARK    8  A    between atoms: O_23  and  C_24
REMARK                            x       y       z     vdW  Elec       q    Type
REMARK                         _______ _______ _______ _____ _____    ______ ____
ROOT
ATOM      1  N   UNL     1       5.410  -2.216   4.271  0.00  0.00    +0.000 N 
ATOM      2  C   UNL     1       5.810  -1.731   5.511  0.00  0.00    +0.000 A 
ATOM      3  C   UNL     1       5.457  -0.446   6.160  0.00  0.00    +0.000 C 
ATOM      4  N   UNL     1       6.479  -2.679   6.146  0.00  0.00    +0.000 NA
ATOM      5  N   UNL     1       6.531  -3.786   5.355  0.00  0.00    +0.000 NA
ATOM      6  C   UNL     1       5.913  -3.511   4.217  0.00  0.00    +0.000 A 
ENDROOT
BRANCH   1  10
ATOM      7  C   UNL     1       3.044  -0.476   1.196  0.00  0.00    +0.000 A 
ATOM      8  C   UNL     1       4.228   0.140   1.620  0.00  0.00    +0.000 A 
ATOM      9  C   UNL     1       5.020  -0.418   2.642  0.00  0.00    +0.000 A 
ATOM     10  C   UNL     1       4.610  -1.599   3.261  0.00  0.00    +0.000 A 
ATOM     11  C   UNL     1       3.463  -2.257   2.787  0.00  0.00    +0.000 A 
ATOM     12  C   UNL     1       2.675  -1.688   1.772  0.00  0.00    +0.000 A 
BRANCH   7  14
ATOM     13  C   UNL     1       0.978   0.020   0.112  0.00  0.00    +0.000 C 
ATOM     14  O   UNL     1       2.400   0.128   0.149  0.00  0.00    +0.000 OA
ENDBRANCH   7  14
ENDBRANCH   1  10
BRANCH   6  15
ATOM     15  C   UNL     1       5.869  -4.386   3.057  0.00  0.00    +0.000 A 
ATOM     16  C   UNL     1       5.397  -5.696   3.159  0.00  0.00    +0.000 A 
ATOM     17  C   UNL     1       5.442  -6.541   2.049  0.00  0.00    +0.000 A 
ATOM     18  C   UNL     1       5.854  -6.059   0.794  0.00  0.00    +0.000 A 
ATOM     19  C   UNL     1       6.181  -4.704   0.677  0.00  0.00    +0.000 A 
ATOM     20  C   UNL     1       6.305  -3.913   1.814  0.00  0.00    +0.000 A 
BRANCH  18  21
ATOM     21  C   UNL     1       6.025  -6.975  -0.340  0.00  0.00    +0.000 A 
ATOM     22  C   UNL     1       4.849  -7.560  -0.866  0.00  0.00    +0.000 A 
ATOM     23  C   UNL     1       4.889  -8.502  -1.893  0.00  0.00    +0.000 A 
ATOM     24  C   UNL     1       6.106  -8.838  -2.465  0.00  0.00    +0.000 A 
ATOM     25  C   UNL     1       7.280  -8.261  -1.978  0.00  0.00    +0.000 A 
ATOM     26  C   UNL     1       7.267  -7.346  -0.908  0.00  0.00    +0.000 A 
BRANCH  26  27
ATOM     27  O   UNL     1       8.545  -6.977  -0.565  0.00  0.00    +0.000 OA
ATOM     28  C   UNL     1       8.776  -6.055   0.486  0.00  0.00    +0.000 C 
ENDBRANCH  26  27
ENDBRANCH  18  21
ENDBRANCH   6  15
TORSDOF 5
