REMARK  Name = CHEMBL2037498
REMARK  11 active torsions:
REMARK  status: ('A' for Active; 'I' for Inactive)
REMARK    1  A    between atoms: CD1_1  and  CG1_2
REMARK    2  A    between atoms: CG1_2  and  CB_3
REMARK    3  A    between atoms: CB_3  and  CG2_4
REMARK    4  A    between atoms: CB_3  and  CA_5
REMARK    5  A    between atoms: C_9  and  C_10
REMARK    6  A    between atoms: N_21  and  C_22
REMARK    7  A    between atoms: C_22  and  C_23
REMARK    8  A    between atoms: C_22  and  C_28
REMARK    9  A    between atoms: N_25  and  C_26
REMARK   10  A    between atoms: N_25  and  C_27
REMARK   11  A    between atoms: C_31  and  C_32
REMARK                            x       y       z     vdW  Elec       q    Type
REMARK                         _______ _______ _______ _____ _____    ______ ____
ROOT
ATOM      1  CA  ILE A   2       4.770  -0.925  -1.201  0.00  0.00    +0.000 C 
ATOM      2  C   ILE A   2       5.108  -2.286  -0.455  0.00  0.00    +0.000 C 
ATOM      3  O   ILE A   2       4.464  -3.322  -0.384  0.00  0.00    +0.000 OA
ATOM      4  N   UNK A   1       6.350  -2.274   0.073  0.00  0.00    +0.000 N 
ATOM      5  C   UNK A   1       7.246  -1.163  -0.141  0.00  0.00    +0.000 C 
ATOM      6  C   UNK A   1       6.541   0.159   0.142  0.00  0.00    +0.000 C 
ATOM      7  O   UNK A   1       7.173   1.071   0.621  0.00  0.00    +0.000 OA
ATOM      8  N   ILE A   2       5.200   0.192  -0.238  0.00  0.00    +0.000 N 
ATOM      9  H   UNK A   1       6.635  -3.159   0.480  0.00  0.00    +0.000 HD
ENDROOT
BRANCH   5  10
ATOM     10  C   UNK A   1       8.408  -1.189   0.852  0.00  0.00    +0.000 C 
ATOM     11  C   UNK A   1       9.249  -2.442   0.630  0.00  0.00    +0.000 C 
ATOM     12  C   UNK A   1       8.598  -3.399   1.583  0.00  0.00    +0.000 A 
ATOM     13  C   UNK A   1       8.587  -4.777   1.502  0.00  0.00    +0.000 A 
ATOM     14  C   UNK A   1       7.797  -5.486   2.408  0.00  0.00    +0.000 A 
ATOM     15  C   UNK A   1       7.014  -4.815   3.361  0.00  0.00    +0.000 A 
ATOM     16  C   UNK A   1       7.002  -3.421   3.421  0.00  0.00    +0.000 A 
ATOM     17  C   UNK A   1       7.810  -2.726   2.535  0.00  0.00    +0.000 A 
ATOM     18  C   UNK A   1       7.877  -1.245   2.319  0.00  0.00    +0.000 C 
ENDBRANCH   5  10
BRANCH   1  19
ATOM     19  CB  ILE A   2       3.299  -0.906  -1.658  0.00  0.00    +0.000 C 
ATOM     20  CG2 ILE A   2       2.871  -0.771  -3.078  0.00  0.00    +0.000 C 
BRANCH  19  22
ATOM     21  CD1 ILE A   2       0.875   0.772  -0.457  0.00  0.00    +0.000 C 
ATOM     22  CG1 ILE A   2       2.529   0.228  -0.885  0.00  0.00    +0.000 C 
ENDBRANCH  19  22
ENDBRANCH   1  19
BRANCH   8  23
ATOM     23  C   UNK A   0       4.229   1.170   0.506  0.00  0.00    +0.000 C 
BRANCH  23  24
ATOM     24  C   UNK A   0       4.901   2.430   1.064  0.00  0.00    +0.000 A 
ATOM     25  C   UNK A   0       5.863   3.209   0.349  0.00  0.00    +0.000 A 
ATOM     26  C   UNK A   0       6.654   4.095   1.069  0.00  0.00    +0.000 A 
ATOM     27  C   UNK A   0       6.320   4.301   2.399  0.00  0.00    +0.000 A 
ATOM     28  C   UNK A   0       7.054   5.204   3.304  0.00  0.00    +0.000 C 
ATOM     29  N   UNK A   0       5.290   3.712   3.024  0.00  0.00    +0.000 NA
ATOM     30  C   UNK A   0       4.633   2.781   2.354  0.00  0.00    +0.000 A 
ENDBRANCH  23  24
BRANCH  23  31
ATOM     31  C   UNK A   0       2.702   0.516   1.545  0.00  0.00    +0.000 C 
ATOM     32  O   UNK A   0       2.263   1.176   2.440  0.00  0.00    +0.000 OA
ATOM     33  N   UNK A   0       1.741  -0.858   1.067  0.00  0.00    +0.000 N 
ATOM     34  C   UNK A   0       1.164  -1.667  -0.424  0.00  0.00    +0.000 C 
ATOM     35  C   UNK A   0       0.722  -1.093   2.040  0.00  0.00    +0.000 C 
ENDBRANCH  23  31
ENDBRANCH   8  23
TORSDOF 6
