REMARK  Name = CHEMBL602545
REMARK  7 active torsions:
REMARK  status: ('A' for Active; 'I' for Inactive)
REMARK    1  A    between atoms: C_1  and  O_2
REMARK    2  A    between atoms: O_2  and  C_3
REMARK    3  A    between atoms: C_6  and  N_7
REMARK    4  A    between atoms: C_8  and  C_9
REMARK    5  A    between atoms: C_16  and  O_17
REMARK    6  A    between atoms: O_17  and  C_18
REMARK    7  A    between atoms: C_24  and  C_25
REMARK                            x       y       z     vdW  Elec       q    Type
REMARK                         _______ _______ _______ _____ _____    ______ ____
ROOT
ATOM      1  N   UNL     1       5.172  -3.610  -3.471  0.00  0.00    +0.000 N 
ATOM      2  C   UNL     1       5.421  -4.987  -3.371  0.00  0.00    +0.000 A 
ATOM      3  C   UNL     1       4.886  -5.981  -2.396  0.00  0.00    +0.000 C 
ATOM      4  N   UNL     1       6.157  -5.365  -4.394  0.00  0.00    +0.000 NA
ATOM      5  N   UNL     1       6.402  -4.276  -5.180  0.00  0.00    +0.000 NA
ATOM      6  C   UNL     1       5.886  -3.221  -4.611  0.00  0.00    +0.000 A 
ATOM      7  N   UNL     1       5.953  -1.940  -5.088  0.00  0.00    +0.000 N 
ATOM      8  C   UNL     1       5.656  -1.719  -6.480  0.00  0.00    +0.000 C 
ATOM      9  C   UNL     1       6.888  -1.156  -7.204  0.00  0.00    +0.000 C 
ATOM     10  C   UNL     1       7.229   0.202  -6.605  0.00  0.00    +0.000 C 
ATOM     11  C   UNL     1       7.558  -0.082  -5.117  0.00  0.00    +0.000 C 
ATOM     12  C   UNL     1       6.393  -0.760  -4.361  0.00  0.00    +0.000 C 
ENDROOT
BRANCH   1  16
ATOM     13  C   UNL     1       3.081  -0.950  -1.031  0.00  0.00    +0.000 A 
ATOM     14  C   UNL     1       2.774  -0.965  -2.383  0.00  0.00    +0.000 A 
ATOM     15  C   UNL     1       3.432  -1.885  -3.209  0.00  0.00    +0.000 A 
ATOM     16  C   UNL     1       4.377  -2.764  -2.659  0.00  0.00    +0.000 A 
ATOM     17  C   UNL     1       4.651  -2.640  -1.308  0.00  0.00    +0.000 A 
ATOM     18  N   UNL     1       4.026  -1.751  -0.490  0.00  0.00    +0.000 NA
BRANCH  13  20
ATOM     19  C   UNL     1       1.096  -0.076  -0.150  0.00  0.00    +0.000 C 
ATOM     20  O   UNL     1       2.523  -0.046  -0.163  0.00  0.00    +0.000 OA
ENDBRANCH  13  20
ENDBRANCH   1  16
BRANCH  10  21
ATOM     21  O   UNL     1       6.128   1.151  -6.720  0.00  0.00    +0.000 OA
BRANCH  21  22
ATOM     22  C   UNL     1       5.834   1.614  -7.991  0.00  0.00    +0.000 A 
ATOM     23  C   UNL     1       6.188   2.948  -8.282  0.00  0.00    +0.000 A 
ATOM     24  C   UNL     1       5.841   3.536  -9.512  0.00  0.00    +0.000 A 
ATOM     25  C   UNL     1       5.167   2.793 -10.470  0.00  0.00    +0.000 A 
ATOM     26  C   UNL     1       4.788   1.500 -10.173  0.00  0.00    +0.000 A 
ATOM     27  F   UNL     1       4.110   0.810 -11.103  0.00  0.00    +0.000 F 
ATOM     28  C   UNL     1       5.041   0.911  -8.928  0.00  0.00    +0.000 A 
ATOM     29  C   UNL     1       4.323  -0.390  -8.730  0.00  0.00    +0.000 C 
ENDBRANCH  21  22
ENDBRANCH  10  21
TORSDOF 4
