REMARK  Name = CHEMBL31241
REMARK  2 active torsions:
REMARK  status: ('A' for Active; 'I' for Inactive)
REMARK    1  A    between atoms: C_2  and  C_3
REMARK    2  A    between atoms: C_15  and  N_16
REMARK                            x       y       z     vdW  Elec       q    Type
REMARK                         _______ _______ _______ _____ _____    ______ ____
ROOT
ATOM      1  O   UNL     1       0.969   0.143   0.114  0.00  0.00    +0.000 OA
ATOM      2  C   UNL     1       2.189   0.069   0.030  0.00  0.00    +0.000 C 
ATOM      3  N   UNL     1       2.991   1.049  -0.528  0.00  0.00    +0.000 N 
ATOM      4  C   UNL     1       4.094   0.721  -1.428  0.00  0.00    +0.000 C 
ATOM      5  C   UNL     1       5.322   1.501  -1.007  0.00  0.00    +0.000 C 
ATOM      6  C   UNL     1       5.027   3.021  -0.966  0.00  0.00    +0.000 C 
ATOM      7  C   UNL     1       3.793   3.304  -0.087  0.00  0.00    +0.000 C 
ATOM      8  C   UNL     1       2.586   2.449  -0.466  0.00  0.00    +0.000 C 
ENDROOT
BRANCH   6   9
ATOM      9  N   UNL     1       5.005   3.629  -2.332  0.00  0.00    +0.000 N 
ATOM     10  C   UNL     1       4.098   3.266  -3.327  0.00  0.00    +0.000 C 
ATOM     11  O   UNL     1       2.883   3.153  -3.241  0.00  0.00    +0.000 OA
ATOM     12  O   UNL     1       4.699   2.962  -4.503  0.00  0.00    +0.000 OA
ATOM     13  C   UNL     1       5.189   4.146  -5.090  0.00  0.00    +0.000 C 
ATOM     14  C   UNL     1       6.048   4.893  -4.116  0.00  0.00    +0.000 A 
ATOM     15  C   UNL     1       6.893   5.894  -4.596  0.00  0.00    +0.000 A 
ATOM     16  C   UNL     1       7.676   6.614  -3.708  0.00  0.00    +0.000 A 
ATOM     17  C   UNL     1       7.609   6.340  -2.343  0.00  0.00    +0.000 A 
ATOM     18  C   UNL     1       6.762   5.337  -1.856  0.00  0.00    +0.000 A 
ATOM     19  C   UNL     1       5.971   4.601  -2.739  0.00  0.00    +0.000 A 
ENDBRANCH   6   9
BRANCH   2  20
ATOM     20  C   UNL     1       2.897  -1.055   0.703  0.00  0.00    +0.000 A 
ATOM     21  C   UNL     1       2.440  -2.361   0.531  0.00  0.00    +0.000 A 
ATOM     22  C   UNL     1       3.025  -3.425   1.232  0.00  0.00    +0.000 A 
ATOM     23  C   UNL     1       4.089  -3.133   2.098  0.00  0.00    +0.000 A 
ATOM     24  N   UNL     1       4.852  -3.961   2.896  0.00  0.00    +0.000 N 
ATOM     25  C   UNL     1       5.818  -3.235   3.543  0.00  0.00    +0.000 A 
ATOM     26  C   UNL     1       5.641  -1.911   3.214  0.00  0.00    +0.000 A 
ATOM     27  C   UNL     1       4.563  -1.835   2.290  0.00  0.00    +0.000 A 
ATOM     28  C   UNL     1       3.946  -0.776   1.597  0.00  0.00    +0.000 A 
ATOM     29  H   UNL     1       4.730  -4.962   2.971  0.00  0.00    +0.000 HD
ENDBRANCH   2  20
TORSDOF 2
