REMARK  Name = CHEMBL1779400
REMARK  14 active torsions:
REMARK  status: ('A' for Active; 'I' for Inactive)
REMARK    1  A    between atoms: C_1  and  O_2
REMARK    2  A    between atoms: O_2  and  C_3
REMARK    3  A    between atoms: C_6  and  S_7
REMARK    4  A    between atoms: S_7  and  N_10
REMARK    5  A    between atoms: C_13  and  C_14
REMARK    6  A    between atoms: C_13  and  N_22
REMARK    7  A    between atoms: C_19  and  O_20
REMARK    8  A    between atoms: O_20  and  C_21
REMARK    9  A    between atoms: C_24  and  O_25
REMARK   10  A    between atoms: C_27  and  C_28
REMARK   11  A    between atoms: N_30  and  C_31
REMARK   12  A    between atoms: N_30  and  C_32
REMARK   13  A    between atoms: C_40  and  O_41
REMARK   14  A    between atoms: O_41  and  C_42
REMARK                            x       y       z     vdW  Elec       q    Type
REMARK                         _______ _______ _______ _____ _____    ______ ____
ROOT
ATOM      1  N   UNL     1       6.250  -4.244  -6.334  0.00  0.00    +0.000 N 
ATOM      2  C   UNL     1       4.999  -4.948  -6.296  0.00  0.00    +0.000 C 
ATOM      3  O   UNL     1       4.974  -6.084  -5.815  0.00  0.00    +0.000 OA
ATOM      4  C   UNL     1       4.373  -4.446  -7.624  0.00  0.00    +0.000 C 
ATOM      5  C   UNL     1       5.158  -5.557  -8.286  0.00  0.00    +0.000 A 
ATOM      6  C   UNL     1       4.774  -6.817  -8.820  0.00  0.00    +0.000 A 
ATOM      7  C   UNL     1       5.702  -7.640  -9.378  0.00  0.00    +0.000 A 
ATOM      8 CL   UNL     1       5.419  -9.321  -9.507  0.00  0.00    +0.000 Cl
ATOM      9  C   UNL     1       6.818  -6.976  -9.774  0.00  0.00    +0.000 A 
ATOM     10  C   UNL     1       7.186  -5.783  -8.976  0.00  0.00    +0.000 A 
ATOM     11  C   UNL     1       6.442  -5.409  -7.763  0.00  0.00    +0.000 A 
ENDROOT
BRANCH   4  12
ATOM     12  C   UNL     1       2.850  -4.686  -7.661  0.00  0.00    +0.000 A 
ATOM     13  C   UNL     1       2.389  -5.988  -7.327  0.00  0.00    +0.000 A 
ATOM     14  C   UNL     1       1.071  -6.355  -7.483  0.00  0.00    +0.000 A 
ATOM     15  C   UNL     1       0.172  -5.334  -7.539  0.00  0.00    +0.000 A 
ATOM     16  N   UNL     1       0.520  -4.067  -7.731  0.00  0.00    +0.000 NA
ATOM     17  C   UNL     1       1.801  -3.827  -8.037  0.00  0.00    +0.000 A 
BRANCH  17  18
ATOM     18  O   UNL     1       1.795  -2.823  -8.978  0.00  0.00    +0.000 OA
ATOM     19  C   UNL     1       3.008  -2.185  -9.060  0.00  0.00    +0.000 C 
ENDBRANCH  17  18
ENDBRANCH   4  12
BRANCH   4  20
ATOM     20  N   UNL     1       5.100  -2.956  -8.014  0.00  0.00    +0.000 NA
ATOM     21  C   UNL     1       6.168  -2.788  -9.035  0.00  0.00    +0.000 C 
ATOM     22  C   UNL     1       7.289  -2.105  -8.250  0.00  0.00    +0.000 C 
ATOM     23  C   UNL     1       6.501  -1.065  -7.451  0.00  0.00    +0.000 C 
ATOM     24  C   UNL     1       5.170  -1.691  -7.043  0.00  0.00    +0.000 C 
BRANCH  24  25
ATOM     25  C   UNL     1       3.839  -0.726  -6.943  0.00  0.00    +0.000 C 
ATOM     26  O   UNL     1       2.785  -1.341  -6.761  0.00  0.00    +0.000 OA
ATOM     27  N   UNL     1       3.598   0.622  -7.078  0.00  0.00    +0.000 N 
ATOM     28  C   UNL     1       4.572   1.618  -6.756  0.00  0.00    +0.000 C 
ATOM     29  C   UNL     1       2.155   1.094  -7.113  0.00  0.00    +0.000 C 
ENDBRANCH  24  25
BRANCH  22  30
ATOM     30  O   UNL     1       8.038  -2.958  -7.403  0.00  0.00    +0.000 OA
ATOM     31  H   UNL     1       7.395  -3.422  -6.831  0.00  0.00    +0.000 HD
ENDBRANCH  22  30
ENDBRANCH   4  20
BRANCH   1  32
ATOM     32  S   UNL     1       5.861  -3.883  -4.257  0.00  0.00    +0.000 S 
ATOM     33  O   UNL     1       7.176  -3.281  -3.910  0.00  0.00    +0.000 OA
ATOM     34  O   UNL     1       5.398  -5.075  -3.636  0.00  0.00    +0.000 OA
BRANCH  32  38
ATOM     35  C   UNL     1       3.113  -0.882  -0.978  0.00  0.00    +0.000 A 
ATOM     36  C   UNL     1       4.216  -1.646  -0.654  0.00  0.00    +0.000 A 
ATOM     37  C   UNL     1       5.003  -2.392  -1.674  0.00  0.00    +0.000 A 
ATOM     38  C   UNL     1       4.694  -2.470  -3.100  0.00  0.00    +0.000 A 
ATOM     39  C   UNL     1       3.523  -1.730  -3.353  0.00  0.00    +0.000 A 
ATOM     40  C   UNL     1       2.822  -0.906  -2.315  0.00  0.00    +0.000 A 
BRANCH  35  42
ATOM     41  C   UNL     1       1.030  -0.018  -0.104  0.00  0.00    +0.000 C 
ATOM     42  O   UNL     1       2.469  -0.106  -0.047  0.00  0.00    +0.000 OA
ENDBRANCH  35  42
BRANCH  39  43
ATOM     43  O   UNL     1       2.903  -1.807  -4.550  0.00  0.00    +0.000 OA
ATOM     44  C   UNL     1       1.775  -0.909  -4.669  0.00  0.00    +0.000 C 
ENDBRANCH  39  43
ENDBRANCH  32  38
ENDBRANCH   1  32
TORSDOF 9
