REMARK  Name = CHEMBL24605
REMARK  8 active torsions:
REMARK  status: ('A' for Active; 'I' for Inactive)
REMARK    1  A    between atoms: C_1  and  C_2
REMARK    2  A    between atoms: N_4  and  C_5
REMARK    3  A    between atoms: C_7  and  C_8
REMARK    4  A    between atoms: N_20  and  C_21
REMARK    5  A    between atoms: C_21  and  C_22
REMARK    6  A    between atoms: N_24  and  C_25
REMARK    7  A    between atoms: C_25  and  C_26
REMARK    8  A    between atoms: C_26  and  C_27
REMARK                            x       y       z     vdW  Elec       q    Type
REMARK                         _______ _______ _______ _____ _____    ______ ____
ROOT
ATOM      1  C   UNL     1       4.596  -1.216  -0.191  0.00  0.00    +0.000 C 
ATOM      2  N   UNL     1       5.032  -2.622  -0.211  0.00  0.00    +0.000 NA
ATOM      3  C   UNL     1       6.302  -2.886  -0.299  0.00  0.00    +0.000 C 
ATOM      4  C   UNL     1       7.388  -1.868  -0.484  0.00  0.00    +0.000 A 
ATOM      5  C   UNL     1       8.485  -2.204  -1.303  0.00  0.00    +0.000 A 
ATOM      6  C   UNL     1       9.551  -1.319  -1.478  0.00  0.00    +0.000 A 
ATOM      7  C   UNL     1       9.503  -0.059  -0.902  0.00  0.00    +0.000 A 
ATOM      8  C   UNL     1       8.392   0.311  -0.150  0.00  0.00    +0.000 A 
ATOM      9  C   UNL     1       7.374  -0.612   0.152  0.00  0.00    +0.000 A 
ATOM     10  N   UNL     1       6.470  -0.296   1.205  0.00  0.00    +0.000 N 
ATOM     11  C   UNL     1       5.109  -0.576   1.140  0.00  0.00    +0.000 C 
ATOM     12  O   UNL     1       4.366  -0.304   2.092  0.00  0.00    +0.000 OA
ENDROOT
BRANCH   3  13
ATOM     13  C   UNL     1       6.709  -4.334  -0.247  0.00  0.00    +0.000 A 
ATOM     14  C   UNL     1       6.177  -5.221  -1.189  0.00  0.00    +0.000 A 
ATOM     15  C   UNL     1       6.405  -6.594  -1.066  0.00  0.00    +0.000 A 
ATOM     16  C   UNL     1       7.243  -7.077  -0.062  0.00  0.00    +0.000 A 
ATOM     17  C   UNL     1       7.878  -6.184   0.802  0.00  0.00    +0.000 A 
ATOM     18  C   UNL     1       7.580  -4.816   0.740  0.00  0.00    +0.000 A 
ENDBRANCH   3  13
BRANCH   1  22
ATOM     19  C   UNL     1       0.975  -0.059  -0.055  0.00  0.00    +0.000 C 
ATOM     20  C   UNL     1       2.479   0.022  -0.126  0.00  0.00    +0.000 C 
ATOM     21  O   UNL     1       3.056   1.108  -0.110  0.00  0.00    +0.000 OA
ATOM     22  N   UNL     1       3.144  -1.183  -0.203  0.00  0.00    +0.000 N 
ATOM     23  H   UNL     1       2.661  -2.061  -0.311  0.00  0.00    +0.000 HD
ENDBRANCH   1  22
BRANCH  10  24
ATOM     24  C   UNL     1       6.954   0.328   2.454  0.00  0.00    +0.000 C 
BRANCH  24  25
ATOM     25  C   UNL     1       8.464   0.297   2.750  0.00  0.00    +0.000 C 
ATOM     26  O   UNL     1       9.245  -0.508   2.226  0.00  0.00    +0.000 OA
ATOM     27  N   UNL     1       8.953   1.201   3.664  0.00  0.00    +0.000 N 
ATOM     28  H   UNL     1       8.349   1.544   4.403  0.00  0.00    +0.000 HD
BRANCH  27  29
ATOM     29  C   UNL     1      10.397   1.287   3.780  0.00  0.00    +0.000 C 
BRANCH  29  30
ATOM     30  C   UNL     1      10.875   1.948   5.062  0.00  0.00    +0.000 C 
BRANCH  30  31
ATOM     31  C   UNL     1      12.382   2.041   5.088  0.00  0.00    +0.000 A 
ATOM     32  C   UNL     1      13.006   3.291   5.041  0.00  0.00    +0.000 A 
ATOM     33  C   UNL     1      14.397   3.383   4.989  0.00  0.00    +0.000 A 
ATOM     34  C   UNL     1      15.174   2.228   4.869  0.00  0.00    +0.000 A 
ATOM     35 CL   UNL     1      16.872   2.425   4.620  0.00  0.00    +0.000 Cl
ATOM     36  C   UNL     1      14.563   0.973   4.922  0.00  0.00    +0.000 A 
ATOM     37 CL   UNL     1      15.446  -0.499   4.725  0.00  0.00    +0.000 Cl
ATOM     38  C   UNL     1      13.178   0.884   5.097  0.00  0.00    +0.000 A 
ENDBRANCH  30  31
ENDBRANCH  29  30
ENDBRANCH  27  29
ENDBRANCH  24  25
ENDBRANCH  10  24
TORSDOF 7
