REMARK  Name = CHEMBL287628
REMARK  7 active torsions:
REMARK  status: ('A' for Active; 'I' for Inactive)
REMARK    1  A    between atoms: C_2  and  C_3
REMARK    2  A    between atoms: C_3  and  N_4
REMARK    3  A    between atoms: C_6  and  C_7
REMARK    4  A    between atoms: N_15  and  C_16
REMARK    5  A    between atoms: C_16  and  C_17
REMARK    6  A    between atoms: C_21  and  C_22
REMARK    7  A    between atoms: C_27  and  N_28
REMARK                            x       y       z     vdW  Elec       q    Type
REMARK                         _______ _______ _______ _____ _____    ______ ____
ROOT
ATOM      1  C   UNL     1       5.365   1.601  -2.327  0.00  0.00    +0.000 A 
ATOM      2  C   UNL     1       6.663   2.037  -2.074  0.00  0.00    +0.000 A 
ATOM      3  C   UNL     1       6.936   2.951  -3.120  0.00  0.00    +0.000 A 
ATOM      4  C   UNL     1       6.346   4.211  -3.444  0.00  0.00    +0.000 A 
ATOM      5  C   UNL     1       6.319   4.758  -4.740  0.00  0.00    +0.000 A 
ATOM      6  C   UNL     1       7.011   4.049  -5.720  0.00  0.00    +0.000 A 
ATOM      7  C   UNL     1       7.310   2.680  -5.464  0.00  0.00    +0.000 A 
ATOM      8  C   UNL     1       6.808   2.124  -4.232  0.00  0.00    +0.000 A 
ATOM      9  O   UNL     1       5.371   1.604  -3.809  0.00  0.00    +0.000 OA
ENDROOT
BRANCH   5  10
ATOM     10  C   UNL     1       5.404   5.915  -5.094  0.00  0.00    +0.000 C 
ATOM     11  O   UNL     1       5.395   6.291  -6.267  0.00  0.00    +0.000 OA
ATOM     12  N   UNL     1       4.482   6.412  -4.118  0.00  0.00    +0.000 N 
ATOM     13  C   UNL     1       3.035   6.368  -4.348  0.00  0.00    +0.000 C 
ATOM     14  C   UNL     1       2.323   7.673  -3.902  0.00  0.00    +0.000 C 
ATOM     15  C   UNL     1       2.460   8.074  -2.173  0.00  0.00    +0.000 C 
ATOM     16  C   UNL     1       4.162   8.107  -2.255  0.00  0.00    +0.000 C 
ATOM     17  C   UNL     1       4.834   6.791  -2.747  0.00  0.00    +0.000 C 
BRANCH  15  18
ATOM     18  N   UNL     1       1.246   7.854  -0.817  0.00  0.00    +0.000 N 
ATOM     19  C   UNL     1       0.325   7.961  -1.938  0.00  0.00    +0.000 C 
ATOM     20  O   UNL     1       0.210   8.910  -2.755  0.00  0.00    +0.000 OA
ATOM     21  O   UNL     1      -0.355   6.845  -2.205  0.00  0.00    +0.000 OA
ATOM     22  C   UNL     1      -1.545   7.172  -1.584  0.00  0.00    +0.000 C 
ATOM     23  C   UNL     1      -1.146   6.588  -0.319  0.00  0.00    +0.000 A 
ATOM     24  C   UNL     1      -1.726   5.344   0.070  0.00  0.00    +0.000 A 
ATOM     25  F   UNL     1      -1.898   4.471  -0.926  0.00  0.00    +0.000 F 
ATOM     26  C   UNL     1      -1.863   4.873   1.352  0.00  0.00    +0.000 A 
ATOM     27  C   UNL     1      -1.340   5.743   2.272  0.00  0.00    +0.000 A 
ATOM     28  C   UNL     1      -0.467   6.952   1.762  0.00  0.00    +0.000 A 
ATOM     29  C   UNL     1      -0.041   7.153   0.281  0.00  0.00    +0.000 A 
ENDBRANCH  15  18
ENDBRANCH   5  10
BRANCH   1  30
ATOM     30  C   UNL     1       4.543   0.730  -1.313  0.00  0.00    +0.000 C 
BRANCH  30  33
ATOM     31  O   UNL     1       1.113  -0.032  -0.372  0.00  0.00    +0.000 OA
ATOM     32  C   UNL     1       2.340  -0.019  -0.232  0.00  0.00    +0.000 C 
ATOM     33  N   UNL     1       3.090   0.731  -1.152  0.00  0.00    +0.000 N 
ATOM     34  H   UNL     1       2.502   1.255  -1.790  0.00  0.00    +0.000 HD
BRANCH  32  35
ATOM     35  C   UNL     1       3.037  -0.842   0.918  0.00  0.00    +0.000 C 
BRANCH  35  36
ATOM     36  N   UNL     1       2.120  -1.599   1.820  0.00  0.00    +0.000 N 
ATOM     37  C   UNL     1       2.277  -2.974   1.995  0.00  0.00    +0.000 A 
ATOM     38  C   UNL     1       1.358  -3.719   2.642  0.00  0.00    +0.000 A 
ATOM     39  C   UNL     1       0.267  -3.049   3.324  0.00  0.00    +0.000 A 
ATOM     40  C   UNL     1       0.194  -1.712   3.335  0.00  0.00    +0.000 A 
ATOM     41  C   UNL     1       1.125  -0.893   2.505  0.00  0.00    +0.000 A 
ATOM     42  O   UNL     1       0.971   0.323   2.470  0.00  0.00    +0.000 OA
BRANCH  38  43
ATOM     43  C   UNL     1       1.386  -5.221   2.693  0.00  0.00    +0.000 C 
ATOM     44  F   UNL     1       1.424  -5.693   3.965  0.00  0.00    +0.000 F 
ATOM     45  F   UNL     1       0.283  -5.758   2.109  0.00  0.00    +0.000 F 
ATOM     46  F   UNL     1       2.461  -5.743   2.047  0.00  0.00    +0.000 F 
ENDBRANCH  38  43
ENDBRANCH  35  36
ENDBRANCH  32  35
ENDBRANCH  30  33
ENDBRANCH   1  30
TORSDOF 7
