REMARK  Name = CHEMBL467186
REMARK  10 active torsions:
REMARK  status: ('A' for Active; 'I' for Inactive)
REMARK    1  A    between atoms: C_1  and  O_2
REMARK    2  A    between atoms: O_2  and  C_3
REMARK    3  A    between atoms: C_3  and  C_4
REMARK    4  A    between atoms: C_7  and  C_8
REMARK    5  A    between atoms: C_11  and  C_12
REMARK    6  A    between atoms: C_16  and  C_17
REMARK    7  A    between atoms: C_18  and  C_19
REMARK    8  A    between atoms: N_22  and  C_23
REMARK    9  A    between atoms: C_26  and  O_27
REMARK   10  A    between atoms: O_27  and  C_28
REMARK                            x       y       z     vdW  Elec       q    Type
REMARK                         _______ _______ _______ _____ _____    ______ ____
ROOT
ATOM      1  C   UNL     1       4.508   1.041  -0.954  0.00  0.00    +0.000 A 
ATOM      2  N   UNL     1       5.372   1.525  -0.078  0.00  0.00    +0.000 NA
ATOM      3  N   UNL     1       6.650   1.256  -0.531  0.00  0.00    +0.000 NA
ATOM      4  C   UNL     1       6.563   0.629  -1.694  0.00  0.00    +0.000 A 
ATOM      5  N   UNL     1       5.222   0.447  -1.972  0.00  0.00    +0.000 N 
ENDROOT
BRANCH   4   6
ATOM      6  C   UNL     1       7.643   0.310  -2.629  0.00  0.00    +0.000 A 
ATOM      7  C   UNL     1       7.676   0.833  -3.924  0.00  0.00    +0.000 A 
ATOM      8  N   UNL     1       8.591   0.474  -4.861  0.00  0.00    +0.000 NA
ATOM      9  C   UNL     1       9.504  -0.447  -4.467  0.00  0.00    +0.000 A 
ATOM     10  C   UNL     1       9.484  -0.943  -3.160  0.00  0.00    +0.000 A 
ATOM     11  N   UNL     1       8.557  -0.598  -2.225  0.00  0.00    +0.000 NA
BRANCH   9  12
ATOM     12  C   UNL     1      10.479  -0.899  -5.476  0.00  0.00    +0.000 A 
ATOM     13  C   UNL     1      11.364   0.040  -6.040  0.00  0.00    +0.000 A 
ATOM     14  C   UNL     1      12.337  -0.345  -6.962  0.00  0.00    +0.000 A 
ATOM     15  C   UNL     1      12.421  -1.674  -7.366  0.00  0.00    +0.000 A 
ATOM     16  C   UNL     1      11.538  -2.636  -6.854  0.00  0.00    +0.000 A 
ATOM     17  C   UNL     1      11.648  -4.052  -7.351  0.00  0.00    +0.000 C 
ATOM     18  C   UNL     1      10.567  -2.256  -5.895  0.00  0.00    +0.000 A 
ATOM     19  C   UNL     1       9.612  -3.280  -5.322  0.00  0.00    +0.000 C 
ENDBRANCH   9  12
ENDBRANCH   4   6
BRANCH   5  20
ATOM     20  C   UNL     1       4.696  -0.112  -3.143  0.00  0.00    +0.000 A 
ATOM     21  C   UNL     1       3.939   0.673  -4.001  0.00  0.00    +0.000 A 
ATOM     22  C   UNL     1       3.403   0.075  -5.130  0.00  0.00    +0.000 A 
ATOM     23  C   UNL     1       3.656  -1.273  -5.364  0.00  0.00    +0.000 A 
ATOM     24  N   UNL     1       4.430  -2.025  -4.547  0.00  0.00    +0.000 NA
ATOM     25  C   UNL     1       4.950  -1.435  -3.451  0.00  0.00    +0.000 A 
BRANCH  23  26
ATOM     26  O   UNL     1       3.155  -1.977  -6.422  0.00  0.00    +0.000 OA
ATOM     27  C   UNL     1       2.344  -1.245  -7.330  0.00  0.00    +0.000 C 
ENDBRANCH  23  26
ENDBRANCH   5  20
BRANCH   1  28
ATOM     28  C   UNL     1       3.013   1.116  -0.909  0.00  0.00    +0.000 C 
BRANCH  28  30
ATOM     29  C   UNL     1       1.082   0.095  -0.039  0.00  0.00    +0.000 C 
ATOM     30  O   UNL     1       2.510   0.108  -0.031  0.00  0.00    +0.000 OA
ENDBRANCH  28  30
ENDBRANCH   1  28
TORSDOF 6
