REMARK  Name = CHEMBL281044
REMARK  6 active torsions:
REMARK  status: ('A' for Active; 'I' for Inactive)
REMARK    1  A    between atoms: C_2  and  C_3
REMARK    2  A    between atoms: C_3  and  N_4
REMARK    3  A    between atoms: N_15  and  C_16
REMARK    4  A    between atoms: C_16  and  C_17
REMARK    5  A    between atoms: C_21  and  C_22
REMARK    6  A    between atoms: C_27  and  N_28
REMARK                            x       y       z     vdW  Elec       q    Type
REMARK                         _______ _______ _______ _____ _____    ______ ____
ROOT
ATOM      1  C   UNL     1       5.380  -2.141  -1.719  0.00  0.00    +0.000 A 
ATOM      2  C   UNL     1       6.677  -1.859  -2.142  0.00  0.00    +0.000 A 
ATOM      3  C   UNL     1       6.970  -2.877  -3.084  0.00  0.00    +0.000 A 
ATOM      4  C   UNL     1       6.405  -3.191  -4.356  0.00  0.00    +0.000 A 
ATOM      5  C   UNL     1       6.430  -4.473  -4.944  0.00  0.00    +0.000 A 
ATOM      6  C   UNL     1       7.138  -5.451  -4.256  0.00  0.00    +0.000 A 
ATOM      7  C   UNL     1       7.409  -5.215  -2.879  0.00  0.00    +0.000 A 
ATOM      8  C   UNL     1       6.866  -4.012  -2.288  0.00  0.00    +0.000 A 
ATOM      9  O   UNL     1       5.402  -3.626  -1.787  0.00  0.00    +0.000 OA
ENDROOT
BRANCH   5  10
ATOM     10  C   UNL     1       5.570  -4.813  -6.146  0.00  0.00    +0.000 C 
ATOM     11  O   UNL     1       5.585  -5.971  -6.565  0.00  0.00    +0.000 OA
ATOM     12  N   UNL     1       4.703  -3.807  -6.660  0.00  0.00    +0.000 N 
ATOM     13  C   UNL     1       3.243  -3.970  -6.729  0.00  0.00    +0.000 C 
ATOM     14  C   UNL     1       2.657  -3.434  -8.058  0.00  0.00    +0.000 C 
ATOM     15  C   UNL     1       2.936  -1.667  -8.301  0.00  0.00    +0.000 C 
ATOM     16  C   UNL     1       4.641  -1.902  -8.308  0.00  0.00    +0.000 C 
ATOM     17  C   UNL     1       5.164  -2.457  -6.975  0.00  0.00    +0.000 C 
BRANCH  15  18
ATOM     18  N   UNL     1       1.730  -0.244  -8.132  0.00  0.00    +0.000 N 
ATOM     19  C   UNL     1       0.784  -1.249  -8.476  0.00  0.00    +0.000 C 
ATOM     20  O   UNL     1       0.780  -2.034  -9.459  0.00  0.00    +0.000 OA
ATOM     21  O   UNL     1      -0.017  -1.549  -7.467  0.00  0.00    +0.000 OA
ATOM     22  C   UNL     1      -1.109  -0.819  -7.865  0.00  0.00    +0.000 C 
ATOM     23  C   UNL     1      -0.808   0.334  -7.017  0.00  0.00    +0.000 A 
ATOM     24  C   UNL     1      -2.107   0.784  -6.310  0.00  0.00    +0.000 A 
ATOM     25  C   UNL     1      -2.464   2.045  -5.935  0.00  0.00    +0.000 A 
ATOM     26  C   UNL     1      -1.468   2.891  -6.355  0.00  0.00    +0.000 A 
ATOM     27  C   UNL     1      -0.020   2.358  -7.018  0.00  0.00    +0.000 A 
ATOM     28  C   UNL     1       0.495   0.871  -7.278  0.00  0.00    +0.000 A 
ENDBRANCH  15  18
ENDBRANCH   5  10
BRANCH   1  29
ATOM     29  C   UNL     1       4.558  -1.186  -0.783  0.00  0.00    +0.000 C 
BRANCH  29  32
ATOM     30  O   UNL     1       1.136  -0.072  -0.250  0.00  0.00    +0.000 OA
ATOM     31  C   UNL     1       2.356  -0.102  -0.062  0.00  0.00    +0.000 C 
ATOM     32  N   UNL     1       3.107  -1.031  -0.794  0.00  0.00    +0.000 N 
ATOM     33  H   UNL     1       2.520  -1.621  -1.370  0.00  0.00    +0.000 HD
BRANCH  31  34
ATOM     34  C   UNL     1       3.064   0.895   0.913  0.00  0.00    +0.000 C 
BRANCH  34  35
ATOM     35  N   UNL     1       2.161   1.789   1.662  0.00  0.00    +0.000 N 
ATOM     36  C   UNL     1       2.415   3.154   1.710  0.00  0.00    +0.000 A 
ATOM     37  C   UNL     1       1.680   4.003   2.438  0.00  0.00    +0.000 A 
ATOM     38  C   UNL     1       0.541   3.490   3.186  0.00  0.00    +0.000 A 
ATOM     39  C   UNL     1      -0.337   4.357   3.831  0.00  0.00    +0.000 A 
ATOM     40  C   UNL     1      -1.561   3.869   4.280  0.00  0.00    +0.000 A 
ATOM     41  C   UNL     1      -1.763   2.495   4.398  0.00  0.00    +0.000 A 
ATOM     42  C   UNL     1      -0.817   1.610   3.895  0.00  0.00    +0.000 A 
ATOM     43  C   UNL     1       0.281   2.116   3.201  0.00  0.00    +0.000 A 
ATOM     44  C   UNL     1       1.169   1.195   2.456  0.00  0.00    +0.000 A 
ATOM     45  O   UNL     1       0.999  -0.016   2.561  0.00  0.00    +0.000 OA
ENDBRANCH  34  35
ENDBRANCH  31  34
ENDBRANCH  29  32
ENDBRANCH   1  29
TORSDOF 6
