REMARK  Name = CHEMBL341490
REMARK  3 active torsions:
REMARK  status: ('A' for Active; 'I' for Inactive)
REMARK    1  A    between atoms: C_1  and  C_2
REMARK    2  A    between atoms: C_5  and  S_6
REMARK    3  A    between atoms: S_6  and  N_9
REMARK                            x       y       z     vdW  Elec       q    Type
REMARK                         _______ _______ _______ _____ _____    ______ ____
ROOT
ATOM      1  N   UNL     1      -4.483   1.607  -0.257  0.00  0.00    +0.000 NA
ATOM      2  C   UNL     1      -5.758   1.578   0.466  0.00  0.00    +0.000 C 
ATOM      3  C   UNL     1      -6.173   3.062   0.543  0.00  0.00    +0.000 C 
ATOM      4  C   UNL     1      -7.425   3.201  -0.258  0.00  0.00    +0.000 C 
ATOM      5  C   UNL     1      -8.728   2.636   0.354  0.00  0.00    +0.000 C 
ATOM      6  C   UNL     1      -9.815   3.406   0.103  0.00  0.00    +0.000 C 
ATOM      7  C   UNL     1      -9.304   4.732  -0.248  0.00  0.00    +0.000 A 
ATOM      8  C   UNL     1      -9.935   5.981  -0.205  0.00  0.00    +0.000 A 
ATOM      9  C   UNL     1      -9.129   7.131  -0.199  0.00  0.00    +0.000 A 
ATOM     10  C   UNL     1      -7.735   7.020  -0.187  0.00  0.00    +0.000 A 
ATOM     11  C   UNL     1      -7.128   5.776  -0.255  0.00  0.00    +0.000 A 
ATOM     12  C   UNL     1      -7.905   4.637  -0.347  0.00  0.00    +0.000 A 
ATOM     13  C   UNL     1      -6.803   2.539  -1.650  0.00  0.00    +0.000 C 
ATOM     14  C   UNL     1      -4.992   2.275  -1.634  0.00  0.00    +0.000 C 
ENDROOT
BRANCH   1  15
ATOM     15  S   UNL     1      -3.712   0.024  -0.200  0.00  0.00    +0.000 S 
ATOM     16  O   UNL     1      -4.050  -0.653  -1.412  0.00  0.00    +0.000 OA
ATOM     17  O   UNL     1      -4.079  -0.551   1.106  0.00  0.00    +0.000 OA
BRANCH  15  22
ATOM     18  C   UNL     1       2.445   0.005  -0.011  0.00  0.00    +0.000 C 
ATOM     19  C   UNL     1       0.938   0.011  -0.002  0.00  0.00    +0.000 A 
ATOM     20  C   UNL     1       0.208  -1.179  -0.003  0.00  0.00    +0.000 A 
ATOM     21  C   UNL     1      -1.201  -1.145  -0.042  0.00  0.00    +0.000 A 
ATOM     22  C   UNL     1      -1.907   0.084  -0.101  0.00  0.00    +0.000 A 
ATOM     23  C   UNL     1      -1.184   1.268  -0.039  0.00  0.00    +0.000 A 
ATOM     24  C   UNL     1       0.229   1.226  -0.003  0.00  0.00    +0.000 A 
ENDBRANCH  15  22
ENDBRANCH   1  15
TORSDOF 2
