REMARK  Name = CHEMBL2037516
REMARK  13 active torsions:
REMARK  status: ('A' for Active; 'I' for Inactive)
REMARK    1  A    between atoms: C_1  and  C_2
REMARK    2  A    between atoms: C_2  and  C_3
REMARK    3  A    between atoms: C_3  and  C_4
REMARK    4  A    between atoms: C_3  and  C_6
REMARK    5  A    between atoms: C_4  and  C_5
REMARK    6  A    between atoms: C_10  and  C_11
REMARK    7  A    between atoms: N_22  and  C_23
REMARK    8  A    between atoms: C_23  and  C_24
REMARK    9  A    between atoms: C_23  and  C_29
REMARK   10  A    between atoms: N_26  and  C_27
REMARK   11  A    between atoms: N_26  and  C_28
REMARK   12  A    between atoms: C_32  and  C_33
REMARK   13  A    between atoms: C_35  and  C_36
REMARK                            x       y       z     vdW  Elec       q    Type
REMARK                         _______ _______ _______ _____ _____    ______ ____
ROOT
ATOM      1  C   UNK A   2       4.719  -0.995  -0.991  0.00  0.00    +0.000 C 
ATOM      2  C   UNK A   2       5.285  -1.289  -2.401  0.00  0.00    +0.000 C 
ATOM      3  O   UNK A   2       4.880  -0.887  -3.482  0.00  0.00    +0.000 OA
ATOM      4  N   UNK A   1       6.437  -1.974  -2.426  0.00  0.00    +0.000 N 
ATOM      5  C   UNK A   1       7.251  -2.063  -1.258  0.00  0.00    +0.000 C 
ATOM      6  C   UNK A   1       6.423  -2.676  -0.134  0.00  0.00    +0.000 C 
ATOM      7  O   UNK A   1       7.006  -3.434   0.631  0.00  0.00    +0.000 OA
ATOM      8  N   UNK A   2       5.079  -2.268  -0.060  0.00  0.00    +0.000 N 
ATOM      9  H   UNK A   1       6.806  -2.081  -3.364  0.00  0.00    +0.000 HD
ENDROOT
BRANCH   5  10
ATOM     10  C   UNK A   1       8.445  -2.991  -1.495  0.00  0.00    +0.000 C 
ATOM     11  C   UNK A   1       9.348  -2.514  -2.639  0.00  0.00    +0.000 C 
ATOM     12  C   UNK A   1       8.851  -3.327  -3.795  0.00  0.00    +0.000 A 
ATOM     13  C   UNK A   1       9.072  -3.108  -5.141  0.00  0.00    +0.000 A 
ATOM     14  C   UNK A   1       8.479  -3.976  -6.061  0.00  0.00    +0.000 A 
ATOM     15  C   UNK A   1       7.676  -5.043  -5.630  0.00  0.00    +0.000 A 
ATOM     16  C   UNK A   1       7.458  -5.260  -4.269  0.00  0.00    +0.000 A 
ATOM     17  C   UNK A   1       8.061  -4.399  -3.366  0.00  0.00    +0.000 A 
ATOM     18  C   UNK A   1       7.971  -4.429  -1.874  0.00  0.00    +0.000 C 
ENDBRANCH   5  10
BRANCH   1  19
ATOM     19  C   UNK A   2       3.204  -0.659  -1.186  0.00  0.00    +0.000 C 
BRANCH  19  21
ATOM     20  C   UNK A   2       1.035   0.585   0.273  0.00  0.00    +0.000 C 
ATOM     21  C   UNK A   2       2.587   0.402  -0.080  0.00  0.00    +0.000 C 
ENDBRANCH  19  21
BRANCH  19  22
ATOM     22  C   UNK A   2       2.468  -0.764  -2.628  0.00  0.00    +0.000 C 
ATOM     23  C   UNK A   2       0.932  -0.810  -2.800  0.00  0.00    +0.000 C 
ENDBRANCH  19  22
ENDBRANCH   1  19
BRANCH   8  24
ATOM     24  C   UNK A   0       4.068  -3.126   0.814  0.00  0.00    +0.000 C 
BRANCH  24  25
ATOM     25  C   UNK A   0       4.724  -4.196   1.815  0.00  0.00    +0.000 A 
ATOM     26  C   UNK A   0       5.761  -3.845   2.723  0.00  0.00    +0.000 A 
ATOM     27  C   UNK A   0       6.482  -4.833   3.426  0.00  0.00    +0.000 A 
ATOM     28  C   UNK A   0       6.086  -6.147   3.307  0.00  0.00    +0.000 A 
ATOM     29  C   UNK A   0       6.679  -7.321   3.982  0.00  0.00    +0.000 C 
ATOM     30  N   UNK A   0       5.038  -6.493   2.581  0.00  0.00    +0.000 NA
ATOM     31  C   UNK A   0       4.380  -5.560   1.882  0.00  0.00    +0.000 A 
ATOM     32  C   UNK A   0       3.284  -6.254   1.194  0.00  0.00    +0.000 C 
ENDBRANCH  24  25
BRANCH  24  33
ATOM     33  C   UNK A   0       2.859  -3.850  -0.125  0.00  0.00    +0.000 C 
ATOM     34  O   UNK A   0       2.970  -4.858  -0.732  0.00  0.00    +0.000 OA
ATOM     35  N   UNK A   0       1.628  -3.281  -0.365  0.00  0.00    +0.000 N 
ATOM     36  C   UNK A   0       1.246  -2.055   0.123  0.00  0.00    +0.000 C 
ATOM     37  C   UNK A   0       0.746  -3.839  -1.386  0.00  0.00    +0.000 C 
ENDBRANCH  24  33
ENDBRANCH   8  24
TORSDOF 7
