REMARK  Name = CHEMBL2369845
REMARK  20 active torsions:
REMARK  status: ('A' for Active; 'I' for Inactive)
REMARK    1  A    between atoms: C_1  and  C_2
REMARK    2  A    between atoms: C_2  and  C_3
REMARK    3  A    between atoms: C_3  and  C_4
REMARK    4  A    between atoms: C_8  and  C_9
REMARK    5  A    between atoms: C_9  and  C_10
REMARK    6  A    between atoms: C_19  and  C_20
REMARK    7  A    between atoms: C_20  and  C_21
REMARK    8  A    between atoms: C_24  and  O_25
REMARK    9  A    between atoms: C_36  and  C_37
REMARK   10  A    between atoms: C_43  and  C_44
REMARK   11  A    between atoms: N_46  and  C_47
REMARK   12  A    between atoms: C_47  and  C_48
REMARK   13  A    between atoms: C_47  and  C_55
REMARK   14  A    between atoms: C_48  and  C_49
REMARK   15  A    between atoms: C_49  and  C_50
REMARK   16  A    between atoms: C_50  and  N_51
REMARK   17  A    between atoms: N_57  and  C_58
REMARK   18  A    between atoms: C_58  and  C_59
REMARK   19  A    between atoms: C_65  and  C_66
REMARK   20  A    between atoms: C_66  and  C_67
REMARK                            x       y       z     vdW  Elec       q    Type
REMARK                         _______ _______ _______ _____ _____    ______ ____
ROOT
ATOM      1  C   UNL     1       5.103   0.260  -1.297  0.00  0.00    +0.000 C 
ATOM      2  N   UNL     1       6.005  -0.691  -2.020  0.00  0.00    +0.000 N 
ATOM      3  C   UNL     1       5.701  -1.871  -2.675  0.00  0.00    +0.000 C 
ATOM      4  O   UNL     1       6.238  -2.185  -3.743  0.00  0.00    +0.000 OA
ATOM      5  C   UNL     1       4.851  -2.833  -1.894  0.00  0.00    +0.000 C 
ATOM      6  N   UNL     1       3.453  -2.627  -2.095  0.00  0.00    +0.000 N 
ATOM      7  C   UNL     1       2.715  -3.340  -3.013  0.00  0.00    +0.000 C 
ATOM      8  O   UNL     1       1.663  -3.795  -2.529  0.00  0.00    +0.000 OA
ATOM      9  C   UNL     1       3.232  -3.566  -4.656  0.00  0.00    +0.000 C 
ATOM     10  N   UNL     1       2.561  -4.818  -5.013  0.00  0.00    +0.000 N 
ATOM     11  C   UNL     1       1.261  -5.097  -5.334  0.00  0.00    +0.000 C 
ATOM     12  O   UNL     1       1.028  -6.293  -5.562  0.00  0.00    +0.000 OA
ATOM     13  C   UNL     1       0.059  -4.097  -5.447  0.00  0.00    +0.000 C 
ATOM     14  C   UNL     1       0.309  -2.658  -5.200  0.00  0.00    +0.000 C 
ATOM     15  S   UNL     1      -1.080  -1.341  -4.862  0.00  0.00    +0.000 S 
ATOM     16  S   UNL     1      -0.362   0.581  -5.377  0.00  0.00    +0.000 S 
ATOM     17  C   UNL     1      -0.309   1.995  -4.099  0.00  0.00    +0.000 C 
ATOM     18  C   UNL     1       0.566   3.292  -3.897  0.00  0.00    +0.000 C 
ATOM     19  N   UNL     1       1.192   3.309  -2.548  0.00  0.00    +0.000 N 
ATOM     20  C   UNL     1       2.140   2.497  -2.035  0.00  0.00    +0.000 C 
ATOM     21  O   UNL     1       2.402   2.417  -0.838  0.00  0.00    +0.000 OA
ATOM     22  C   UNL     1       2.886   1.675  -2.998  0.00  0.00    +0.000 C 
ATOM     23  N   UNL     1       4.348   2.096  -2.673  0.00  0.00    +0.000 N 
ATOM     24  C   UNL     1       5.383   1.514  -2.023  0.00  0.00    +0.000 C 
ATOM     25  O   UNL     1       6.513   1.750  -2.481  0.00  0.00    +0.000 OA
ATOM     26  H   UNL     1       6.700  -0.226  -2.618  0.00  0.00    +0.000 HD
ATOM     27  H   UNL     1       2.925  -2.424  -1.244  0.00  0.00    +0.000 HD
ATOM     28  H   UNL     1       3.157  -5.639  -4.967  0.00  0.00    +0.000 HD
ATOM     29  H   UNL     1       0.861   3.996  -1.876  0.00  0.00    +0.000 HD
ATOM     30  H   UNL     1       4.953   2.164  -3.471  0.00  0.00    +0.000 HD
ENDROOT
BRANCH  18  31
ATOM     31  C   UNL     1      -0.296   4.620  -4.025  0.00  0.00    +0.000 C 
ATOM     32  O   UNL     1      -0.263   5.433  -3.095  0.00  0.00    +0.000 OA
ATOM     33  N   UNL     1      -0.895   4.918  -5.252  0.00  0.00    +0.000 N 
ATOM     34  C   UNL     1      -1.680   4.047  -6.119  0.00  0.00    +0.000 C 
ATOM     35  C   UNL     1      -1.479   4.676  -7.464  0.00  0.00    +0.000 C 
ATOM     36  C   UNL     1      -1.672   6.140  -7.151  0.00  0.00    +0.000 C 
ATOM     37  C   UNL     1      -1.179   6.312  -5.694  0.00  0.00    +0.000 C 
BRANCH  37  38
ATOM     38  C   UNL     1      -2.377   6.954  -4.973  0.00  0.00    +0.000 C 
ATOM     39  O   UNL     1      -3.169   6.249  -4.346  0.00  0.00    +0.000 OA
ATOM     40  N   UNL     1      -2.576   8.319  -5.157  0.00  0.00    +0.000 N 
ATOM     41  H   UNL     1      -2.128   8.816  -5.921  0.00  0.00    +0.000 HD
BRANCH  40  42
ATOM     42  C   UNL     1      -3.570   9.090  -4.373  0.00  0.00    +0.000 C 
BRANCH  42  43
ATOM     43  C   UNL     1      -3.785  10.515  -4.991  0.00  0.00    +0.000 C 
ATOM     44  O   UNL     1      -3.173  10.886  -5.992  0.00  0.00    +0.000 OA
ATOM     45  N   UNL     1      -4.706  11.327  -4.351  0.00  0.00    +0.000 N 
ATOM     46  H   UNL     1      -5.194  10.969  -3.549  0.00  0.00    +0.000 HD
BRANCH  45  47
ATOM     47  C   UNL     1      -4.998  12.693  -4.797  0.00  0.00    +0.000 C 
BRANCH  47  48
ATOM     48  C   UNL     1      -6.039  13.474  -3.972  0.00  0.00    +0.000 C 
ATOM     49  N   UNL     1      -6.605  12.854  -2.894  0.00  0.00    +0.000 N 
ATOM     50  O   UNL     1      -6.372  14.625  -4.246  0.00  0.00    +0.000 OA
ATOM     51  H   UNL     1      -6.415  11.920  -2.581  0.00  0.00    +0.000 HD
ATOM     52  H   UNL     1      -7.291  13.382  -2.367  0.00  0.00    +0.000 HD
ENDBRANCH  47  48
ENDBRANCH  45  47
ENDBRANCH  42  43
BRANCH  42  53
ATOM     53  C   UNL     1      -3.105   9.237  -2.907  0.00  0.00    +0.000 C 
BRANCH  53  54
ATOM     54  C   UNL     1      -2.867   7.890  -2.236  0.00  0.00    +0.000 C 
BRANCH  54  55
ATOM     55  C   UNL     1      -2.402   7.962  -0.813  0.00  0.00    +0.000 C 
BRANCH  55  56
ATOM     56  N   UNL     1      -2.215   6.592  -0.333  0.00  0.00    +0.000 NA
ATOM     57  C   UNL     1      -1.760   6.467   0.859  0.00  0.00    +0.000 C 
ATOM     58  N   UNL     1      -1.465   7.474   1.697  0.00  0.00    +0.000 N 
ATOM     59  N   UNL     1      -1.546   5.248   1.377  0.00  0.00    +0.000 N 
ATOM     60  H   UNL     1      -1.585   8.423   1.378  0.00  0.00    +0.000 HD
ATOM     61  H   UNL     1      -1.126   7.339   2.631  0.00  0.00    +0.000 HD
ATOM     62  H   UNL     1      -1.731   4.452   0.780  0.00  0.00    +0.000 HD
ATOM     63  H   UNL     1      -1.200   5.078   2.305  0.00  0.00    +0.000 HD
ENDBRANCH  55  56
ENDBRANCH  54  55
ENDBRANCH  53  54
ENDBRANCH  42  53
ENDBRANCH  40  42
ENDBRANCH  37  38
ENDBRANCH  18  31
BRANCH  22  64
ATOM     64  C   UNL     1       2.281   0.324  -2.773  0.00  0.00    +0.000 C 
BRANCH  64  65
ATOM     65  C   UNL     1       1.905  -0.515  -3.880  0.00  0.00    +0.000 C 
ATOM     66  N   UNL     1       2.105  -0.224  -5.182  0.00  0.00    +0.000 N 
ATOM     67  O   UNL     1       1.385  -1.462  -3.456  0.00  0.00    +0.000 OA
ATOM     68  H   UNL     1       2.604   0.570  -5.486  0.00  0.00    +0.000 HD
ATOM     69  H   UNL     1       1.928  -0.841  -5.962  0.00  0.00    +0.000 HD
ENDBRANCH  64  65
ENDBRANCH  22  64
BRANCH   9  70
ATOM     70  C   UNL     1       3.497  -2.715  -6.093  0.00  0.00    +0.000 C 
BRANCH  70  71
ATOM     71  C   UNL     1       4.204  -1.349  -6.188  0.00  0.00    +0.000 A 
ATOM     72  C   UNL     1       4.576  -0.927  -4.981  0.00  0.00    +0.000 A 
ATOM     73  C   UNL     1       4.839   0.391  -4.679  0.00  0.00    +0.000 A 
ATOM     74  C   UNL     1       4.718   1.490  -5.508  0.00  0.00    +0.000 A 
ATOM     75  C   UNL     1       4.260   1.139  -6.747  0.00  0.00    +0.000 A 
ATOM     76  C   UNL     1       4.050  -0.265  -7.099  0.00  0.00    +0.000 A 
BRANCH  74  77
ATOM     77  O   UNL     1       4.615   2.824  -5.182  0.00  0.00    +0.000 OA
ATOM     78  H   UNL     1       4.697   3.281  -4.315  0.00  0.00    +0.000 HD
ENDBRANCH  74  77
ENDBRANCH  70  71
ENDBRANCH   9  70
BRANCH   5  79
ATOM     79  C   UNL     1       5.295  -4.269  -2.108  0.00  0.00    +0.000 C 
BRANCH  79  80
ATOM     80  C   UNL     1       6.792  -4.420  -2.101  0.00  0.00    +0.000 A 
ATOM     81  C   UNL     1       7.694  -3.352  -1.897  0.00  0.00    +0.000 A 
ATOM     82  C   UNL     1       8.992  -3.382  -2.336  0.00  0.00    +0.000 A 
ATOM     83  C   UNL     1       9.512  -4.619  -2.607  0.00  0.00    +0.000 A 
ATOM     84  C   UNL     1       8.676  -5.743  -2.664  0.00  0.00    +0.000 A 
ATOM     85  C   UNL     1       7.304  -5.636  -2.490  0.00  0.00    +0.000 A 
ENDBRANCH  79  80
ENDBRANCH   5  79
BRANCH   1  86
ATOM     86  C   UNL     1       4.882   0.545   0.158  0.00  0.00    +0.000 C 
BRANCH  86  88
ATOM     87  C   UNL     1       6.000   0.523   2.334  0.00  0.00    +0.000 C 
ATOM     88  C   UNL     1       6.155   0.279   0.862  0.00  0.00    +0.000 C 
ENDBRANCH  86  88
ENDBRANCH   1  86
TORSDOF 19
