REMARK  Name = CHEMBL375096
REMARK  21 active torsions:
REMARK  status: ('A' for Active; 'I' for Inactive)
REMARK    1  A    between atoms: N_1  and  C_2
REMARK    2  A    between atoms: C_2  and  C_3
REMARK    3  A    between atoms: C_3  and  C_4
REMARK    4  A    between atoms: C_4  and  C_5
REMARK    5  A    between atoms: C_9  and  C_10
REMARK    6  A    between atoms: C_10  and  C_11
REMARK    7  A    between atoms: C_20  and  C_21
REMARK    8  A    between atoms: C_21  and  C_22
REMARK    9  A    between atoms: C_25  and  O_26
REMARK   10  A    between atoms: C_37  and  C_38
REMARK   11  A    between atoms: C_44  and  C_45
REMARK   12  A    between atoms: N_47  and  C_48
REMARK   13  A    between atoms: C_48  and  C_49
REMARK   14  A    between atoms: C_48  and  C_56
REMARK   15  A    between atoms: C_49  and  C_50
REMARK   16  A    between atoms: C_50  and  C_51
REMARK   17  A    between atoms: C_51  and  N_52
REMARK   18  A    between atoms: N_58  and  C_59
REMARK   19  A    between atoms: C_59  and  C_60
REMARK   20  A    between atoms: C_66  and  C_67
REMARK   21  A    between atoms: C_67  and  C_68
REMARK                            x       y       z     vdW  Elec       q    Type
REMARK                         _______ _______ _______ _____ _____    ______ ____
ROOT
ATOM      1  C   UNL     1       5.322  -3.500  -1.708  0.00  0.00    +0.000 C 
ATOM      2  N   UNL     1       5.952  -2.954  -3.111  0.00  0.00    +0.000 N 
ATOM      3  C   UNL     1       6.099  -1.859  -3.989  0.00  0.00    +0.000 C 
ATOM      4  O   UNL     1       7.219  -1.644  -4.481  0.00  0.00    +0.000 OA
ATOM      5  C   UNL     1       4.861  -1.036  -4.528  0.00  0.00    +0.000 C 
ATOM      6  N   UNL     1       4.512   0.218  -3.929  0.00  0.00    +0.000 N 
ATOM      7  C   UNL     1       5.082   1.433  -3.980  0.00  0.00    +0.000 C 
ATOM      8  O   UNL     1       4.298   2.305  -3.578  0.00  0.00    +0.000 OA
ATOM      9  C   UNL     1       6.598   1.698  -4.572  0.00  0.00    +0.000 C 
ATOM     10  N   UNL     1       6.310   2.826  -5.398  0.00  0.00    +0.000 N 
ATOM     11  C   UNL     1       6.048   4.073  -4.920  0.00  0.00    +0.000 C 
ATOM     12  O   UNL     1       5.825   4.936  -5.776  0.00  0.00    +0.000 OA
ATOM     13  C   UNL     1       6.027   4.456  -3.398  0.00  0.00    +0.000 C 
ATOM     14  C   UNL     1       6.303   3.520  -2.213  0.00  0.00    +0.000 C 
ATOM     15  S   UNL     1       6.045   4.015  -0.487  0.00  0.00    +0.000 S 
ATOM     16  S   UNL     1       7.261   2.551   0.369  0.00  0.00    +0.000 S 
ATOM     17  C   UNL     1       6.518   2.084   1.964  0.00  0.00    +0.000 C 
ATOM     18  C   UNL     1       6.849   0.804   2.756  0.00  0.00    +0.000 C 
ATOM     19  N   UNL     1       5.789  -0.245   2.607  0.00  0.00    +0.000 N 
ATOM     20  C   UNL     1       5.388  -0.921   1.506  0.00  0.00    +0.000 C 
ATOM     21  O   UNL     1       4.454  -1.712   1.459  0.00  0.00    +0.000 OA
ATOM     22  C   UNL     1       6.177  -0.694   0.302  0.00  0.00    +0.000 C 
ATOM     23  N   UNL     1       6.774  -2.307  -0.048  0.00  0.00    +0.000 N 
ATOM     24  C   UNL     1       6.596  -3.395  -0.921  0.00  0.00    +0.000 C 
ATOM     25  O   UNL     1       7.628  -3.943  -1.334  0.00  0.00    +0.000 OA
ATOM     26  H   UNL     1       6.880  -3.395  -3.197  0.00  0.00    +0.000 HD
ATOM     27  H   UNL     1       3.575   0.265  -3.513  0.00  0.00    +0.000 HD
ATOM     28  H   UNL     1       6.235   2.681  -6.398  0.00  0.00    +0.000 HD
ATOM     29  H   UNL     1       5.319  -0.554   3.454  0.00  0.00    +0.000 HD
ATOM     30  H   UNL     1       7.770  -2.372  -0.251  0.00  0.00    +0.000 HD
ENDROOT
BRANCH  18  31
ATOM     31  C   UNL     1       7.005   1.063   4.298  0.00  0.00    +0.000 C 
ATOM     32  O   UNL     1       6.390   0.325   5.076  0.00  0.00    +0.000 OA
ATOM     33  N   UNL     1       7.999   1.930   4.738  0.00  0.00    +0.000 N 
ATOM     34  C   UNL     1       8.301   3.283   4.298  0.00  0.00    +0.000 C 
ATOM     35  C   UNL     1       9.771   3.377   4.576  0.00  0.00    +0.000 C 
ATOM     36  C   UNL     1       9.863   2.773   5.960  0.00  0.00    +0.000 C 
ATOM     37  C   UNL     1       8.723   1.731   6.023  0.00  0.00    +0.000 C 
BRANCH  37  38
ATOM     38  C   UNL     1       7.910   2.140   7.263  0.00  0.00    +0.000 C 
ATOM     39  O   UNL     1       6.910   2.849   7.142  0.00  0.00    +0.000 OA
ATOM     40  N   UNL     1       8.415   1.770   8.505  0.00  0.00    +0.000 N 
ATOM     41  H   UNL     1       9.384   1.485   8.612  0.00  0.00    +0.000 HD
BRANCH  40  42
ATOM     42  C   UNL     1       7.642   1.932   9.758  0.00  0.00    +0.000 C 
BRANCH  42  43
ATOM     43  C   UNL     1       8.561   1.727  11.013  0.00  0.00    +0.000 C 
ATOM     44  O   UNL     1       9.757   1.461  10.903  0.00  0.00    +0.000 OA
ATOM     45  N   UNL     1       7.948   1.870  12.247  0.00  0.00    +0.000 N 
ATOM     46  H   UNL     1       6.973   2.110  12.280  0.00  0.00    +0.000 HD
BRANCH  45  47
ATOM     47  C   UNL     1       8.669   1.684  13.510  0.00  0.00    +0.000 C 
BRANCH  47  48
ATOM     48  C   UNL     1       7.848   1.864  14.801  0.00  0.00    +0.000 C 
ATOM     49  N   UNL     1       6.521   2.171  14.686  0.00  0.00    +0.000 N 
ATOM     50  O   UNL     1       8.338   1.739  15.921  0.00  0.00    +0.000 OA
ATOM     51  H   UNL     1       6.017   2.305  13.828  0.00  0.00    +0.000 HD
ATOM     52  H   UNL     1       6.001   2.291  15.547  0.00  0.00    +0.000 HD
ENDBRANCH  47  48
ENDBRANCH  45  47
ENDBRANCH  42  43
BRANCH  42  53
ATOM     53  C   UNL     1       6.478   0.918   9.810  0.00  0.00    +0.000 C 
BRANCH  53  54
ATOM     54  C   UNL     1       5.539   1.050   8.616  0.00  0.00    +0.000 C 
BRANCH  54  55
ATOM     55  C   UNL     1       4.391   0.085   8.601  0.00  0.00    +0.000 C 
BRANCH  55  56
ATOM     56  N   UNL     1       3.608   0.344   7.393  0.00  0.00    +0.000 NA
ATOM     57  C   UNL     1       2.614  -0.437   7.184  0.00  0.00    +0.000 C 
ATOM     58  N   UNL     1       2.224  -1.446   7.980  0.00  0.00    +0.000 N 
ATOM     59  N   UNL     1       1.851  -0.284   6.091  0.00  0.00    +0.000 N 
ATOM     60  H   UNL     1       2.752  -1.637   8.818  0.00  0.00    +0.000 HD
ATOM     61  H   UNL     1       1.422  -2.020   7.795  0.00  0.00    +0.000 HD
ATOM     62  H   UNL     1       2.109   0.454   5.447  0.00  0.00    +0.000 HD
ATOM     63  H   UNL     1       1.045  -0.845   5.879  0.00  0.00    +0.000 HD
ENDBRANCH  55  56
ENDBRANCH  54  55
ENDBRANCH  53  54
ENDBRANCH  42  53
ENDBRANCH  40  42
ENDBRANCH  37  38
ENDBRANCH  18  31
BRANCH   9  64
ATOM     64  C   UNL     1       8.069   1.959  -3.948  0.00  0.00    +0.000 C 
BRANCH  64  65
ATOM     65  C   UNL     1       8.553   1.145  -2.801  0.00  0.00    +0.000 A 
ATOM     66  C   UNL     1       7.768   0.114  -2.552  0.00  0.00    +0.000 A 
ATOM     67  C   UNL     1       8.090  -0.789  -1.605  0.00  0.00    +0.000 A 
ATOM     68  C   UNL     1       9.050  -0.657  -0.628  0.00  0.00    +0.000 A 
ATOM     69  C   UNL     1       9.840   0.433  -0.794  0.00  0.00    +0.000 A 
ATOM     70  C   UNL     1       9.625   1.294  -1.913  0.00  0.00    +0.000 A 
BRANCH  68  71
ATOM     71  O   UNL     1       9.181  -1.384   0.530  0.00  0.00    +0.000 OA
ATOM     72  H   UNL     1       8.445  -1.887   0.943  0.00  0.00    +0.000 HD
ENDBRANCH  68  71
ENDBRANCH  64  65
ENDBRANCH   9  64
BRANCH   5  73
ATOM     73  C   UNL     1       4.823  -0.774  -6.015  0.00  0.00    +0.000 C 
BRANCH  73  74
ATOM     74  C   UNL     1       5.220  -1.968  -6.791  0.00  0.00    +0.000 A 
ATOM     75  C   UNL     1       5.449  -3.210  -6.184  0.00  0.00    +0.000 A 
ATOM     76  C   UNL     1       6.137  -4.210  -6.806  0.00  0.00    +0.000 A 
ATOM     77  C   UNL     1       6.268  -4.101  -8.168  0.00  0.00    +0.000 A 
ATOM     78  C   UNL     1       5.912  -2.919  -8.834  0.00  0.00    +0.000 A 
ATOM     79  C   UNL     1       5.448  -1.818  -8.139  0.00  0.00    +0.000 A 
ENDBRANCH  73  74
ENDBRANCH   5  73
BRANCH   1  80
ATOM     80  C   UNL     1       3.810  -3.606  -1.362  0.00  0.00    +0.000 C 
BRANCH  80  81
ATOM     81  C   UNL     1       3.777  -5.049  -1.139  0.00  0.00    +0.000 C 
BRANCH  81  82
ATOM     82  C   UNL     1       2.408  -5.489  -0.781  0.00  0.00    +0.000 C 
BRANCH  82  83
ATOM     83  N   UNL     1       2.578  -6.921  -0.788  0.00  0.00    +0.000 NA
ATOM     84  H   UNL     1       1.708  -7.367  -0.537  0.00  0.00    +0.000 HD
ATOM     85  H   UNL     1       3.282  -7.172  -0.092  0.00  0.00    +0.000 HD
ENDBRANCH  82  83
ENDBRANCH  81  82
ENDBRANCH  80  81
ENDBRANCH   1  80
BRANCH  22  86
ATOM     86  C   UNL     1       5.259   0.424  -0.567  0.00  0.00    +0.000 C 
BRANCH  86  87
ATOM     87  C   UNL     1       4.132  -0.150  -1.289  0.00  0.00    +0.000 C 
ATOM     88  N   UNL     1       4.682  -1.149  -1.883  0.00  0.00    +0.000 N 
ATOM     89  O   UNL     1       2.997   0.203  -1.658  0.00  0.00    +0.000 OA
ATOM     90  H   UNL     1       5.426  -1.490  -1.324  0.00  0.00    +0.000 HD
ATOM     91  H   UNL     1       4.151  -1.769  -2.455  0.00  0.00    +0.000 HD
ENDBRANCH  86  87
ENDBRANCH  22  86
TORSDOF 21
