REMARK  Name = CHEMBL80877
REMARK  17 active torsions:
REMARK  status: ('A' for Active; 'I' for Inactive)
REMARK    1  A    between atoms: C_2  and  C_4
REMARK    2  A    between atoms: C_4  and  N_5
REMARK    3  A    between atoms: C_6  and  C_8
REMARK    4  A    between atoms: C_8  and  C_9
REMARK    5  A    between atoms: C_8  and  N_16
REMARK    6  A    between atoms: C_9  and  C_10
REMARK    7  A    between atoms: C_10  and  C_11
REMARK    8  A    between atoms: C_11  and  N_12
REMARK    9  A    between atoms: C_17  and  C_19
REMARK   10  A    between atoms: C_24  and  C_26
REMARK   11  A    between atoms: C_35  and  C_36
REMARK   12  A    between atoms: C_36  and  C_37
REMARK   13  A    between atoms: C_40  and  O_41
REMARK   14  A    between atoms: C_47  and  C_48
REMARK   15  A    between atoms: C_48  and  C_49
REMARK   16  A    between atoms: C_62  and  C_63
REMARK   17  A    between atoms: C_63  and  C_64
REMARK                            x       y       z     vdW  Elec       q    Type
REMARK                         _______ _______ _______ _____ _____    ______ ____
ROOT
ATOM      1  C   UNL     1      10.995  -2.137   4.010  0.00  0.00    +0.000 C 
ATOM      2  C   UNL     1      11.059  -2.436   5.911  0.00  0.00    +0.000 C 
ATOM      3  S   UNL     1      10.309  -1.172   7.492  0.00  0.00    +0.000 S 
ATOM      4  S   UNL     1       9.447  -2.008   9.428  0.00  0.00    +0.000 S 
ATOM      5  C   UNL     1       7.788  -1.136   9.500  0.00  0.00    +0.000 C 
ATOM      6  C   UNL     1       6.798  -0.627  10.607  0.00  0.00    +0.000 C 
ATOM      7  C   UNL     1       5.597   0.302  10.190  0.00  0.00    +0.000 C 
ATOM      8  O   UNL     1       4.634   0.475  10.946  0.00  0.00    +0.000 OA
ATOM      9  N   UNL     1       5.554   1.001   9.026  0.00  0.00    +0.000 N 
ATOM     10  C   UNL     1       6.568   1.054   8.015  0.00  0.00    +0.000 C 
ATOM     11  C   UNL     1       7.847   1.801   8.658  0.00  0.00    +0.000 C 
ATOM     12  O   UNL     1       8.164   1.762   9.850  0.00  0.00    +0.000 OA
ATOM     13  N   UNL     1       8.765   2.405   7.881  0.00  0.00    +0.000 N 
ATOM     14  C   UNL     1       8.359   3.124   6.736  0.00  0.00    +0.000 C 
ATOM     15  C   UNL     1       8.547   2.089   5.710  0.00  0.00    +0.000 C 
ATOM     16  O   UNL     1       8.547   0.861   5.794  0.00  0.00    +0.000 OA
ATOM     17  N   UNL     1       8.752   2.587   4.511  0.00  0.00    +0.000 N 
ATOM     18  C   UNL     1       9.835   3.464   4.200  0.00  0.00    +0.000 C 
ATOM     19  C   UNL     1      10.472   3.132   2.873  0.00  0.00    +0.000 C 
ATOM     20  O   UNL     1      11.354   3.812   2.395  0.00  0.00    +0.000 OA
ATOM     21  N   UNL     1      10.232   1.928   2.290  0.00  0.00    +0.000 N 
ATOM     22  C   UNL     1       9.324   0.785   2.533  0.00  0.00    +0.000 C 
ATOM     23  C   UNL     1      10.102   0.114   3.748  0.00  0.00    +0.000 C 
ATOM     24  O   UNL     1      10.862   0.795   4.510  0.00  0.00    +0.000 OA
ATOM     25  N   UNL     1       9.934  -1.117   4.193  0.00  0.00    +0.000 N 
ATOM     26  H   UNL     1       4.699   1.521   8.864  0.00  0.00    +0.000 HD
ATOM     27  H   UNL     1       9.597   2.707   8.368  0.00  0.00    +0.000 HD
ATOM     28  H   UNL     1       8.941   1.691   4.159  0.00  0.00    +0.000 HD
ATOM     29  H   UNL     1      11.177   1.671   2.068  0.00  0.00    +0.000 HD
ATOM     30  H   UNL     1      10.128  -0.870   5.158  0.00  0.00    +0.000 HD
ENDROOT
BRANCH   1  36
ATOM     31  C   UNL     1      11.917  -0.199   1.041  0.00  0.00    +0.000 C 
ATOM     32  C   UNL     1      11.575   1.041   0.092  0.00  0.00    +0.000 C 
ATOM     33  C   UNL     1      11.002   0.434  -1.156  0.00  0.00    +0.000 C 
ATOM     34  C   UNL     1      10.262  -0.881  -0.579  0.00  0.00    +0.000 C 
ATOM     35  N   UNL     1      10.837  -1.164   0.958  0.00  0.00    +0.000 N 
ATOM     36  C   UNL     1      10.321  -2.083   2.190  0.00  0.00    +0.000 C 
ATOM     37  O   UNL     1       9.217  -2.581   1.993  0.00  0.00    +0.000 OA
BRANCH  31  39
ATOM     38  N   UNL     1      13.937  -0.122  -0.336  0.00  0.00    +0.000 N 
ATOM     39  C   UNL     1      13.178  -0.884   0.531  0.00  0.00    +0.000 C 
ATOM     40  O   UNL     1      13.512  -1.992   0.937  0.00  0.00    +0.000 OA
ATOM     41  H   UNL     1      13.583   0.692  -0.810  0.00  0.00    +0.000 HD
BRANCH  38  42
ATOM     42  C   UNL     1      15.337  -0.391  -0.551  0.00  0.00    +0.000 C 
BRANCH  42  44
ATOM     43  N   UNL     1      17.366  -0.584   0.894  0.00  0.00    +0.000 N 
ATOM     44  C   UNL     1      16.028  -0.296   0.852  0.00  0.00    +0.000 C 
ATOM     45  O   UNL     1      15.424   0.028   1.882  0.00  0.00    +0.000 OA
ATOM     46  H   UNL     1      17.888  -0.865   0.070  0.00  0.00    +0.000 HD
BRANCH  43  47
ATOM     47  C   UNL     1      18.154  -0.400   2.088  0.00  0.00    +0.000 C 
BRANCH  47  49
ATOM     48  N   UNL     1      20.488  -0.474   2.839  0.00  0.00    +0.000 N 
ATOM     49  C   UNL     1      19.645  -0.520   1.766  0.00  0.00    +0.000 C 
ATOM     50  O   UNL     1      20.088  -0.656   0.630  0.00  0.00    +0.000 OA
ATOM     51  H   UNL     1      21.481  -0.567   2.660  0.00  0.00    +0.000 HD
ATOM     52  H   UNL     1      20.175  -0.379   3.794  0.00  0.00    +0.000 HD
ENDBRANCH  47  49
ENDBRANCH  43  47
ENDBRANCH  42  44
BRANCH  42  53
ATOM     53  C   UNL     1      15.867   0.651  -1.562  0.00  0.00    +0.000 C 
BRANCH  53  54
ATOM     54  C   UNL     1      17.357   0.491  -1.784  0.00  0.00    +0.000 C 
BRANCH  54  55
ATOM     55  C   UNL     1      17.963   1.452  -2.765  0.00  0.00    +0.000 C 
BRANCH  55  56
ATOM     56  N   UNL     1      19.394   1.159  -2.813  0.00  0.00    +0.000 NA
ATOM     57  C   UNL     1      20.106   1.919  -3.561  0.00  0.00    +0.000 C 
ATOM     58  N   UNL     1      19.656   2.945  -4.302  0.00  0.00    +0.000 N 
ATOM     59  N   UNL     1      21.430   1.725  -3.658  0.00  0.00    +0.000 N 
ATOM     60  H   UNL     1      18.672   3.169  -4.285  0.00  0.00    +0.000 HD
ATOM     61  H   UNL     1      20.245   3.498  -4.896  0.00  0.00    +0.000 HD
ATOM     62  H   UNL     1      21.830   0.971  -3.112  0.00  0.00    +0.000 HD
ATOM     63  H   UNL     1      22.040   2.265  -4.245  0.00  0.00    +0.000 HD
ENDBRANCH  55  56
ENDBRANCH  54  55
ENDBRANCH  53  54
ENDBRANCH  42  53
ENDBRANCH  38  42
ENDBRANCH  31  39
ENDBRANCH   1  36
BRANCH  10  64
ATOM     64  C   UNL     1       6.018   1.391   6.639  0.00  0.00    +0.000 C 
BRANCH  64  65
ATOM     65  C   UNL     1       4.799   0.865   6.065  0.00  0.00    +0.000 A 
ATOM     66  C   UNL     1       3.899   1.788   5.528  0.00  0.00    +0.000 A 
ATOM     67  C   UNL     1       2.840   1.297   4.825  0.00  0.00    +0.000 A 
ATOM     68  C   UNL     1       2.748  -0.089   4.673  0.00  0.00    +0.000 A 
ATOM     69  C   UNL     1       3.708  -0.984   5.146  0.00  0.00    +0.000 A 
ATOM     70  C   UNL     1       4.776  -0.500   5.834  0.00  0.00    +0.000 A 
BRANCH  68  71
ATOM     71  O   UNL     1       1.676  -0.641   4.047  0.00  0.00    +0.000 OA
ATOM     72  H   UNL     1       1.109   0.094   3.770  0.00  0.00    +0.000 HD
ENDBRANCH  68  71
ENDBRANCH  64  65
ENDBRANCH  10  64
BRANCH  14  73
ATOM     73  C   UNL     1       7.045   3.922   6.858  0.00  0.00    +0.000 C 
BRANCH  73  74
ATOM     74  C   UNL     1       7.064   5.024   7.828  0.00  0.00    +0.000 A 
ATOM     75  C   UNL     1       8.224   5.241   8.556  0.00  0.00    +0.000 A 
ATOM     76  C   UNL     1       8.159   5.951   9.715  0.00  0.00    +0.000 A 
ATOM     77  C   UNL     1       6.969   6.585  10.043  0.00  0.00    +0.000 A 
ATOM     78  C   UNL     1       5.800   6.389   9.302  0.00  0.00    +0.000 A 
ATOM     79  C   UNL     1       5.832   5.570   8.198  0.00  0.00    +0.000 A 
ENDBRANCH  73  74
ENDBRANCH  14  73
BRANCH  22  80
ATOM     80  C   UNL     1       7.845   1.240   2.451  0.00  0.00    +0.000 C 
BRANCH  80  81
ATOM     81  C   UNL     1       7.195   1.377   1.095  0.00  0.00    +0.000 C 
ATOM     82  N   UNL     1       7.994   1.242   0.014  0.00  0.00    +0.000 N 
ATOM     83  O   UNL     1       6.041   1.738   0.963  0.00  0.00    +0.000 OA
ATOM     84  H   UNL     1       8.972   1.070   0.113  0.00  0.00    +0.000 HD
ATOM     85  H   UNL     1       7.596   1.301  -0.910  0.00  0.00    +0.000 HD
ENDBRANCH  80  81
ENDBRANCH  22  80
TORSDOF 17
