REMARK  Name = CHEMBL2037508
REMARK  10 active torsions:
REMARK  status: ('A' for Active; 'I' for Inactive)
REMARK    1  A    between atoms: CD1_1  and  CG1_2
REMARK    2  A    between atoms: CG1_2  and  CB_3
REMARK    3  A    between atoms: CB_3  and  CG2_4
REMARK    4  A    between atoms: CB_3  and  CA_5
REMARK    5  A    between atoms: C_9  and  C_10
REMARK    6  A    between atoms: N_21  and  C_22
REMARK    7  A    between atoms: C_22  and  C_23
REMARK    8  A    between atoms: C_22  and  C_31
REMARK    9  A    between atoms: C_34  and  C_35
REMARK   10  A    between atoms: C_37  and  C_38
REMARK                            x       y       z     vdW  Elec       q    Type
REMARK                         _______ _______ _______ _____ _____    ______ ____
ROOT
ATOM      1  CA  ILE A   2       5.011   1.163   0.941  0.00  0.00    +0.000 C 
ATOM      2  C   ILE A   2       5.419   0.793  -0.533  0.00  0.00    +0.000 C 
ATOM      3  O   ILE A   2       4.863   1.115  -1.565  0.00  0.00    +0.000 OA
ATOM      4  N   UNK A   1       6.508  -0.021  -0.521  0.00  0.00    +0.000 N 
ATOM      5  C   UNK A   1       7.364   0.171   0.622  0.00  0.00    +0.000 C 
ATOM      6  C   UNK A   1       6.646  -0.229   1.879  0.00  0.00    +0.000 C 
ATOM      7  O   UNK A   1       7.282  -0.791   2.802  0.00  0.00    +0.000 OA
ATOM      8  N   ILE A   2       5.352   0.168   1.924  0.00  0.00    +0.000 N 
ATOM      9  H   UNK A   1       6.829  -0.318  -1.435  0.00  0.00    +0.000 HD
ENDROOT
BRANCH   5  10
ATOM     10  C   UNK A   1       8.643  -0.611   0.598  0.00  0.00    +0.000 C 
ATOM     11  C   UNK A   1       9.340  -0.282  -0.709  0.00  0.00    +0.000 C 
ATOM     12  C   UNK A   1       8.989  -1.484  -1.528  0.00  0.00    +0.000 A 
ATOM     13  C   UNK A   1       9.059  -1.606  -2.899  0.00  0.00    +0.000 A 
ATOM     14  C   UNK A   1       8.708  -2.828  -3.471  0.00  0.00    +0.000 A 
ATOM     15  C   UNK A   1       8.290  -3.905  -2.674  0.00  0.00    +0.000 A 
ATOM     16  C   UNK A   1       8.182  -3.763  -1.292  0.00  0.00    +0.000 A 
ATOM     17  C   UNK A   1       8.519  -2.540  -0.740  0.00  0.00    +0.000 A 
ATOM     18  C   UNK A   1       8.478  -2.151   0.695  0.00  0.00    +0.000 C 
ENDBRANCH   5  10
BRANCH   1  19
ATOM     19  CB  ILE A   2       3.578   1.040   0.934  0.00  0.00    +0.000 C 
ATOM     20  CG2 ILE A   2       3.462  -0.696   0.080  0.00  0.00    +0.000 C 
BRANCH  19  22
ATOM     21  CD1 ILE A   2       2.943   2.949   3.047  0.00  0.00    +0.000 C 
ATOM     22  CG1 ILE A   2       2.706   1.629   2.389  0.00  0.00    +0.000 C 
ENDBRANCH  19  22
ENDBRANCH   1  19
BRANCH   8  23
ATOM     23  C   UNK A   0       4.312  -0.269   2.915  0.00  0.00    +0.000 C 
BRANCH  23  24
ATOM     24  C   UNK A   0       2.638  -0.935   2.368  0.00  0.00    +0.000 C 
ATOM     25  O   UNK A   0       2.219  -1.968   2.915  0.00  0.00    +0.000 OA
ATOM     26  N   UNK A   0       1.593  -0.194   1.326  0.00  0.00    +0.000 N 
ATOM     27  C   UNK A   0       1.587   0.742  -0.182  0.00  0.00    +0.000 C 
ATOM     28  C   UNK A   0       1.043   2.132   0.010  0.00  0.00    +0.000 C 
ATOM     29  O   UNK A   0      -0.310   1.874   0.313  0.00  0.00    +0.000 OA
ATOM     30  C   UNK A   0      -0.487   1.026   1.496  0.00  0.00    +0.000 C 
ATOM     31  C   UNK A   0       0.212  -0.387   1.588  0.00  0.00    +0.000 C 
ENDBRANCH  23  24
BRANCH  23  32
ATOM     32  C   UNK A   0       4.959  -0.858   4.168  0.00  0.00    +0.000 A 
ATOM     33  C   UNK A   0       4.756  -2.187   4.469  0.00  0.00    +0.000 A 
ATOM     34  N   UNK A   0       5.501  -2.863   5.347  0.00  0.00    +0.000 NA
ATOM     35  C   UNK A   0       6.530  -2.206   5.923  0.00  0.00    +0.000 A 
ATOM     36  C   UNK A   0       7.388  -3.053   6.794  0.00  0.00    +0.000 C 
ATOM     37  C   UNK A   0       6.796  -0.851   5.746  0.00  0.00    +0.000 A 
ATOM     38  C   UNK A   0       5.965  -0.119   4.899  0.00  0.00    +0.000 A 
ATOM     39  C   UNK A   0       6.308   1.347   4.637  0.00  0.00    +0.000 C 
ENDBRANCH  23  32
ENDBRANCH   8  23
TORSDOF 6
