REMARK  Name = CHEMBL306645
REMARK  9 active torsions:
REMARK  status: ('A' for Active; 'I' for Inactive)
REMARK    1  A    between atoms: C_1  and  O_2
REMARK    2  A    between atoms: O_2  and  C_3
REMARK    3  A    between atoms: C_5  and  O_6
REMARK    4  A    between atoms: O_6  and  C_7
REMARK    5  A    between atoms: N_10  and  C_11
REMARK    6  A    between atoms: C_11  and  C_12
REMARK    7  A    between atoms: C_18  and  C_19
REMARK    8  A    between atoms: C_24  and  C_25
REMARK    9  A    between atoms: C_30  and  N_31
REMARK                            x       y       z     vdW  Elec       q    Type
REMARK                         _______ _______ _______ _____ _____    ______ ____
ROOT
ATOM      1  C   UNL     1       2.959  -0.681  -0.684  0.00  0.00    +0.000 A 
ATOM      2  C   UNL     1       4.091  -1.457  -0.284  0.00  0.00    +0.000 A 
ATOM      3  C   UNL     1       4.846  -2.098  -1.213  0.00  0.00    +0.000 A 
ATOM      4  C   UNL     1       4.274  -2.019  -2.441  0.00  0.00    +0.000 A 
ATOM      5  C   UNL     1       3.209  -1.291  -2.918  0.00  0.00    +0.000 A 
ATOM      6  C   UNL     1       2.518  -0.541  -2.033  0.00  0.00    +0.000 A 
ENDROOT
BRANCH   6   7
ATOM      7  C   UNL     1       1.372   0.171  -2.711  0.00  0.00    +0.000 C 
ATOM      8  O   UNL     1       1.077  -0.113  -3.878  0.00  0.00    +0.000 OA
ATOM      9  N   UNL     1       0.588   1.052  -1.978  0.00  0.00    +0.000 N 
ATOM     10  C   UNL     1      -0.808   0.633  -1.725  0.00  0.00    +0.000 C 
ATOM     11  C   UNL     1      -1.711   1.813  -1.618  0.00  0.00    +0.000 C 
ATOM     12  C   UNL     1      -1.305   2.671  -0.141  0.00  0.00    +0.000 C 
ATOM     13  C   UNL     1       0.231   3.165  -0.807  0.00  0.00    +0.000 C 
ATOM     14  C   UNL     1       1.187   2.036  -1.071  0.00  0.00    +0.000 C 
BRANCH  12  15
ATOM     15  N   UNL     1      -2.204   2.024   1.336  0.00  0.00    +0.000 N 
ATOM     16  C   UNL     1      -3.319   2.692   0.751  0.00  0.00    +0.000 C 
ATOM     17  O   UNL     1      -3.814   2.531  -0.421  0.00  0.00    +0.000 OA
ATOM     18  O   UNL     1      -3.740   3.773   1.363  0.00  0.00    +0.000 OA
ATOM     19  C   UNL     1      -4.709   3.145   2.107  0.00  0.00    +0.000 C 
ATOM     20  C   UNL     1      -3.807   3.084   3.257  0.00  0.00    +0.000 A 
ATOM     21  C   UNL     1      -4.147   3.883   4.407  0.00  0.00    +0.000 A 
ATOM     22  C   UNL     1      -3.852   3.537   5.700  0.00  0.00    +0.000 A 
ATOM     23  C   UNL     1      -3.544   2.209   5.774  0.00  0.00    +0.000 A 
ATOM     24  C   UNL     1      -3.026   1.504   4.464  0.00  0.00    +0.000 A 
ATOM     25  C   UNL     1      -2.722   2.222   3.101  0.00  0.00    +0.000 A 
ENDBRANCH  12  15
ENDBRANCH   6   7
BRANCH   1  27
ATOM     26  C   UNL     1       1.055  -0.424   0.541  0.00  0.00    +0.000 C 
ATOM     27  O   UNL     1       2.417  -0.099   0.428  0.00  0.00    +0.000 OA
ENDBRANCH   1  27
BRANCH   3  28
ATOM     28  O   UNL     1       6.022  -2.715  -0.932  0.00  0.00    +0.000 OA
BRANCH  28  29
ATOM     29  C   UNL     1       6.923  -3.326  -1.916  0.00  0.00    +0.000 C 
ATOM     30  C   UNL     1       7.464  -2.476  -3.095  0.00  0.00    +0.000 C 
ATOM     31  C   UNL     1       6.498  -2.246  -4.264  0.00  0.00    +0.000 C 
ATOM     32  N   UNL     1       5.861  -3.526  -4.696  0.00  0.00    +0.000 NA
ATOM     33  C   UNL     1       5.574  -4.486  -3.619  0.00  0.00    +0.000 C 
ATOM     34  C   UNL     1       6.451  -4.673  -2.422  0.00  0.00    +0.000 C 
BRANCH  32  35
ATOM     35  C   UNL     1       4.626  -3.302  -5.497  0.00  0.00    +0.000 C 
BRANCH  35  36
ATOM     36  C   UNL     1       3.906  -4.561  -5.971  0.00  0.00    +0.000 A 
ATOM     37  C   UNL     1       3.924  -4.728  -7.366  0.00  0.00    +0.000 A 
ATOM     38  C   UNL     1       3.348  -5.839  -7.945  0.00  0.00    +0.000 A 
ATOM     39  C   UNL     1       2.786  -6.806  -7.129  0.00  0.00    +0.000 A 
ATOM     40  N   UNL     1       2.720  -6.679  -5.754  0.00  0.00    +0.000 N 
ATOM     41  O   UNL     1       2.200  -7.630  -5.082  0.00  0.00    +0.000 OA
ATOM     42  C   UNL     1       3.207  -5.526  -5.148  0.00  0.00    +0.000 A 
ATOM     43  C   UNL     1       2.911  -5.484  -3.663  0.00  0.00    +0.000 C 
ENDBRANCH  35  36
ENDBRANCH  32  35
ENDBRANCH  28  29
ENDBRANCH   3  28
TORSDOF 7
