REMARK  Name = CHEMBL2037492
REMARK  9 active torsions:
REMARK  status: ('A' for Active; 'I' for Inactive)
REMARK    1  A    between atoms: C_1  and  C_2
REMARK    2  A    between atoms: C_5  and  C_6
REMARK    3  A    between atoms: C_6  and  C_7
REMARK    4  A    between atoms: C_6  and  N_15
REMARK    5  A    between atoms: C_18  and  C_19
REMARK    6  A    between atoms: CA_31  and  CB_32
REMARK    7  A    between atoms: CB_32  and  CG_33
REMARK    8  A    between atoms: CG_33  and  CD1_34
REMARK    9  A    between atoms: CG_33  and  CD2_35
REMARK                            x       y       z     vdW  Elec       q    Type
REMARK                         _______ _______ _______ _____ _____    ______ ____
ROOT
ATOM      1  N   LEU A   1      -4.038  -1.155  -0.177  0.00  0.00    +0.000 N 
ATOM      2  C   UNK A   2      -4.022  -1.955   0.978  0.00  0.00    +0.000 C 
ATOM      3  O   UNK A   2      -3.468  -1.567   2.010  0.00  0.00    +0.000 OA
ATOM      4  C   UNK A   2      -4.542  -3.428   0.787  0.00  0.00    +0.000 C 
ATOM      5  N   UNK A   2      -5.811  -3.335   0.133  0.00  0.00    +0.000 N 
ATOM      6  C   LEU A   1      -5.859  -2.780  -1.088  0.00  0.00    +0.000 C 
ATOM      7  O   LEU A   1      -6.798  -3.116  -1.831  0.00  0.00    +0.000 OA
ATOM      8  CA  LEU A   1      -4.747  -1.739  -1.408  0.00  0.00    +0.000 C 
ATOM      9  H   UNK A   2      -6.601  -3.920   0.382  0.00  0.00    +0.000 HD
ENDROOT
BRANCH   4  10
ATOM     10  C   UNK A   2      -4.734  -4.248   2.044  0.00  0.00    +0.000 C 
ATOM     11  C   UNK A   2      -3.444  -4.667   2.734  0.00  0.00    +0.000 C 
ATOM     12  C   UNK A   2      -3.820  -4.685   4.157  0.00  0.00    +0.000 A 
ATOM     13  C   UNK A   2      -3.032  -5.113   5.203  0.00  0.00    +0.000 A 
ATOM     14  C   UNK A   2      -3.546  -4.958   6.479  0.00  0.00    +0.000 A 
ATOM     15  C   UNK A   2      -4.787  -4.324   6.676  0.00  0.00    +0.000 A 
ATOM     16  C   UNK A   2      -5.515  -3.801   5.609  0.00  0.00    +0.000 A 
ATOM     17  C   UNK A   2      -5.018  -3.997   4.348  0.00  0.00    +0.000 A 
ATOM     18  C   UNK A   2      -5.558  -3.456   3.073  0.00  0.00    +0.000 C 
ENDBRANCH   4  10
BRANCH   1  19
ATOM     19  C   UNK A   0      -3.203   0.178  -0.121  0.00  0.00    +0.000 C 
BRANCH  19  20
ATOM     20  C   UNK A   0      -1.621   0.039   0.031  0.00  0.00    +0.000 C 
ATOM     21  O   UNK A   0      -0.932   1.072  -0.011  0.00  0.00    +0.000 OA
ATOM     22  N   UNK A   0      -0.974  -1.137   0.344  0.00  0.00    +0.000 N 
ATOM     23  C   UNK A   0      -1.279  -2.500  -0.080  0.00  0.00    +0.000 C 
ATOM     24  C   UNK A   0      -1.105  -3.398   1.132  0.00  0.00    +0.000 C 
ATOM     25  O   UNK A   0       0.208  -3.376   1.685  0.00  0.00    +0.000 OA
ATOM     26  C   UNK A   0       0.439  -2.039   2.176  0.00  0.00    +0.000 C 
ATOM     27  C   UNK A   0       0.341  -1.056   0.999  0.00  0.00    +0.000 C 
ENDBRANCH  19  20
BRANCH  19  32
ATOM     28  C   UNK A   0      -4.799   3.604  -4.569  0.00  0.00    +0.000 C 
ATOM     29  C   UNK A   0      -4.299   2.848  -3.373  0.00  0.00    +0.000 A 
ATOM     30  C   UNK A   0      -5.156   2.714  -2.307  0.00  0.00    +0.000 A 
ATOM     31  C   UNK A   0      -4.742   2.054  -1.143  0.00  0.00    +0.000 A 
ATOM     32  C   UNK A   0      -3.517   1.356  -1.134  0.00  0.00    +0.000 A 
ATOM     33  C   UNK A   0      -2.678   1.676  -2.204  0.00  0.00    +0.000 A 
ATOM     34  N   UNK A   0      -3.032   2.403  -3.307  0.00  0.00    +0.000 NA
ENDBRANCH  19  32
ENDBRANCH   1  19
BRANCH   8  35
ATOM     35  CB  LEU A   1      -5.472  -0.622  -2.131  0.00  0.00    +0.000 C 
BRANCH  35  36
ATOM     36  CG  LEU A   1      -6.988  -0.402  -1.971  0.00  0.00    +0.000 C 
ATOM     37  CD1 LEU A   1      -7.408  -0.371  -0.473  0.00  0.00    +0.000 C 
ATOM     38  CD2 LEU A   1      -7.551   0.877  -2.567  0.00  0.00    +0.000 C 
ENDBRANCH  35  36
ENDBRANCH   8  35
TORSDOF 6
