REMARK  Name = CHEMBL1790717
REMARK  26 active torsions:
REMARK  status: ('A' for Active; 'I' for Inactive)
REMARK    1  A    between atoms: C_1  and  C_2
REMARK    2  A    between atoms: C_2  and  C_3
REMARK    3  A    between atoms: C_3  and  C_4
REMARK    4  A    between atoms: C_3  and  C_5
REMARK    5  A    between atoms: C_9  and  C_10
REMARK    6  A    between atoms: C_13  and  O_14
REMARK    7  A    between atoms: C_20  and  O_21
REMARK    8  A    between atoms: C_26  and  C_27
REMARK    9  A    between atoms: C_33  and  C_34
REMARK   10  A    between atoms: N_36  and  C_37
REMARK   11  A    between atoms: C_37  and  C_38
REMARK   12  A    between atoms: C_37  and  C_70
REMARK   13  A    between atoms: C_38  and  C_39
REMARK   14  A    between atoms: C_39  and  C_40
REMARK   15  A    between atoms: C_40  and  C_41
REMARK   16  A    between atoms: C_41  and  N_42
REMARK   17  A    between atoms: C_43  and  C_45
REMARK   18  A    between atoms: C_58  and  O_59
REMARK   19  A    between atoms: C_65  and  O_66
REMARK   20  A    between atoms: N_72  and  C_73
REMARK   21  A    between atoms: C_73  and  N_74
REMARK   22  A    between atoms: C_78  and  C_79
REMARK   23  A    between atoms: C_79  and  C_80
REMARK   24  A    between atoms: C_86  and  C_87
REMARK   25  A    between atoms: C_87  and  C_88
REMARK   26  A    between atoms: C_88  and  C_89
REMARK                            x       y       z     vdW  Elec       q    Type
REMARK                         _______ _______ _______ _____ _____    ______ ____
ROOT
ATOM      1  C   UNL     1       5.393   4.267  -1.897  0.00  0.00    +0.000 C 
ATOM      2  N   UNL     1       5.577   6.309  -2.654  0.00  0.00    +0.000 N 
ATOM      3  C   UNL     1       5.680   8.308  -3.171  0.00  0.00    +0.000 C 
ATOM      4  O   UNL     1       6.020   9.046  -4.431  0.00  0.00    +0.000 OA
ATOM      5  C   UNL     1       5.025  10.344  -2.929  0.00  0.00    +0.000 C 
ATOM      6  N   UNL     1       3.475  11.115  -3.223  0.00  0.00    +0.000 N 
ATOM      7  C   UNL     1       2.535  10.411  -3.918  0.00  0.00    +0.000 C 
ATOM      8  O   UNL     1       1.351  10.712  -3.992  0.00  0.00    +0.000 OA
ATOM      9  C   UNL     1       2.951   9.095  -4.510  0.00  0.00    +0.000 C 
ATOM     10  C   UNL     1       2.592   7.856  -3.805  0.00  0.00    +0.000 C 
ATOM     11  S   UNL     1       1.059   7.993  -4.435  0.00  0.00    +0.000 S 
ATOM     12  S   UNL     1       0.884   6.020  -3.929  0.00  0.00    +0.000 S 
ATOM     13  C   UNL     1      -1.685   5.465  -3.790  0.00  0.00    +0.000 C 
ATOM     14  C   UNL     1      -2.485   4.628  -2.939  0.00  0.00    +0.000 C 
ATOM     15  N   UNL     1      -1.853   3.490  -3.175  0.00  0.00    +0.000 N 
ATOM     16  C   UNL     1      -0.646   3.367  -2.717  0.00  0.00    +0.000 C 
ATOM     17  O   UNL     1      -0.620   2.142  -2.789  0.00  0.00    +0.000 OA
ATOM     18  C   UNL     1       0.561   4.360  -2.285  0.00  0.00    +0.000 C 
ATOM     19  N   UNL     1       1.374   3.778  -1.296  0.00  0.00    +0.000 N 
ATOM     20  C   UNL     1       2.259   2.740  -1.469  0.00  0.00    +0.000 C 
ATOM     21  O   UNL     1       2.704   2.240  -0.438  0.00  0.00    +0.000 OA
ATOM     22  C   UNL     1       2.779   2.200  -2.902  0.00  0.00    +0.000 C 
ATOM     23  N   UNL     1       4.224   2.272  -3.262  0.00  0.00    +0.000 N 
ATOM     24  C   UNL     1       5.391   2.726  -2.717  0.00  0.00    +0.000 C 
ATOM     25  O   UNL     1       6.343   1.929  -2.753  0.00  0.00    +0.000 OA
ATOM     26  H   UNL     1       6.305   7.166  -3.320  0.00  0.00    +0.000 HD
ATOM     27  H   UNL     1       3.034  12.022  -2.820  0.00  0.00    +0.000 HD
ATOM     28  H   UNL     1      -2.054   2.848  -3.958  0.00  0.00    +0.000 HD
ATOM     29  H   UNL     1       1.111   4.110  -0.390  0.00  0.00    +0.000 HD
ATOM     30  H   UNL     1       4.313   2.903  -4.024  0.00  0.00    +0.000 HD
ENDROOT
BRANCH  14  31
ATOM     31  C   UNL     1      -2.497   4.814  -1.429  0.00  0.00    +0.000 C 
ATOM     32  O   UNL     1      -2.101   5.833  -0.832  0.00  0.00    +0.000 OA
ATOM     33  N   UNL     1      -2.763   3.712  -0.677  0.00  0.00    +0.000 N 
ATOM     34  C   UNL     1      -2.686   2.273  -0.948  0.00  0.00    +0.000 C 
ATOM     35  C   UNL     1      -4.021   1.811  -0.468  0.00  0.00    +0.000 C 
ATOM     36  C   UNL     1      -4.197   2.647   0.804  0.00  0.00    +0.000 C 
ATOM     37  C   UNL     1      -3.469   3.984   0.531  0.00  0.00    +0.000 C 
BRANCH  37  38
ATOM     38  C   UNL     1      -4.477   5.105   0.260  0.00  0.00    +0.000 C 
ATOM     39  O   UNL     1      -5.658   4.769   0.187  0.00  0.00    +0.000 OA
ATOM     40  N   UNL     1      -4.042   6.423   0.087  0.00  0.00    +0.000 N 
ATOM     41  H   UNL     1      -3.032   6.613  -0.063  0.00  0.00    +0.000 HD
BRANCH  40  42
ATOM     42  C   UNL     1      -4.917   7.591  -0.112  0.00  0.00    +0.000 C 
BRANCH  42  43
ATOM     43  C   UNL     1      -4.116   8.898  -0.468  0.00  0.00    +0.000 C 
ATOM     44  O   UNL     1      -2.887   8.855  -0.555  0.00  0.00    +0.000 OA
ATOM     45  N   UNL     1      -4.827  10.090  -0.666  0.00  0.00    +0.000 N 
ATOM     46  H   UNL     1      -5.831  10.135  -0.572  0.00  0.00    +0.000 HD
BRANCH  45  47
ATOM     47  C   UNL     1      -4.127  11.318  -0.980  0.00  0.00    +0.000 C 
BRANCH  47  48
ATOM     48  N   UNL     1      -5.081  12.409  -1.104  0.00  0.00    +0.000 NA
ATOM     49  H   UNL     1      -5.700  12.244  -1.895  0.00  0.00    +0.000 HD
ATOM     50  H   UNL     1      -4.565  13.265  -1.351  0.00  0.00    +0.000 HD
ENDBRANCH  47  48
ENDBRANCH  45  47
ENDBRANCH  42  43
BRANCH  42  51
ATOM     51  C   UNL     1      -5.684   7.805   1.182  0.00  0.00    +0.000 C 
BRANCH  51  52
ATOM     52  C   UNL     1      -6.494   6.589   1.573  0.00  0.00    +0.000 C 
BRANCH  52  53
ATOM     53  C   UNL     1      -7.249   6.726   2.851  0.00  0.00    +0.000 C 
BRANCH  53  54
ATOM     54  C   UNL     1      -8.010   5.441   3.199  0.00  0.00    +0.000 C 
BRANCH  54  55
ATOM     55  N   UNL     1      -8.789   5.595   4.495  0.00  0.00    +0.000 N 
ATOM     56  C   UNL     1      -9.610   4.560   5.067  0.00  0.00    +0.000 C 
ATOM     57  O   UNL     1      -9.621   3.512   4.393  0.00  0.00    +0.000 OA
ATOM     58  H   UNL     1      -8.680   6.494   4.922  0.00  0.00    +0.000 HD
BRANCH  56  59
ATOM     59  C   UNL     1     -10.571   4.570   6.557  0.00  0.00    +0.000 A 
ATOM     60  C   UNL     1     -11.213   3.485   6.787  0.00  0.00    +0.000 A 
ATOM     61  C   UNL     1     -12.187   3.424   8.104  0.00  0.00    +0.000 A 
ATOM     62  C   UNL     1     -12.732   2.454   8.411  0.00  0.00    +0.000 A 
ATOM     63  C   UNL     1     -12.603   3.530   8.968  0.00  0.00    +0.000 A 
ATOM     64  C   UNL     1     -11.282   4.800   7.817  0.00  0.00    +0.000 A 
ATOM     65  C   UNL     1     -13.842   2.073   9.948  0.00  0.00    +0.000 C 
ATOM     66  O   UNL     1     -13.006   0.929   9.551  0.00  0.00    +0.000 OA
ATOM     67  C   UNL     1     -12.867   1.166   8.229  0.00  0.00    +0.000 C 
ATOM     68  O   UNL     1     -12.302   0.882   7.190  0.00  0.00    +0.000 OA
ATOM     69  C   UNL     1     -14.729   2.497  11.448  0.00  0.00    +0.000 A 
ATOM     70  C   UNL     1     -14.035   2.972  12.541  0.00  0.00    +0.000 A 
ATOM     71  C   UNL     1     -14.677   3.458  13.711  0.00  0.00    +0.000 A 
ATOM     72  C   UNL     1     -16.057   3.365  13.871  0.00  0.00    +0.000 A 
ATOM     73  C   UNL     1     -16.811   2.726  12.904  0.00  0.00    +0.000 A 
ATOM     74  C   UNL     1     -16.172   2.295  11.717  0.00  0.00    +0.000 A 
ATOM     75  O   UNL     1     -17.023   1.682  10.826  0.00  0.00    +0.000 OA
ATOM     76  C   UNL     1     -16.429   0.579  10.279  0.00  0.00    +0.000 A 
ATOM     77  C   UNL     1     -17.376  -0.304   9.501  0.00  0.00    +0.000 A 
ATOM     78  C   UNL     1     -17.163  -1.629   9.130  0.00  0.00    +0.000 A 
ATOM     79  C   UNL     1     -16.192  -2.237   9.873  0.00  0.00    +0.000 A 
ATOM     80  C   UNL     1     -15.168  -1.290  10.614  0.00  0.00    +0.000 A 
ATOM     81  C   UNL     1     -15.010   0.415  10.339  0.00  0.00    +0.000 A 
BRANCH  78  82
ATOM     82  O   UNL     1     -17.807  -2.270   8.108  0.00  0.00    +0.000 OA
ATOM     83  H   UNL     1     -18.423  -1.701   7.604  0.00  0.00    +0.000 HD
ENDBRANCH  78  82
BRANCH  72  84
ATOM     84  O   UNL     1     -16.736   3.877  14.940  0.00  0.00    +0.000 OA
ATOM     85  H   UNL     1     -16.159   4.331  15.575  0.00  0.00    +0.000 HD
ENDBRANCH  72  84
ENDBRANCH  56  59
ENDBRANCH  54  55
ENDBRANCH  53  54
ENDBRANCH  52  53
ENDBRANCH  51  52
ENDBRANCH  42  51
ENDBRANCH  40  42
ENDBRANCH  37  38
ENDBRANCH  14  31
BRANCH   5  86
ATOM     86  C   UNL     1       5.075   9.998  -1.561  0.00  0.00    +0.000 A 
ATOM     87  C   UNL     1       6.423   9.692  -1.374  0.00  0.00    +0.000 A 
ATOM     88  C   UNL     1       6.626   8.459  -0.818  0.00  0.00    +0.000 A 
ATOM     89  C   UNL     1       5.518   7.676  -0.454  0.00  0.00    +0.000 A 
ATOM     90  C   UNL     1       4.210   8.027  -0.767  0.00  0.00    +0.000 A 
ATOM     91  C   UNL     1       3.953   9.255  -1.266  0.00  0.00    +0.000 A 
BRANCH  89  92
ATOM     92  O   UNL     1       5.629   6.492   0.194  0.00  0.00    +0.000 OA
ATOM     93  H   UNL     1       6.551   6.313   0.421  0.00  0.00    +0.000 HD
ENDBRANCH  89  92
ENDBRANCH   5  86
BRANCH   1  94
ATOM     94  C   UNL     1       5.429   2.225  -0.793  0.00  0.00    +0.000 C 
ATOM     95  C   UNL     1       6.303   0.379  -0.871  0.00  0.00    +0.000 C 
BRANCH  94  97
ATOM     96  C   UNL     1       5.612   1.461   1.666  0.00  0.00    +0.000 C 
ATOM     97  C   UNL     1       4.798   0.869   0.648  0.00  0.00    +0.000 C 
ENDBRANCH  94  97
ENDBRANCH   1  94
BRANCH   9  98
ATOM     98  O   UNL     1       4.127   8.683  -4.180  0.00  0.00    +0.000 OA
ATOM     99  H   UNL     1       4.105   8.938  -3.253  0.00  0.00    +0.000 HD
ENDBRANCH   9  98
BRANCH  18 100
ATOM    100  C   UNL     1      -0.127   5.687  -1.960  0.00  0.00    +0.000 C 
BRANCH 100 101
ATOM    101  C   UNL     1      -0.835   6.955  -3.298  0.00  0.00    +0.000 C 
ATOM    102  N   UNL     1      -0.674   6.146  -5.047  0.00  0.00    +0.000 N 
ATOM    103  O   UNL     1      -1.492   7.946  -3.135  0.00  0.00    +0.000 OA
ATOM    104  H   UNL     1       0.035   5.218  -4.906  0.00  0.00    +0.000 HD
ATOM    105  H   UNL     1      -0.937   6.255  -5.955  0.00  0.00    +0.000 HD
ENDBRANCH 100 101
ENDBRANCH  18 100
BRANCH  22 106
ATOM    106  C   UNL     1       2.165   2.843  -4.169  0.00  0.00    +0.000 C 
BRANCH 106 107
ATOM    107  C   UNL     1       0.780   2.364  -4.401  0.00  0.00    +0.000 C 
BRANCH 107 108
ATOM    108  C   UNL     1      -0.210   3.231  -5.331  0.00  0.00    +0.000 C 
ATOM    109  N   UNL     1       0.452   4.098  -6.122  0.00  0.00    +0.000 N 
ATOM    110  O   UNL     1      -1.438   3.331  -5.380  0.00  0.00    +0.000 OA
ATOM    111  H   UNL     1       1.413   4.326  -5.927  0.00  0.00    +0.000 HD
ATOM    112  H   UNL     1      -0.122   4.780  -6.613  0.00  0.00    +0.000 HD
ENDBRANCH 107 108
ENDBRANCH 106 107
ENDBRANCH  22 106
TORSDOF 24
