REMARK  Name = CHEMBL1093342
REMARK  11 active torsions:
REMARK  status: ('A' for Active; 'I' for Inactive)
REMARK    1  A    between atoms: C_1  and  C_2
REMARK    2  A    between atoms: C_2  and  N_3
REMARK    3  A    between atoms: N_3  and  C_17
REMARK    4  A    between atoms: C_4  and  C_6
REMARK    5  A    between atoms: C_6  and  O_7
REMARK    6  A    between atoms: O_7  and  C_8
REMARK    7  A    between atoms: C_11  and  C_12
REMARK    8  A    between atoms: C_12  and  C_13
REMARK    9  A    between atoms: C_12  and  C_14
REMARK   10  A    between atoms: C_20  and  O_21
REMARK   11  A    between atoms: O_21  and  C_22
REMARK                            x       y       z     vdW  Elec       q    Type
REMARK                         _______ _______ _______ _____ _____    ______ ____
ROOT
ATOM      1  N   UNL     1       2.981   0.884   1.167  0.00  0.00    +0.000 N 
ATOM      2  C   UNL     1       2.168   1.499   2.146  0.00  0.00    +0.000 C 
ATOM      3  O   UNL     1       2.649   2.127   3.102  0.00  0.00    +0.000 OA
ENDROOT
BRANCH   1   4
ATOM      4  C   UNL     1       4.423   0.976   1.349  0.00  0.00    +0.000 A 
ATOM      5  C   UNL     1       5.287   1.255   0.289  0.00  0.00    +0.000 A 
ATOM      6  C   UNL     1       6.661   1.420   0.515  0.00  0.00    +0.000 A 
ATOM      7  C   UNL     1       7.167   1.263   1.797  0.00  0.00    +0.000 A 
ATOM      8  N   UNL     1       6.371   0.942   2.835  0.00  0.00    +0.000 NA
ATOM      9  C   UNL     1       5.035   0.826   2.596  0.00  0.00    +0.000 A 
BRANCH   7  10
ATOM     10  O   UNL     1       8.481   1.414   2.146  0.00  0.00    +0.000 OA
ATOM     11  C   UNL     1       9.379   1.788   1.109  0.00  0.00    +0.000 C 
ENDBRANCH   7  10
ENDBRANCH   1   4
BRANCH   1  13
ATOM     12  C   UNL     1       1.089  -0.102  -0.324  0.00  0.00    +0.000 C 
ATOM     13  C   UNL     1       2.564   0.112  -0.044  0.00  0.00    +0.000 C 
ENDBRANCH   1  13
BRANCH   2  14
ATOM     14  C   UNL     1       0.641   1.425   2.025  0.00  0.00    +0.000 C 
BRANCH  14  15
ATOM     15  O   UNL     1      -0.088   2.147   3.005  0.00  0.00    +0.000 OA
BRANCH  15  16
ATOM     16  C   UNL     1      -1.447   1.995   2.913  0.00  0.00    +0.000 A 
ATOM     17  C   UNL     1      -2.192   3.125   3.231  0.00  0.00    +0.000 A 
ATOM     18  C   UNL     1      -3.580   3.045   3.349  0.00  0.00    +0.000 A 
ATOM     19  C   UNL     1      -4.258   1.854   3.051  0.00  0.00    +0.000 A 
ATOM     20  C   UNL     1      -3.494   0.727   2.719  0.00  0.00    +0.000 A 
ATOM     21  C   UNL     1      -2.102   0.794   2.647  0.00  0.00    +0.000 A 
BRANCH  19  22
ATOM     22  C   UNL     1      -5.780   1.835   3.048  0.00  0.00    +0.000 C 
ATOM     23  C   UNL     1      -6.312   2.875   2.052  0.00  0.00    +0.000 C 
ATOM     24  C   UNL     1      -6.370   0.467   2.683  0.00  0.00    +0.000 C 
ENDBRANCH  19  22
ENDBRANCH  15  16
ENDBRANCH  14  15
ENDBRANCH   2  14
TORSDOF 7
