REMARK  Name = CHEMBL515660
REMARK  11 active torsions:
REMARK  status: ('A' for Active; 'I' for Inactive)
REMARK    1  A    between atoms: C_1  and  O_2
REMARK    2  A    between atoms: O_2  and  C_3
REMARK    3  A    between atoms: C_6  and  S_7
REMARK    4  A    between atoms: S_7  and  N_10
REMARK    5  A    between atoms: N_10  and  C_11
REMARK    6  A    between atoms: N_10  and  C_26
REMARK    7  A    between atoms: C_11  and  C_12
REMARK    8  A    between atoms: C_15  and  C_16
REMARK    9  A    between atoms: C_21  and  C_22
REMARK   10  A    between atoms: C_29  and  O_30
REMARK   11  A    between atoms: O_30  and  C_31
REMARK                            x       y       z     vdW  Elec       q    Type
REMARK                         _______ _______ _______ _____ _____    ______ ____
ROOT
ATOM      1  N   UNL     1       4.642  -2.371  -5.817  0.00  0.00    +0.000 N 
ENDROOT
BRANCH   1   2
ATOM      2  C   UNL     1       5.208  -2.957  -7.049  0.00  0.00    +0.000 A 
ATOM      3  C   UNL     1       5.466  -4.323  -7.155  0.00  0.00    +0.000 A 
ATOM      4  C   UNL     1       6.056  -4.849  -8.307  0.00  0.00    +0.000 A 
ATOM      5  C   UNL     1       6.354  -4.008  -9.367  0.00  0.00    +0.000 A 
ATOM      6  N   UNL     1       6.086  -2.685  -9.318  0.00  0.00    +0.000 NA
ATOM      7  C   UNL     1       5.538  -2.194  -8.168  0.00  0.00    +0.000 A 
BRANCH   5   8
ATOM      8  O   UNL     1       6.926  -4.426 -10.541  0.00  0.00    +0.000 OA
ATOM      9  C   UNL     1       7.213  -5.819 -10.635  0.00  0.00    +0.000 C 
ENDBRANCH   5   8
ENDBRANCH   1   2
BRANCH   1  10
ATOM     10  S   UNL     1       5.576  -2.838  -4.435  0.00  0.00    +0.000 S 
ATOM     11  O   UNL     1       6.943  -2.390  -4.630  0.00  0.00    +0.000 OA
ATOM     12  O   UNL     1       5.245  -4.214  -4.145  0.00  0.00    +0.000 OA
BRANCH  10  16
ATOM     13  C   UNL     1       3.219  -1.397  -1.042  0.00  0.00    +0.000 A 
ATOM     14  C   UNL     1       4.080  -2.371  -0.769  0.00  0.00    +0.000 A 
ATOM     15  C   UNL     1       5.117  -2.593  -1.718  0.00  0.00    +0.000 A 
ATOM     16  C   UNL     1       5.153  -2.016  -3.007  0.00  0.00    +0.000 A 
ATOM     17  C   UNL     1       4.736  -0.793  -3.175  0.00  0.00    +0.000 A 
ATOM     18  C   UNL     1       3.761  -0.729  -2.228  0.00  0.00    +0.000 A 
BRANCH  13  20
ATOM     19  C   UNL     1       0.829  -0.429   0.070  0.00  0.00    +0.000 C 
ATOM     20  O   UNL     1       2.197  -1.128  -0.063  0.00  0.00    +0.000 OA
ENDBRANCH  13  20
ENDBRANCH  10  16
ENDBRANCH   1  10
BRANCH   1  21
ATOM     21  C   UNL     1       3.394  -1.470  -6.028  0.00  0.00    +0.000 C 
BRANCH  21  22
ATOM     22  C   UNL     1       2.421  -0.782  -4.912  0.00  0.00    +0.000 A 
ATOM     23  C   UNL     1       1.746  -1.641  -3.936  0.00  0.00    +0.000 A 
ATOM     24  C   UNL     1       1.306  -0.949  -2.632  0.00  0.00    +0.000 A 
ATOM     25  C   UNL     1       1.893   0.647  -2.240  0.00  0.00    +0.000 A 
ATOM     26  C   UNL     1       2.453   1.366  -3.388  0.00  0.00    +0.000 A 
ATOM     27  N   UNL     1       2.665   0.699  -4.674  0.00  0.00    +0.000 NA
BRANCH  25  28
ATOM     28  C   UNL     1       2.783   1.219  -0.740  0.00  0.00    +0.000 A 
ATOM     29  C   UNL     1       1.983   2.277  -0.375  0.00  0.00    +0.000 A 
ATOM     30  C   UNL     1       1.953   2.759   0.912  0.00  0.00    +0.000 A 
ATOM     31  C   UNL     1       2.670   2.156   1.946  0.00  0.00    +0.000 A 
ATOM     32  C   UNL     1       3.605   1.168   1.710  0.00  0.00    +0.000 A 
ATOM     33  C   UNL     1       3.842   0.773   0.380  0.00  0.00    +0.000 A 
BRANCH  33  34
ATOM     34  C   UNL     1       5.012  -0.215   0.525  0.00  0.00    +0.000 C 
ATOM     35  N   UNL     1       5.786  -0.983   0.859  0.00  0.00    +0.000 NA
ENDBRANCH  33  34
ENDBRANCH  25  28
ENDBRANCH  21  22
ENDBRANCH   1  21
TORSDOF 9
