REMARK  Name = CHEMBL308460
REMARK  7 active torsions:
REMARK  status: ('A' for Active; 'I' for Inactive)
REMARK    1  A    between atoms: C_1  and  O_2
REMARK    2  A    between atoms: O_2  and  C_3
REMARK    3  A    between atoms: C_5  and  O_6
REMARK    4  A    between atoms: O_6  and  C_7
REMARK    5  A    between atoms: N_10  and  C_11
REMARK    6  A    between atoms: C_25  and  C_26
REMARK    7  A    between atoms: C_31  and  N_32
REMARK                            x       y       z     vdW  Elec       q    Type
REMARK                         _______ _______ _______ _____ _____    ______ ____
ROOT
ATOM      1  C   UNL     1       2.560  -0.621   0.918  0.00  0.00    +0.000 A 
ATOM      2  C   UNL     1       2.213  -1.719   1.941  0.00  0.00    +0.000 A 
ATOM      3  C   UNL     1       2.929  -1.949   3.096  0.00  0.00    +0.000 A 
ATOM      4  C   UNL     1       4.007  -1.257   2.906  0.00  0.00    +0.000 A 
ATOM      5  F   UNL     1       4.737  -1.025   3.920  0.00  0.00    +0.000 F 
ATOM      6  C   UNL     1       4.351  -0.419   1.896  0.00  0.00    +0.000 A 
ATOM      7  C   UNL     1       3.548   0.276   1.040  0.00  0.00    +0.000 A 
ENDROOT
BRANCH   7   8
ATOM      8  C   UNL     1       3.854   1.874   0.231  0.00  0.00    +0.000 C 
ATOM      9  O   UNL     1       4.410   2.952   0.511  0.00  0.00    +0.000 OA
ATOM     10  N   UNL     1       3.461   1.878  -1.036  0.00  0.00    +0.000 N 
ATOM     11  C   UNL     1       4.313   1.807  -2.199  0.00  0.00    +0.000 C 
ATOM     12  C   UNL     1       4.030   2.945  -3.181  0.00  0.00    +0.000 C 
ATOM     13  C   UNL     1       2.274   3.122  -3.600  0.00  0.00    +0.000 C 
ATOM     14  C   UNL     1       1.871   3.479  -1.969  0.00  0.00    +0.000 C 
ATOM     15  C   UNL     1       2.133   2.298  -1.094  0.00  0.00    +0.000 C 
BRANCH  13  16
ATOM     16  N   UNL     1       1.323   2.399  -5.040  0.00  0.00    +0.000 N 
ATOM     17  C   UNL     1       2.688   2.627  -5.608  0.00  0.00    +0.000 C 
ATOM     18  O   UNL     1       3.351   3.570  -5.656  0.00  0.00    +0.000 OA
ATOM     19  O   UNL     1       3.214   1.437  -6.024  0.00  0.00    +0.000 OA
ATOM     20  C   UNL     1       2.951   1.609  -7.366  0.00  0.00    +0.000 C 
ATOM     21  C   UNL     1       1.763   0.790  -7.270  0.00  0.00    +0.000 A 
ATOM     22  C   UNL     1       1.814  -0.537  -7.881  0.00  0.00    +0.000 A 
ATOM     23  C   UNL     1       0.745  -1.367  -8.110  0.00  0.00    +0.000 A 
ATOM     24  C   UNL     1      -0.390  -0.620  -8.176  0.00  0.00    +0.000 A 
ATOM     25  C   UNL     1      -0.428   0.768  -7.360  0.00  0.00    +0.000 A 
ATOM     26  C   UNL     1       0.772   1.365  -6.483  0.00  0.00    +0.000 A 
ENDBRANCH  13  16
ENDBRANCH   7   8
BRANCH   1  28
ATOM     27  C   UNL     1       0.713  -0.166  -0.084  0.00  0.00    +0.000 C 
ATOM     28  O   UNL     1       2.028  -0.569  -0.316  0.00  0.00    +0.000 OA
ENDBRANCH   1  28
BRANCH   3  29
ATOM     29  O   UNL     1       2.839  -2.699   4.224  0.00  0.00    +0.000 OA
BRANCH  29  30
ATOM     30  C   UNL     1       3.888  -2.719   5.362  0.00  0.00    +0.000 C 
ATOM     31  C   UNL     1       3.876  -1.541   6.385  0.00  0.00    +0.000 C 
ATOM     32  C   UNL     1       4.805  -0.391   5.980  0.00  0.00    +0.000 C 
ATOM     33  N   UNL     1       6.238  -0.779   5.552  0.00  0.00    +0.000 NA
ATOM     34  C   UNL     1       6.388  -2.039   4.698  0.00  0.00    +0.000 C 
ATOM     35  C   UNL     1       5.377  -3.155   5.087  0.00  0.00    +0.000 C 
BRANCH  33  36
ATOM     36  C   UNL     1       7.002   0.398   5.009  0.00  0.00    +0.000 C 
ATOM     37  C   UNL     1       8.448   0.140   4.475  0.00  0.00    +0.000 C 
ATOM     38  C   UNL     1       8.564   0.119   2.963  0.00  0.00    +0.000 C 
ATOM     39  C   UNL     1       7.276   0.700   2.653  0.00  0.00    +0.000 A 
ATOM     40  N   UNL     1       7.073   0.796   1.369  0.00  0.00    +0.000 NA
ATOM     41  C   UNL     1       5.938   1.408   1.285  0.00  0.00    +0.000 A 
ATOM     42  C   UNL     1       4.960   1.940   2.505  0.00  0.00    +0.000 A 
ATOM     43  C   UNL     1       5.253   1.733   3.791  0.00  0.00    +0.000 A 
ATOM     44  C   UNL     1       6.447   1.061   3.812  0.00  0.00    +0.000 A 
ENDBRANCH  33  36
ENDBRANCH  29  30
ENDBRANCH   3  29
TORSDOF 6
