REMARK  Name = CHEMBL467545
REMARK  6 active torsions:
REMARK  status: ('A' for Active; 'I' for Inactive)
REMARK    1  A    between atoms: C_1  and  O_2
REMARK    2  A    between atoms: O_2  and  C_3
REMARK    3  A    between atoms: C_6  and  N_7
REMARK    4  A    between atoms: C_8  and  C_9
REMARK    5  A    between atoms: C_12  and  C_13
REMARK    6  A    between atoms: C_16  and  C_17
REMARK                            x       y       z     vdW  Elec       q    Type
REMARK                         _______ _______ _______ _____ _____    ______ ____
ROOT
ATOM      1  N   UNL     1       5.068  -4.211  -2.789  0.00  0.00    +0.000 N 
ATOM      2  C   UNL     1       5.355  -5.526  -2.421  0.00  0.00    +0.000 A 
ATOM      3  C   UNL     1       4.815  -6.332  -1.294  0.00  0.00    +0.000 C 
ATOM      4  N   UNL     1       6.137  -6.064  -3.339  0.00  0.00    +0.000 NA
ATOM      5  N   UNL     1       6.370  -5.143  -4.313  0.00  0.00    +0.000 NA
ATOM      6  C   UNL     1       5.750  -4.018  -3.991  0.00  0.00    +0.000 A 
ENDROOT
BRANCH   1  10
ATOM      7  C   UNL     1       3.033  -1.132  -0.825  0.00  0.00    +0.000 A 
ATOM      8  C   UNL     1       2.724  -1.378  -2.153  0.00  0.00    +0.000 A 
ATOM      9  C   UNL     1       3.372  -2.433  -2.808  0.00  0.00    +0.000 A 
ATOM     10  C   UNL     1       4.306  -3.214  -2.116  0.00  0.00    +0.000 A 
ATOM     11  C   UNL     1       4.593  -2.858  -0.808  0.00  0.00    +0.000 A 
ATOM     12  N   UNL     1       3.978  -1.833  -0.158  0.00  0.00    +0.000 NA
BRANCH   7  14
ATOM     13  C   UNL     1       1.048  -0.117  -0.108  0.00  0.00    +0.000 C 
ATOM     14  O   UNL     1       2.475  -0.092  -0.125  0.00  0.00    +0.000 OA
ENDBRANCH   7  14
ENDBRANCH   1  10
BRANCH   6  15
ATOM     15  C   UNL     1       5.894  -2.759  -4.713  0.00  0.00    +0.000 A 
ATOM     16  C   UNL     1       6.399  -1.608  -4.116  0.00  0.00    +0.000 A 
ATOM     17  N   UNL     1       6.529  -0.429  -4.774  0.00  0.00    +0.000 NA
ATOM     18  C   UNL     1       6.189  -0.431  -6.087  0.00  0.00    +0.000 A 
ATOM     19  C   UNL     1       5.685  -1.588  -6.681  0.00  0.00    +0.000 A 
ATOM     20  N   UNL     1       5.511  -2.760  -6.013  0.00  0.00    +0.000 NA
BRANCH  18  21
ATOM     21  C   UNL     1       6.367   0.835  -6.810  0.00  0.00    +0.000 A 
ATOM     22  C   UNL     1       5.249   1.505  -7.348  0.00  0.00    +0.000 A 
ATOM     23  C   UNL     1       5.380   2.741  -7.993  0.00  0.00    +0.000 A 
ATOM     24  C   UNL     1       6.633   3.335  -8.114  0.00  0.00    +0.000 A 
ATOM     25  C   UNL     1       7.756   2.682  -7.613  0.00  0.00    +0.000 A 
ATOM     26  C   UNL     1       7.629   1.442  -6.973  0.00  0.00    +0.000 A 
ATOM     27 CL   UNL     1       9.092   0.678  -6.448  0.00  0.00    +0.000 Cl
ENDBRANCH  18  21
ENDBRANCH   6  15
TORSDOF 4
