REMARK  Name = CHEMBL1643590
REMARK  12 active torsions:
REMARK  status: ('A' for Active; 'I' for Inactive)
REMARK    1  A    between atoms: C_1  and  O_2
REMARK    2  A    between atoms: O_2  and  C_3
REMARK    3  A    between atoms: C_6  and  S_7
REMARK    4  A    between atoms: S_7  and  N_10
REMARK    5  A    between atoms: N_10  and  C_11
REMARK    6  A    between atoms: N_10  and  C_31
REMARK    7  A    between atoms: C_11  and  C_12
REMARK    8  A    between atoms: C_15  and  C_16
REMARK    9  A    between atoms: C_19  and  C_20
REMARK   10  A    between atoms: C_20  and  N_21
REMARK   11  A    between atoms: N_21  and  C_22
REMARK   12  A    between atoms: C_22  and  C_23
REMARK                            x       y       z     vdW  Elec       q    Type
REMARK                         _______ _______ _______ _____ _____    ______ ____
ROOT
ATOM      1  C   UNL     1       4.017  -0.440  -5.219  0.00  0.00    +0.000 A 
ATOM      2  C   UNL     1       4.416   0.877  -5.020  0.00  0.00    +0.000 A 
ATOM      3  S   UNL     1       3.371   1.596  -3.753  0.00  0.00    +0.000 S 
ATOM      4  C   UNL     1       2.124   0.184  -3.893  0.00  0.00    +0.000 A 
ATOM      5  N   UNL     1       2.620  -0.640  -4.842  0.00  0.00    +0.000 NA
ENDROOT
BRANCH   4   6
ATOM      6  C   UNL     1       1.059  -0.415  -2.565  0.00  0.00    +0.000 A 
ATOM      7  C   UNL     1       0.018   0.381  -2.194  0.00  0.00    +0.000 A 
ATOM      8  C   UNL     1      -0.595   0.163  -0.903  0.00  0.00    +0.000 A 
ATOM      9  C   UNL     1      -0.217  -0.826   0.109  0.00  0.00    +0.000 A 
ATOM     10  C   UNL     1       0.782  -1.727  -0.190  0.00  0.00    +0.000 A 
ATOM     11  C   UNL     1       1.299  -1.618  -1.503  0.00  0.00    +0.000 A 
BRANCH   9  12
ATOM     12  C   UNL     1      -0.690  -0.681   1.537  0.00  0.00    +0.000 C 
BRANCH  12  13
ATOM     13  N   UNL     1       0.010  -1.551   2.487  0.00  0.00    +0.000 NA
ATOM     14  H   UNL     1       0.925  -1.179   2.745  0.00  0.00    +0.000 HD
BRANCH  13  15
ATOM     15  C   UNL     1      -0.817  -1.717   3.661  0.00  0.00    +0.000 C 
BRANCH  15  16
ATOM     16  C   UNL     1      -0.219  -2.756   4.516  0.00  0.00    +0.000 A 
ATOM     17  C   UNL     1      -0.411  -4.159   4.397  0.00  0.00    +0.000 A 
ATOM     18  C   UNL     1       0.186  -4.717   5.499  0.00  0.00    +0.000 A 
ATOM     19  O   UNL     1       0.809  -3.763   6.239  0.00  0.00    +0.000 OA
ATOM     20  C   UNL     1       0.583  -2.577   5.621  0.00  0.00    +0.000 A 
ENDBRANCH  15  16
ENDBRANCH  13  15
ENDBRANCH  12  13
ENDBRANCH   9  12
ENDBRANCH   4   6
BRANCH   1  21
ATOM     21  C   UNL     1       4.895  -1.564  -5.931  0.00  0.00    +0.000 C 
BRANCH  21  22
ATOM     22  N   UNL     1       4.906  -3.063  -5.431  0.00  0.00    +0.000 NA
BRANCH  22  23
ATOM     23  C   UNL     1       5.454  -4.009  -6.512  0.00  0.00    +0.000 C 
ATOM     24  C   UNL     1       4.980  -5.455  -6.318  0.00  0.00    +0.000 C 
ATOM     25  C   UNL     1       5.292  -6.141  -7.639  0.00  0.00    +0.000 C 
ATOM     26  C   UNL     1       5.185  -5.051  -8.694  0.00  0.00    +0.000 C 
ATOM     27  C   UNL     1       4.981  -3.738  -7.937  0.00  0.00    +0.000 C 
ENDBRANCH  22  23
BRANCH  22  28
ATOM     28  S   UNL     1       5.932  -3.456  -3.931  0.00  0.00    +0.000 S 
ATOM     29  O   UNL     1       7.231  -2.996  -4.166  0.00  0.00    +0.000 OA
ATOM     30  O   UNL     1       5.608  -4.862  -3.566  0.00  0.00    +0.000 OA
BRANCH  28  34
ATOM     31  C   UNL     1       4.032  -0.550  -0.924  0.00  0.00    +0.000 A 
ATOM     32  C   UNL     1       4.935  -1.434  -0.435  0.00  0.00    +0.000 A 
ATOM     33  C   UNL     1       5.650  -2.353  -1.293  0.00  0.00    +0.000 A 
ATOM     34  C   UNL     1       5.274  -2.572  -2.616  0.00  0.00    +0.000 A 
ATOM     35  C   UNL     1       4.110  -2.105  -2.935  0.00  0.00    +0.000 A 
ATOM     36  C   UNL     1       3.725  -1.041  -2.157  0.00  0.00    +0.000 A 
BRANCH  31  38
ATOM     37  C   UNL     1       2.230   0.982  -0.013  0.00  0.00    +0.000 C 
ATOM     38  O   UNL     1       3.536   0.404  -0.083  0.00  0.00    +0.000 OA
ENDBRANCH  31  38
ENDBRANCH  28  34
ENDBRANCH  22  28
ENDBRANCH  21  22
ENDBRANCH   1  21
TORSDOF 11
