REMARK  Name = CHEMBL1643587
REMARK  15 active torsions:
REMARK  status: ('A' for Active; 'I' for Inactive)
REMARK    1  A    between atoms: C_1  and  O_2
REMARK    2  A    between atoms: O_2  and  C_3
REMARK    3  A    between atoms: C_6  and  S_7
REMARK    4  A    between atoms: S_7  and  N_10
REMARK    5  A    between atoms: N_10  and  C_11
REMARK    6  A    between atoms: N_10  and  C_30
REMARK    7  A    between atoms: C_11  and  C_12
REMARK    8  A    between atoms: C_15  and  C_16
REMARK    9  A    between atoms: C_19  and  C_20
REMARK   10  A    between atoms: C_20  and  N_21
REMARK   11  A    between atoms: N_21  and  C_22
REMARK   12  A    between atoms: C_22  and  C_23
REMARK   13  A    between atoms: C_23  and  C_24
REMARK   14  A    between atoms: C_23  and  C_25
REMARK   15  A    between atoms: C_23  and  C_26
REMARK                            x       y       z     vdW  Elec       q    Type
REMARK                         _______ _______ _______ _____ _____    ______ ____
ROOT
ATOM      1  C   UNL     1       4.001   5.229   0.647  0.00  0.00    +0.000 A 
ATOM      2  C   UNL     1       2.868   5.268   1.445  0.00  0.00    +0.000 A 
ATOM      3  S   UNL     1       2.599   3.739   2.186  0.00  0.00    +0.000 S 
ATOM      4  C   UNL     1       3.992   3.093   1.390  0.00  0.00    +0.000 A 
ATOM      5  N   UNL     1       4.699   4.020   0.751  0.00  0.00    +0.000 NA
ENDROOT
BRANCH   4   6
ATOM      6  C   UNL     1       4.267   1.623   1.340  0.00  0.00    +0.000 A 
ATOM      7  C   UNL     1       3.257   0.643   1.323  0.00  0.00    +0.000 A 
ATOM      8  C   UNL     1       3.492  -0.707   0.968  0.00  0.00    +0.000 A 
ATOM      9  C   UNL     1       4.775  -1.151   0.733  0.00  0.00    +0.000 A 
ATOM     10  C   UNL     1       5.808  -0.204   0.861  0.00  0.00    +0.000 A 
ATOM     11  C   UNL     1       5.555   1.160   1.098  0.00  0.00    +0.000 A 
BRANCH   9  12
ATOM     12  C   UNL     1       4.979  -2.600   0.342  0.00  0.00    +0.000 C 
BRANCH  12  13
ATOM     13  N   UNL     1       6.371  -2.911   0.532  0.00  0.00    +0.000 NA
ATOM     14  H   UNL     1       6.601  -2.622   1.480  0.00  0.00    +0.000 HD
BRANCH  13  15
ATOM     15  C   UNL     1       6.704  -4.303   0.361  0.00  0.00    +0.000 C 
BRANCH  15  16
ATOM     16  C   UNL     1       8.221  -4.453   0.609  0.00  0.00    +0.000 C 
ATOM     17  C   UNL     1       9.016  -3.615  -0.413  0.00  0.00    +0.000 C 
ATOM     18  C   UNL     1       8.596  -4.003   2.037  0.00  0.00    +0.000 C 
ATOM     19  C   UNL     1       8.574  -5.933   0.441  0.00  0.00    +0.000 C 
ENDBRANCH  15  16
ENDBRANCH  13  15
ENDBRANCH  12  13
ENDBRANCH   9  12
ENDBRANCH   4   6
BRANCH   1  20
ATOM     20  C   UNL     1       4.502   6.344  -0.256  0.00  0.00    +0.000 C 
BRANCH  20  21
ATOM     21  N   UNL     1       4.348   6.185  -1.772  0.00  0.00    +0.000 NA
BRANCH  21  22
ATOM     22  C   UNL     1       4.891   7.435  -2.486  0.00  0.00    +0.000 C 
ATOM     23  C   UNL     1       4.340   7.648  -3.902  0.00  0.00    +0.000 C 
ATOM     24  C   UNL     1       4.675   9.106  -4.219  0.00  0.00    +0.000 C 
ATOM     25  C   UNL     1       4.651   9.833  -2.882  0.00  0.00    +0.000 C 
ATOM     26  C   UNL     1       4.472   8.752  -1.823  0.00  0.00    +0.000 C 
ENDBRANCH  21  22
BRANCH  21  27
ATOM     27  S   UNL     1       5.158   4.768  -2.422  0.00  0.00    +0.000 S 
ATOM     28  O   UNL     1       6.468   4.713  -1.778  0.00  0.00    +0.000 OA
ATOM     29  O   UNL     1       5.063   4.816  -3.855  0.00  0.00    +0.000 OA
BRANCH  27  33
ATOM     30  C   UNL     1       2.568   1.121  -1.473  0.00  0.00    +0.000 A 
ATOM     31  C   UNL     1       3.894   0.966  -1.936  0.00  0.00    +0.000 A 
ATOM     32  C   UNL     1       4.733   2.077  -2.129  0.00  0.00    +0.000 A 
ATOM     33  C   UNL     1       4.195   3.354  -1.988  0.00  0.00    +0.000 A 
ATOM     34  C   UNL     1       2.890   3.510  -1.527  0.00  0.00    +0.000 A 
ATOM     35  C   UNL     1       2.131   2.400  -1.172  0.00  0.00    +0.000 A 
BRANCH  30  37
ATOM     36  C   UNL     1       0.643   0.060  -0.414  0.00  0.00    +0.000 C 
ATOM     37  O   UNL     1       1.849  -0.015  -1.193  0.00  0.00    +0.000 OA
ENDBRANCH  30  37
ENDBRANCH  27  33
ENDBRANCH  21  27
ENDBRANCH  20  21
ENDBRANCH   1  20
TORSDOF 11
