REMARK  Name = CHEMBL591310
REMARK  7 active torsions:
REMARK  status: ('A' for Active; 'I' for Inactive)
REMARK    1  A    between atoms: C_1  and  O_2
REMARK    2  A    between atoms: O_2  and  C_3
REMARK    3  A    between atoms: C_6  and  N_7
REMARK    4  A    between atoms: C_8  and  C_9
REMARK    5  A    between atoms: C_16  and  O_17
REMARK    6  A    between atoms: O_17  and  C_18
REMARK    7  A    between atoms: C_24  and  C_25
REMARK                            x       y       z     vdW  Elec       q    Type
REMARK                         _______ _______ _______ _____ _____    ______ ____
ROOT
ATOM      1  N   UNL     1       5.509  -4.280   2.111  0.00  0.00    +0.000 N 
ATOM      2  C   UNL     1       5.854  -4.651   3.411  0.00  0.00    +0.000 A 
ATOM      3  C   UNL     1       5.386  -4.096   4.707  0.00  0.00    +0.000 C 
ATOM      4  N   UNL     1       6.597  -5.744   3.363  0.00  0.00    +0.000 NA
ATOM      5  N   UNL     1       6.718  -6.148   2.070  0.00  0.00    +0.000 NA
ATOM      6  C   UNL     1       6.096  -5.273   1.295  0.00  0.00    +0.000 A 
ATOM      7  N   UNL     1       6.107  -5.244  -0.043  0.00  0.00    +0.000 N 
ATOM      8  C   UNL     1       6.585  -4.122  -0.783  0.00  0.00    +0.000 C 
ATOM      9  C   UNL     1       5.598  -4.186  -1.911  0.00  0.00    +0.000 C 
ATOM     10  C   UNL     1       5.579  -5.617  -2.389  0.00  0.00    +0.000 C 
ATOM     11  C   UNL     1       5.750  -6.333  -0.977  0.00  0.00    +0.000 C 
ENDROOT
BRANCH   1  15
ATOM     12  C   UNL     1       3.174  -1.097   0.624  0.00  0.00    +0.000 A 
ATOM     13  C   UNL     1       2.824  -2.394   0.285  0.00  0.00    +0.000 A 
ATOM     14  C   UNL     1       3.582  -3.460   0.805  0.00  0.00    +0.000 A 
ATOM     15  C   UNL     1       4.659  -3.214   1.664  0.00  0.00    +0.000 A 
ATOM     16  C   UNL     1       4.953  -1.883   1.923  0.00  0.00    +0.000 A 
ATOM     17  N   UNL     1       4.241  -0.832   1.412  0.00  0.00    +0.000 NA
BRANCH  12  19
ATOM     18  C   UNL     1       1.138  -0.003   0.092  0.00  0.00    +0.000 C 
ATOM     19  O   UNL     1       2.565   0.010   0.087  0.00  0.00    +0.000 OA
ENDBRANCH  12  19
ENDBRANCH   1  15
BRANCH  10  20
ATOM     20  O   UNL     1       6.678  -5.858  -3.322  0.00  0.00    +0.000 OA
BRANCH  20  21
ATOM     21  C   UNL     1       6.621  -5.367  -4.628  0.00  0.00    +0.000 A 
ATOM     22  C   UNL     1       6.606  -6.342  -5.654  0.00  0.00    +0.000 A 
ATOM     23  C   UNL     1       6.762  -5.986  -7.012  0.00  0.00    +0.000 A 
ATOM     24  C   UNL     1       6.970  -4.665  -7.362  0.00  0.00    +0.000 A 
ATOM     25  F   UNL     1       7.155  -4.303  -8.637  0.00  0.00    +0.000 F 
ATOM     26  C   UNL     1       6.999  -3.696  -6.391  0.00  0.00    +0.000 A 
ATOM     27  C   UNL     1       6.837  -4.016  -5.031  0.00  0.00    +0.000 A 
ATOM     28  C   UNL     1       6.902  -2.772  -4.199  0.00  0.00    +0.000 C 
ENDBRANCH  20  21
ENDBRANCH  10  20
TORSDOF 4
