REMARK  Name = CHEMBL360648
REMARK  8 active torsions:
REMARK  status: ('A' for Active; 'I' for Inactive)
REMARK    1  A    between atoms: C_1  and  C_2
REMARK    2  A    between atoms: C_4  and  C_5
REMARK    3  A    between atoms: N_12  and  C_13
REMARK    4  A    between atoms: C_24  and  C_25
REMARK    5  A    between atoms: C_25  and  N_26
REMARK    6  A    between atoms: C_33  and  C_34
REMARK    7  A    between atoms: C_34  and  N_36
REMARK    8  A    between atoms: N_40  and  C_41
REMARK                            x       y       z     vdW  Elec       q    Type
REMARK                         _______ _______ _______ _____ _____    ______ ____
ROOT
ATOM      1  C   UNL     1       2.459  -0.332  -0.006  0.00  0.00    +0.000 C 
ATOM      2  C   UNL     1       0.980  -0.092  -0.022  0.00  0.00    +0.000 A 
ATOM      3  C   UNL     1       0.154  -1.243  -0.055  0.00  0.00    +0.000 A 
ATOM      4  C   UNL     1      -1.249  -1.157  -0.097  0.00  0.00    +0.000 A 
ATOM      5  C   UNL     1      -1.812   0.106  -0.024  0.00  0.00    +0.000 A 
ATOM      6  C   UNL     1      -1.011   1.257  -0.009  0.00  0.00    +0.000 A 
ATOM      7  C   UNL     1       0.404   1.200  -0.031  0.00  0.00    +0.000 A 
ENDROOT
BRANCH   4   8
ATOM      8  C   UNL     1      -2.079  -2.407  -0.103  0.00  0.00    +0.000 C 
ATOM      9  O   UNL     1      -1.431  -3.456  -0.080  0.00  0.00    +0.000 OA
ATOM     10  N   UNL     1      -3.492  -2.305   0.038  0.00  0.00    +0.000 N 
ATOM     11  C   UNL     1      -4.336  -1.629  -1.003  0.00  0.00    +0.000 C 
ATOM     12  C   UNL     1      -5.262  -0.580  -0.455  0.00  0.00    +0.000 A 
ATOM     13  C   UNL     1      -5.683   0.683  -0.973  0.00  0.00    +0.000 A 
ATOM     14  N   UNL     1      -6.562   1.321  -0.181  0.00  0.00    +0.000 NA
ATOM     15  N   UNL     1      -6.726   0.468   0.844  0.00  0.00    +0.000 N 
ATOM     16  C   UNL     1      -7.618   0.755   1.949  0.00  0.00    +0.000 C 
ATOM     17  C   UNL     1      -5.953  -0.659   0.726  0.00  0.00    +0.000 A 
ATOM     18  N   UNL     1      -5.982  -1.590   1.684  0.00  0.00    +0.000 N 
ATOM     19  C   UNL     1      -5.240  -2.775   1.793  0.00  0.00    +0.000 A 
ATOM     20  C   UNL     1      -5.644  -3.583   2.889  0.00  0.00    +0.000 A 
ATOM     21  C   UNL     1      -5.050  -4.799   3.176  0.00  0.00    +0.000 A 
ATOM     22  C   UNL     1      -4.045  -5.251   2.349  0.00  0.00    +0.000 A 
ATOM     23  C   UNL     1      -3.609  -4.457   1.281  0.00  0.00    +0.000 A 
ATOM     24  C   UNL     1      -4.156  -3.190   0.988  0.00  0.00    +0.000 A 
ATOM     25  H   UNL     1      -6.642  -1.487   2.445  0.00  0.00    +0.000 HD
ENDBRANCH   4   8
BRANCH   7  26
ATOM     26  C   UNL     1       1.156   2.548  -0.043  0.00  0.00    +0.000 C 
BRANCH  26  27
ATOM     27  N   UNL     1       2.614   2.516  -0.231  0.00  0.00    +0.000 N 
ATOM     28  C   UNL     1       3.479   3.538   0.037  0.00  0.00    +0.000 C 
ATOM     29  O   UNL     1       3.088   4.658   0.367  0.00  0.00    +0.000 OA
ATOM     30  N   UNL     1       4.821   3.145   0.024  0.00  0.00    +0.000 N 
ATOM     31  C   UNL     1       5.456   2.095  -0.774  0.00  0.00    +0.000 C 
ATOM     32  C   UNL     1       6.586   1.605   0.113  0.00  0.00    +0.000 C 
ATOM     33  C   UNL     1       7.076   2.898   0.743  0.00  0.00    +0.000 C 
ATOM     34  C   UNL     1       5.860   3.859   0.792  0.00  0.00    +0.000 C 
ATOM     35  H   UNL     1       3.082   1.693   0.060  0.00  0.00    +0.000 HD
BRANCH  34  36
ATOM     36  C   UNL     1       6.285   5.285   0.297  0.00  0.00    +0.000 C 
ATOM     37  S   UNL     1       5.729   5.947  -1.156  0.00  0.00    +0.000 S 
BRANCH  36  38
ATOM     38  N   UNL     1       7.147   5.994   1.157  0.00  0.00    +0.000 N 
ATOM     39  C   UNL     1       6.759   7.333   1.604  0.00  0.00    +0.000 C 
ATOM     40  C   UNL     1       7.546   8.488   0.982  0.00  0.00    +0.000 C 
ATOM     41  C   UNL     1       8.982   8.532   1.512  0.00  0.00    +0.000 C 
ATOM     42  N   UNL     1       9.955   7.773   0.715  0.00  0.00    +0.000 NA
ATOM     43  C   UNL     1      10.417   8.585  -0.416  0.00  0.00    +0.000 C 
ATOM     44  C   UNL     1       9.446   6.474   0.225  0.00  0.00    +0.000 C 
ATOM     45  C   UNL     1       8.592   5.690   1.251  0.00  0.00    +0.000 C 
ENDBRANCH  36  38
ENDBRANCH  34  36
ENDBRANCH  26  27
ENDBRANCH   7  26
TORSDOF 5
