REMARK  Name = CHEMBL196974
REMARK  7 active torsions:
REMARK  status: ('A' for Active; 'I' for Inactive)
REMARK    1  A    between atoms: C_1  and  C_2
REMARK    2  A    between atoms: C_8  and  N_9
REMARK    3  A    between atoms: C_10  and  C_12
REMARK    4  A    between atoms: C_12  and  N_13
REMARK    5  A    between atoms: N_13  and  C_14
REMARK    6  A    between atoms: N_13  and  S_21
REMARK    7  A    between atoms: S_21  and  C_24
REMARK                            x       y       z     vdW  Elec       q    Type
REMARK                         _______ _______ _______ _____ _____    ______ ____
ROOT
ATOM      1  N   UNL     1      -1.159   6.062  -0.156  0.00  0.00    +0.000 N 
ENDROOT
BRANCH   1   2
ATOM      2  C   UNL     1       0.207   5.665   0.007  0.00  0.00    +0.000 A 
ATOM      3  C   UNL     1       0.786   4.922  -1.026  0.00  0.00    +0.000 A 
ATOM      4  C   UNL     1       2.133   4.543  -0.964  0.00  0.00    +0.000 A 
ATOM      5  C   UNL     1       2.934   4.991   0.079  0.00  0.00    +0.000 A 
ATOM      6 CL   UNL     1       4.601   4.576   0.110  0.00  0.00    +0.000 Cl
ATOM      7  C   UNL     1       2.383   5.776   1.089  0.00  0.00    +0.000 A 
ATOM      8  C   UNL     1       1.000   6.041   1.104  0.00  0.00    +0.000 A 
ENDBRANCH   1   2
BRANCH   1   9
ATOM      9  S   UNL     1      -1.628   7.710  -0.162  0.00  0.00    +0.000 S 
ATOM     10  O   UNL     1      -2.378   7.915  -1.387  0.00  0.00    +0.000 OA
ATOM     11  O   UNL     1      -2.271   7.952   1.117  0.00  0.00    +0.000 OA
BRANCH   9  12
ATOM     12  C   UNL     1      -0.229   8.859  -0.237  0.00  0.00    +0.000 A 
ATOM     13  C   UNL     1       1.094   8.455  -0.350  0.00  0.00    +0.000 A 
ATOM     14  C   UNL     1       2.157   9.257   0.057  0.00  0.00    +0.000 A 
ATOM     15  C   UNL     1       1.937  10.606   0.225  0.00  0.00    +0.000 A 
ATOM     16  C   UNL     1       0.641  11.103   0.071  0.00  0.00    +0.000 A 
ATOM     17  C   UNL     1      -0.452  10.228  -0.083  0.00  0.00    +0.000 A 
ENDBRANCH   9  12
ENDBRANCH   1   9
BRANCH   1  18
ATOM     18  C   UNL     1      -2.268   5.011  -0.062  0.00  0.00    +0.000 C 
BRANCH  18  20
ATOM     19  N   UNL     1      -2.280   2.436  -0.129  0.00  0.00    +0.000 N 
ATOM     20  C   UNL     1      -1.765   3.614   0.400  0.00  0.00    +0.000 C 
ATOM     21  O   UNL     1      -0.947   3.576   1.327  0.00  0.00    +0.000 OA
ATOM     22  H   UNL     1      -3.291   2.417  -0.247  0.00  0.00    +0.000 HD
BRANCH  19  30
ATOM     23  C   UNL     1       0.785   1.971   0.021  0.00  0.00    +0.000 C 
ATOM     24  C   UNL     1      -0.230   0.882   0.033  0.00  0.00    +0.000 A 
ATOM     25  C   UNL     1       0.276  -0.439   0.043  0.00  0.00    +0.000 A 
ATOM     26 CL   UNL     1       1.975  -0.807   0.035  0.00  0.00    +0.000 Cl
ATOM     27  C   UNL     1      -0.580  -1.524   0.027  0.00  0.00    +0.000 A 
ATOM     28  C   UNL     1      -1.951  -1.310   0.001  0.00  0.00    +0.000 A 
ATOM     29  C   UNL     1      -2.477  -0.005  -0.035  0.00  0.00    +0.000 A 
ATOM     30  C   UNL     1      -1.639   1.126  -0.017  0.00  0.00    +0.000 A 
ENDBRANCH  19  30
ENDBRANCH  18  20
ENDBRANCH   1  18
TORSDOF 6
