REMARK  Name = CHEMBL592733
REMARK  9 active torsions:
REMARK  status: ('A' for Active; 'I' for Inactive)
REMARK    1  A    between atoms: C_1  and  O_2
REMARK    2  A    between atoms: O_2  and  C_3
REMARK    3  A    between atoms: C_3  and  C_4
REMARK    4  A    between atoms: C_11  and  O_12
REMARK    5  A    between atoms: O_12  and  C_13
REMARK    6  A    between atoms: C_18  and  C_19
REMARK    7  A    between atoms: N_21  and  C_22
REMARK    8  A    between atoms: C_25  and  O_26
REMARK    9  A    between atoms: O_26  and  C_27
REMARK                            x       y       z     vdW  Elec       q    Type
REMARK                         _______ _______ _______ _____ _____    ______ ____
ROOT
ATOM      1  C   UNL     1       4.634   1.116  -0.789  0.00  0.00    +0.000 A 
ATOM      2  N   UNL     1       5.494   2.121  -0.746  0.00  0.00    +0.000 NA
ATOM      3  N   UNL     1       6.776   1.603  -0.669  0.00  0.00    +0.000 NA
ATOM      4  C   UNL     1       6.709   0.282  -0.721  0.00  0.00    +0.000 A 
ATOM      5  N   UNL     1       7.732  -0.618  -0.802  0.00  0.00    +0.000 N 
ATOM      6  C   UNL     1       7.821  -1.681  -1.784  0.00  0.00    +0.000 C 
ATOM      7  C   UNL     1       8.270  -2.873  -0.967  0.00  0.00    +0.000 C 
ATOM      8  C   UNL     1       9.289  -2.279   0.016  0.00  0.00    +0.000 C 
ATOM      9  C   UNL     1       8.713  -0.838   0.270  0.00  0.00    +0.000 C 
ATOM     10  N   UNL     1       5.359  -0.059  -0.780  0.00  0.00    +0.000 N 
ENDROOT
BRANCH  10  11
ATOM     11  C   UNL     1       4.837  -1.354  -0.771  0.00  0.00    +0.000 A 
ATOM     12  C   UNL     1       4.026  -1.780  -1.811  0.00  0.00    +0.000 A 
ATOM     13  C   UNL     1       3.595  -3.096  -1.792  0.00  0.00    +0.000 A 
ATOM     14  C   UNL     1       3.981  -3.922  -0.737  0.00  0.00    +0.000 A 
ATOM     15  N   UNL     1       4.753  -3.496   0.286  0.00  0.00    +0.000 NA
ATOM     16  C   UNL     1       5.167  -2.214   0.258  0.00  0.00    +0.000 A 
BRANCH  14  17
ATOM     17  O   UNL     1       3.643  -5.240  -0.627  0.00  0.00    +0.000 OA
ATOM     18  C   UNL     1       2.846  -5.763  -1.677  0.00  0.00    +0.000 C 
ENDBRANCH  14  17
ENDBRANCH  10  11
BRANCH   1  19
ATOM     19  C   UNL     1       3.131   1.222  -0.788  0.00  0.00    +0.000 C 
BRANCH  19  21
ATOM     20  C   UNL     1       1.153   0.101  -0.063  0.00  0.00    +0.000 C 
ATOM     21  O   UNL     1       2.575   0.154  -0.012  0.00  0.00    +0.000 OA
ENDBRANCH  19  21
ENDBRANCH   1  19
BRANCH   8  22
ATOM     22  O   UNL     1       9.406  -3.031   1.240  0.00  0.00    +0.000 OA
BRANCH  22  23
ATOM     23  C   UNL     1       9.907  -4.315   1.185  0.00  0.00    +0.000 A 
ATOM     24  C   UNL     1      10.290  -4.963   0.006  0.00  0.00    +0.000 A 
ATOM     25  C   UNL     1      10.663  -6.308  -0.006  0.00  0.00    +0.000 A 
ATOM     26  C   UNL     1      10.747  -7.012   1.183  0.00  0.00    +0.000 A 
ATOM     27  C   UNL     1      10.446  -6.369   2.382  0.00  0.00    +0.000 A 
ATOM     28  C   UNL     1      10.013  -5.026   2.397  0.00  0.00    +0.000 A 
ATOM     29  C   UNL     1       9.686  -4.391   3.720  0.00  0.00    +0.000 C 
ENDBRANCH  22  23
ENDBRANCH   8  22
TORSDOF 6
