REMARK  Name = CHEMBL363910
REMARK  3 active torsions:
REMARK  status: ('A' for Active; 'I' for Inactive)
REMARK    1  A    between atoms: C_1  and  C_2
REMARK    2  A    between atoms: N_5  and  C_6
REMARK    3  A    between atoms: C_9  and  C_10
REMARK                            x       y       z     vdW  Elec       q    Type
REMARK                         _______ _______ _______ _____ _____    ______ ____
ROOT
ATOM      1  C   UNL     1       9.010  -4.836   0.235  0.00  0.00    +0.000 C 
ATOM      2  O   UNL     1       9.226  -5.147  -0.912  0.00  0.00    +0.000 OA
ATOM      3  N   UNL     1       9.877  -5.374   1.339  0.00  0.00    +0.000 N 
ATOM      4  C   UNL     1      11.179  -4.694   1.254  0.00  0.00    +0.000 C 
ATOM      5  C   UNL     1      11.904  -4.603   2.545  0.00  0.00    +0.000 A 
ATOM      6  C   UNL     1      12.294  -3.457   3.195  0.00  0.00    +0.000 A 
ATOM      7  C   UNL     1      13.079  -3.831   4.301  0.00  0.00    +0.000 A 
ATOM      8  C   UNL     1      13.182  -5.206   4.290  0.00  0.00    +0.000 A 
ATOM      9  N   UNL     1      12.456  -5.678   3.218  0.00  0.00    +0.000 N 
ATOM     10  C   UNL     1      12.352  -7.092   2.855  0.00  0.00    +0.000 C 
ATOM     11  C   UNL     1      11.549  -7.316   1.587  0.00  0.00    +0.000 A 
ATOM     12  C   UNL     1      12.261  -7.364   0.367  0.00  0.00    +0.000 A 
ATOM     13  C   UNL     1      11.521  -7.317  -0.814  0.00  0.00    +0.000 A 
ATOM     14  C   UNL     1      10.188  -7.710  -0.765  0.00  0.00    +0.000 A 
ATOM     15  C   UNL     1       9.552  -7.727   0.473  0.00  0.00    +0.000 A 
ATOM     16  C   UNL     1      10.177  -6.952   1.435  0.00  0.00    +0.000 A 
ENDROOT
BRANCH   1  20
ATOM     17  C   UNL     1       5.760  -1.670   0.165  0.00  0.00    +0.000 A 
ATOM     18  C   UNL     1       5.936  -2.627  -0.828  0.00  0.00    +0.000 A 
ATOM     19  C   UNL     1       7.023  -3.560  -0.753  0.00  0.00    +0.000 A 
ATOM     20  C   UNL     1       7.936  -3.671   0.351  0.00  0.00    +0.000 A 
ATOM     21  C   UNL     1       7.768  -2.648   1.297  0.00  0.00    +0.000 A 
ATOM     22 CL   UNL     1       8.850  -2.450   2.622  0.00  0.00    +0.000 Cl
ATOM     23  C   UNL     1       6.714  -1.649   1.196  0.00  0.00    +0.000 A 
BRANCH  17  28
ATOM     24  C   UNL     1       1.117  -0.072   0.076  0.00  0.00    +0.000 C 
ATOM     25  C   UNL     1       2.613  -0.048   0.067  0.00  0.00    +0.000 A 
ATOM     26  C   UNL     1       3.422   1.105   0.131  0.00  0.00    +0.000 A 
ATOM     27  C   UNL     1       4.713   0.631   0.186  0.00  0.00    +0.000 A 
ATOM     28  N   UNL     1       4.655  -0.747   0.113  0.00  0.00    +0.000 N 
ATOM     29  N   UNL     1       3.358  -1.166  -0.030  0.00  0.00    +0.000 NA
ENDBRANCH  17  28
ENDBRANCH   1  20
TORSDOF 2
