REMARK  Name = CHEMBL200682
REMARK  9 active torsions:
REMARK  status: ('A' for Active; 'I' for Inactive)
REMARK    1  A    between atoms: C_1  and  O_2
REMARK    2  A    between atoms: O_2  and  C_3
REMARK    3  A    between atoms: C_6  and  N_7
REMARK    4  A    between atoms: N_7  and  C_8
REMARK    5  A    between atoms: N_7  and  S_20
REMARK    6  A    between atoms: C_8  and  C_9
REMARK    7  A    between atoms: N_11  and  C_12
REMARK    8  A    between atoms: C_18  and  C_19
REMARK    9  A    between atoms: S_20  and  C_23
REMARK                            x       y       z     vdW  Elec       q    Type
REMARK                         _______ _______ _______ _____ _____    ______ ____
ROOT
ATOM      1  N   UNL     1       5.239   2.973  -3.910  0.00  0.00    +0.000 N 
ENDROOT
BRANCH   1   5
ATOM      2  C   UNL     1       2.994   0.753  -0.905  0.00  0.00    +0.000 A 
ATOM      3  C   UNL     1       4.184   0.298  -1.398  0.00  0.00    +0.000 A 
ATOM      4  C   UNL     1       4.986   1.178  -2.130  0.00  0.00    +0.000 A 
ATOM      5  C   UNL     1       4.483   2.295  -2.803  0.00  0.00    +0.000 A 
ATOM      6  C   UNL     1       3.290   2.765  -2.252  0.00  0.00    +0.000 A 
ATOM      7  C   UNL     1       2.591   2.032  -1.265  0.00  0.00    +0.000 A 
BRANCH   2   9
ATOM      8  C   UNL     1       1.019   0.003   0.062  0.00  0.00    +0.000 C 
ATOM      9  O   UNL     1       2.433  -0.037   0.052  0.00  0.00    +0.000 OA
ENDBRANCH   2   9
ENDBRANCH   1   5
BRANCH   1  10
ATOM     10  S   UNL     1       4.486   4.374  -4.592  0.00  0.00    +0.000 S 
ATOM     11  O   UNL     1       3.158   4.055  -5.078  0.00  0.00    +0.000 OA
ATOM     12  O   UNL     1       4.653   5.393  -3.568  0.00  0.00    +0.000 OA
BRANCH  10  13
ATOM     13  C   UNL     1       5.374   5.001  -6.019  0.00  0.00    +0.000 A 
ATOM     14  C   UNL     1       6.112   4.218  -6.904  0.00  0.00    +0.000 A 
ATOM     15  C   UNL     1       6.954   4.775  -7.855  0.00  0.00    +0.000 A 
ATOM     16  C   UNL     1       6.878   6.131  -8.102  0.00  0.00    +0.000 A 
ATOM     17  C   UNL     1       6.039   6.928  -7.324  0.00  0.00    +0.000 A 
ATOM     18  C   UNL     1       5.311   6.376  -6.264  0.00  0.00    +0.000 A 
ENDBRANCH  10  13
ENDBRANCH   1  10
BRANCH   1  19
ATOM     19  C   UNL     1       6.319   2.281  -4.727  0.00  0.00    +0.000 C 
BRANCH  19  20
ATOM     20  C   UNL     1       6.617   0.841  -4.514  0.00  0.00    +0.000 C 
ATOM     21  O   UNL     1       5.602   0.250  -4.303  0.00  0.00    +0.000 OA
ATOM     22  N   UNL     1       7.808   0.182  -4.688  0.00  0.00    +0.000 N 
ATOM     23  H   UNL     1       8.490   0.534  -5.355  0.00  0.00    +0.000 HD
BRANCH  22  24
ATOM     24  C   UNL     1       7.998  -1.197  -4.275  0.00  0.00    +0.000 A 
ATOM     25  C   UNL     1       9.336  -1.624  -4.193  0.00  0.00    +0.000 A 
ATOM     26  C   UNL     1       9.657  -2.951  -3.854  0.00  0.00    +0.000 A 
ATOM     27  C   UNL     1       8.662  -3.852  -3.502  0.00  0.00    +0.000 A 
ATOM     28 CL   UNL     1       9.037  -5.448  -2.997  0.00  0.00    +0.000 Cl
ATOM     29  C   UNL     1       7.345  -3.456  -3.532  0.00  0.00    +0.000 A 
ATOM     30  C   UNL     1       6.993  -2.156  -3.925  0.00  0.00    +0.000 A 
ATOM     31  C   UNL     1       5.503  -1.977  -3.867  0.00  0.00    +0.000 C 
ENDBRANCH  22  24
ENDBRANCH  19  20
ENDBRANCH   1  19
TORSDOF 7
