REMARK  Name = CHEMBL1790937
REMARK  8 active torsions:
REMARK  status: ('A' for Active; 'I' for Inactive)
REMARK    1  A    between atoms: CD1_1  and  CG1_2
REMARK    2  A    between atoms: CG1_2  and  CB_3
REMARK    3  A    between atoms: CB_3  and  CG2_4
REMARK    4  A    between atoms: CB_3  and  CA_5
REMARK    5  A    between atoms: CA_9  and  CB_10
REMARK    6  A    between atoms: CB_10  and  CG_11
REMARK    7  A    between atoms: CA_30  and  CB_31
REMARK    8  A    between atoms: CB_31  and  CG_32
REMARK                            x       y       z     vdW  Elec       q    Type
REMARK                         _______ _______ _______ _____ _____    ______ ____
ROOT
ATOM      1  CA  ILE A   1       4.540  -0.265   1.292  0.00  0.00    +0.000 C 
ATOM      2  N   ILE A   1       5.293   0.314   2.403  0.00  0.00    +0.000 N 
ATOM      3  C   TRP A   6       5.512  -0.210   3.662  0.00  0.00    +0.000 C 
ATOM      4  O   TRP A   6       5.037  -1.266   4.060  0.00  0.00    +0.000 OA
ATOM      5  CA  TRP A   6       6.580   0.552   4.519  0.00  0.00    +0.000 C 
ATOM      6  N   TRP A   6       7.140  -0.425   5.605  0.00  0.00    +0.000 N 
ATOM      7  C   PRO A   5       8.536  -0.692   5.762  0.00  0.00    +0.000 C 
ATOM      8  O   PRO A   5       9.124   0.311   6.257  0.00  0.00    +0.000 OA
ATOM      9  CA  PRO A   5       9.368  -1.889   4.377  0.00  0.00    +0.000 C 
ATOM     10  CB  PRO A   5       9.547  -0.786   2.871  0.00  0.00    +0.000 C 
ATOM     11  CG  PRO A   5       8.600  -0.749   3.747  0.00  0.00    +0.000 C 
ATOM     12  CD  PRO A   5      10.399  -0.805   4.554  0.00  0.00    +0.000 C 
ATOM     13  N   PRO A   5      10.736  -2.114   4.285  0.00  0.00    +0.000 N 
ATOM     14  C   HIS A   4      11.517  -2.459   3.083  0.00  0.00    +0.000 C 
ATOM     15  O   HIS A   4      12.031  -3.587   3.043  0.00  0.00    +0.000 OA
ATOM     16  CA  HIS A   4      11.703  -1.559   1.622  0.00  0.00    +0.000 C 
ATOM     17  N   HIS A   4      11.879  -2.481   0.335  0.00  0.00    +0.000 N 
ATOM     18  C   LYS A   3      11.381  -2.237  -0.979  0.00  0.00    +0.000 C 
ATOM     19  O   LYS A   3      12.059  -1.411  -1.619  0.00  0.00    +0.000 OA
ATOM     20  CA  LYS A   3       9.647  -2.596  -1.536  0.00  0.00    +0.000 C 
ATOM     21  CB  LYS A   3       8.496  -3.006  -0.589  0.00  0.00    +0.000 C 
ATOM     22  CG  LYS A   3       9.290  -3.697   0.377  0.00  0.00    +0.000 C 
ATOM     23  CD  LYS A   3       9.137  -2.319   0.921  0.00  0.00    +0.000 C 
ATOM     24  CE  LYS A   3       9.476  -0.816  -0.309  0.00  0.00    +0.000 C 
ATOM     25  N   LYS A   3       9.122  -1.273  -1.615  0.00  0.00    +0.000 N 
ATOM     26  C   LYS A   2       7.773  -1.123  -1.946  0.00  0.00    +0.000 C 
ATOM     27  O   LYS A   2       7.280  -1.931  -2.722  0.00  0.00    +0.000 OA
ATOM     28  CA  LYS A   2       6.979   0.073  -0.859  0.00  0.00    +0.000 C 
ATOM     29  CB  LYS A   2       6.927   1.488  -1.359  0.00  0.00    +0.000 C 
ATOM     30  CG  LYS A   2       7.857   1.403  -2.488  0.00  0.00    +0.000 C 
ATOM     31  CD  LYS A   2       6.595   1.032  -3.301  0.00  0.00    +0.000 C 
ATOM     32  CE  LYS A   2       5.400  -0.145  -2.376  0.00  0.00    +0.000 C 
ATOM     33  N   LYS A   2       5.618  -0.212  -0.890  0.00  0.00    +0.000 N 
ATOM     34  C   ILE A   1       4.934   0.564   0.078  0.00  0.00    +0.000 C 
ATOM     35  O   ILE A   1       4.735   1.763   0.046  0.00  0.00    +0.000 OA
ATOM     36  H   ILE A   1       5.477   1.301   2.265  0.00  0.00    +0.000 HD
ATOM     37  H   TRP A   6       6.622  -1.289   5.602  0.00  0.00    +0.000 HD
ATOM     38  H   HIS A   4      11.862  -3.455   0.596  0.00  0.00    +0.000 HD
ENDROOT
BRANCH   1  39
ATOM     39  CB  ILE A   1       3.015  -0.156   1.310  0.00  0.00    +0.000 C 
ATOM     40  CG2 ILE A   1       2.432  -1.158   2.284  0.00  0.00    +0.000 C 
BRANCH  39  42
ATOM     41  CD1 ILE A   1       0.858  -0.028  -0.028  0.00  0.00    +0.000 C 
ATOM     42  CG1 ILE A   1       2.363  -0.163  -0.083  0.00  0.00    +0.000 C 
ENDBRANCH  39  42
ENDBRANCH   1  39
BRANCH   5  43
ATOM     43  CB  TRP A   6       6.556   1.997   4.920  0.00  0.00    +0.000 C 
BRANCH  43  44
ATOM     44  CG  TRP A   6       5.948   2.914   3.906  0.00  0.00    +0.000 A 
ATOM     45  CD1 TRP A   6       6.564   3.890   3.145  0.00  0.00    +0.000 A 
ATOM     46  NE1 TRP A   6       5.619   4.428   2.304  0.00  0.00    +0.000 N 
ATOM     47  CE2 TRP A   6       4.410   3.789   2.474  0.00  0.00    +0.000 A 
ATOM     48  CZ2 TRP A   6       3.205   3.889   1.764  0.00  0.00    +0.000 A 
ATOM     49  CH2 TRP A   6       2.154   3.040   2.135  0.00  0.00    +0.000 A 
ATOM     50  CZ3 TRP A   6       2.284   2.146   3.194  0.00  0.00    +0.000 A 
ATOM     51  CE3 TRP A   6       3.496   2.039   3.862  0.00  0.00    +0.000 A 
ATOM     52  CD2 TRP A   6       4.570   2.891   3.524  0.00  0.00    +0.000 A 
ATOM     53  HE1 TRP A   6       5.775   5.188   1.655  0.00  0.00    +0.000 HD
ENDBRANCH  43  44
ENDBRANCH   5  43
BRANCH  16  54
ATOM     54  CB  HIS A   4      12.292  -0.143   1.511  0.00  0.00    +0.000 C 
BRANCH  54  55
ATOM     55  CG  HIS A   4      12.012   0.916   2.549  0.00  0.00    +0.000 A 
ATOM     56  CD2 HIS A   4      11.255   2.078   2.503  0.00  0.00    +0.000 A 
ATOM     57  NE2 HIS A   4      11.212   2.547   3.797  0.00  0.00    +0.000 N 
ATOM     58  CE1 HIS A   4      11.914   1.673   4.563  0.00  0.00    +0.000 A 
ATOM     59  ND1 HIS A   4      12.598   0.848   3.792  0.00  0.00    +0.000 NA
ATOM     60  HE2 HIS A   4      10.787   3.394   4.146  0.00  0.00    +0.000 HD
ENDBRANCH  54  55
ENDBRANCH  16  54
TORSDOF 6
