REMARK  Name = CHEMBL491422
REMARK  11 active torsions:
REMARK  status: ('A' for Active; 'I' for Inactive)
REMARK    1  A    between atoms: C_1  and  C_2
REMARK    2  A    between atoms: C_2  and  O_3
REMARK    3  A    between atoms: O_3  and  C_4
REMARK    4  A    between atoms: C_7  and  C_8
REMARK    5  A    between atoms: C_11  and  C_12
REMARK    6  A    between atoms: C_12  and  O_13
REMARK    7  A    between atoms: O_13  and  C_14
REMARK    8  A    between atoms: N_15  and  C_16
REMARK    9  A    between atoms: C_19  and  O_20
REMARK   10  A    between atoms: O_20  and  C_21
REMARK   11  A    between atoms: C_25  and  C_26
REMARK                            x       y       z     vdW  Elec       q    Type
REMARK                         _______ _______ _______ _____ _____    ______ ____
ROOT
ATOM      1  C   UNL     1       8.637  -2.252  -1.095  0.00  0.00    +0.000 A 
ATOM      2  N   UNL     1       9.517  -1.768  -1.958  0.00  0.00    +0.000 NA
ATOM      3  N   UNL     1      10.766  -2.278  -1.652  0.00  0.00    +0.000 NA
ATOM      4  C   UNL     1      10.651  -3.099  -0.618  0.00  0.00    +0.000 A 
ATOM      5  N   UNL     1       9.323  -3.075  -0.212  0.00  0.00    +0.000 N 
ENDROOT
BRANCH   1   9
ATOM      6  C   UNL     1       4.390  -1.448  -0.685  0.00  0.00    +0.000 A 
ATOM      7  C   UNL     1       4.921  -1.948  -1.888  0.00  0.00    +0.000 A 
ATOM      8  C   UNL     1       6.306  -2.174  -2.051  0.00  0.00    +0.000 A 
ATOM      9  C   UNL     1       7.195  -1.933  -1.001  0.00  0.00    +0.000 A 
ATOM     10  C   UNL     1       6.652  -1.454   0.205  0.00  0.00    +0.000 A 
ATOM     11  C   UNL     1       5.266  -1.226   0.387  0.00  0.00    +0.000 A 
ATOM     12  C   UNL     1       4.818  -0.800   1.755  0.00  0.00    +0.000 C 
BRANCH   6  13
ATOM     13  O   UNL     1       3.017  -1.337  -0.642  0.00  0.00    +0.000 OA
BRANCH  13  15
ATOM     14  C   UNL     1       0.971  -0.130  -0.099  0.00  0.00    +0.000 C 
ATOM     15  C   UNL     1       2.491  -0.130  -0.076  0.00  0.00    +0.000 C 
ENDBRANCH  13  15
ENDBRANCH   6  13
ENDBRANCH   1   9
BRANCH   5  16
ATOM     16  C   UNL     1       8.731  -3.871   0.784  0.00  0.00    +0.000 A 
ATOM     17  C   UNL     1       7.777  -4.804   0.413  0.00  0.00    +0.000 A 
ATOM     18  C   UNL     1       7.399  -5.753   1.352  0.00  0.00    +0.000 A 
ATOM     19  C   UNL     1       7.970  -5.716   2.622  0.00  0.00    +0.000 A 
ATOM     20  N   UNL     1       8.844  -4.762   3.010  0.00  0.00    +0.000 NA
ATOM     21  C   UNL     1       9.216  -3.855   2.081  0.00  0.00    +0.000 A 
BRANCH  19  22
ATOM     22  O   UNL     1       7.736  -6.647   3.597  0.00  0.00    +0.000 OA
ATOM     23  C   UNL     1       6.765  -7.634   3.285  0.00  0.00    +0.000 C 
ENDBRANCH  19  22
ENDBRANCH   5  16
BRANCH   4  24
ATOM     24  C   UNL     1      11.753  -3.987  -0.077  0.00  0.00    +0.000 C 
BRANCH  24  25
ATOM     25  O   UNL     1      11.175  -4.970   0.768  0.00  0.00    +0.000 OA
ATOM     26  C   UNL     1      12.046  -5.664   1.639  0.00  0.00    +0.000 C 
ENDBRANCH  24  25
ENDBRANCH   4  24
TORSDOF 7
