REMARK  Name = CHEMBL4218211
REMARK  5 active torsions:
REMARK  status: ('A' for Active; 'I' for Inactive)
REMARK    1  A    between atoms: C_1  and  C_2
REMARK    2  A    between atoms: C_2  and  C_3
REMARK    3  A    between atoms: C_3  and  C_4
REMARK    4  A    between atoms: C_4  and  C_5
REMARK    5  A    between atoms: C_8  and  C_9
REMARK                            x       y       z     vdW  Elec       q    Type
REMARK                         _______ _______ _______ _____ _____    ______ ____
ROOT
ATOM      1  C   UNL     1       7.237  -6.514  -4.624  0.00  0.00    +0.000 C 
ATOM      2  O   UNL     1       6.369  -7.225  -3.865  0.00  0.00    +0.000 OA
ATOM      3  N   UNL     1       8.358  -7.201  -6.145  0.00  0.00    +0.000 N 
ATOM      4  C   UNL     1       7.659  -8.021  -5.238  0.00  0.00    +0.000 C 
ATOM      5  C   UNL     1       8.818  -6.976  -5.721  0.00  0.00    +0.000 C 
ATOM      6  C   UNL     1       8.691  -8.916  -6.302  0.00  0.00    +0.000 C 
ATOM      7  C   UNL     1      10.163  -7.941  -7.432  0.00  0.00    +0.000 C 
ATOM      8  C   UNL     1       9.916  -9.553  -7.839  0.00  0.00    +0.000 A 
ATOM      9  C   UNL     1       9.296 -10.817  -7.842  0.00  0.00    +0.000 A 
ATOM     10  C   UNL     1       9.952 -11.792  -8.468  0.00  0.00    +0.000 A 
ATOM     11  C   UNL     1      10.819 -11.161  -9.223  0.00  0.00    +0.000 A 
ATOM     12  C   UNL     1      10.702  -9.404  -8.703  0.00  0.00    +0.000 A 
ATOM     13  C   UNL     1       9.626  -8.217  -7.603  0.00  0.00    +0.000 A 
ENDROOT
BRANCH   1  17
ATOM     14  C   UNL     1       4.941  -2.491  -1.415  0.00  0.00    +0.000 A 
ATOM     15  C   UNL     1       4.410  -3.751  -1.290  0.00  0.00    +0.000 A 
ATOM     16  C   UNL     1       5.116  -5.061  -2.094  0.00  0.00    +0.000 A 
ATOM     17  C   UNL     1       6.366  -5.219  -3.315  0.00  0.00    +0.000 A 
ATOM     18  C   UNL     1       6.634  -3.844  -3.113  0.00  0.00    +0.000 A 
ATOM     19  C   UNL     1       6.028  -2.558  -2.286  0.00  0.00    +0.000 A 
BRANCH  14  20
ATOM     20  C   UNL     1       4.465  -1.229  -0.714  0.00  0.00    +0.000 C 
BRANCH  20  21
ATOM     21  C   UNL     1       2.943  -1.172  -0.689  0.00  0.00    +0.000 C 
BRANCH  21  23
ATOM     22  C   UNL     1       0.919   0.062   0.009  0.00  0.00    +0.000 C 
ATOM     23  C   UNL     1       2.432   0.068   0.007  0.00  0.00    +0.000 C 
ENDBRANCH  21  23
ENDBRANCH  20  21
ENDBRANCH  14  20
ENDBRANCH   1  17
TORSDOF 4
