REMARK  Name = CHEMBL68800
REMARK  7 active torsions:
REMARK  status: ('A' for Active; 'I' for Inactive)
REMARK    1  A    between atoms: C_1  and  O_2
REMARK    2  A    between atoms: O_2  and  C_3
REMARK    3  A    between atoms: C_5  and  O_6
REMARK    4  A    between atoms: O_6  and  C_7
REMARK    5  A    between atoms: N_10  and  C_11
REMARK    6  A    between atoms: C_27  and  C_28
REMARK    7  A    between atoms: C_33  and  N_34
REMARK                            x       y       z     vdW  Elec       q    Type
REMARK                         _______ _______ _______ _____ _____    ______ ____
ROOT
ATOM      1  C   UNL     1       7.963  -2.311   9.872  0.00  0.00    +0.000 A 
ATOM      2  C   UNL     1       6.959  -1.300   9.539  0.00  0.00    +0.000 A 
ATOM      3  C   UNL     1       6.651  -1.088   8.243  0.00  0.00    +0.000 A 
ATOM      4  C   UNL     1       7.429  -1.952   7.558  0.00  0.00    +0.000 A 
ATOM      5  F   UNL     1       7.388  -1.889   6.292  0.00  0.00    +0.000 F 
ATOM      6  C   UNL     1       8.321  -2.958   7.691  0.00  0.00    +0.000 A 
ATOM      7  C   UNL     1       8.623  -3.173   8.951  0.00  0.00    +0.000 A 
ENDROOT
BRANCH   7   8
ATOM      8  C   UNL     1       9.631  -4.239   9.052  0.00  0.00    +0.000 C 
ATOM      9  O   UNL     1      10.222  -4.725   8.089  0.00  0.00    +0.000 OA
ATOM     10  N   UNL     1       9.883  -4.622  10.313  0.00  0.00    +0.000 N 
ATOM     11  C   UNL     1      11.203  -4.409  10.843  0.00  0.00    +0.000 C 
ATOM     12  C   UNL     1      11.638  -5.702  11.474  0.00  0.00    +0.000 C 
ATOM     13  C   UNL     1      10.591  -6.189  12.503  0.00  0.00    +0.000 C 
ATOM     14  C   UNL     1       9.202  -6.342  11.858  0.00  0.00    +0.000 C 
ATOM     15  C   UNL     1       8.818  -5.077  11.171  0.00  0.00    +0.000 C 
BRANCH  13  16
ATOM     16  N   UNL     1      10.652  -5.388  13.778  0.00  0.00    +0.000 N 
ATOM     17  C   UNL     1      10.478  -4.007  13.869  0.00  0.00    +0.000 C 
ATOM     18  O   UNL     1       9.589  -3.326  13.403  0.00  0.00    +0.000 OA
ATOM     19  O   UNL     1      11.450  -3.378  14.572  0.00  0.00    +0.000 OA
ATOM     20  C   UNL     1      11.300  -3.687  15.935  0.00  0.00    +0.000 C 
ATOM     21  C   UNL     1      11.264  -5.173  16.110  0.00  0.00    +0.000 A 
ATOM     22  C   UNL     1      11.516  -5.705  17.370  0.00  0.00    +0.000 A 
ATOM     23  C   UNL     1      11.470  -7.078  17.552  0.00  0.00    +0.000 A 
ATOM     24  C   UNL     1      11.155  -7.915  16.484  0.00  0.00    +0.000 A 
ATOM     25  C   UNL     1      10.896  -7.388  15.221  0.00  0.00    +0.000 A 
ATOM     26  C   UNL     1      10.960  -6.012  15.018  0.00  0.00    +0.000 A 
ENDBRANCH  13  16
ENDBRANCH   7   8
BRANCH   1  28
ATOM     27  C   UNL     1       7.232  -2.486  11.999  0.00  0.00    +0.000 C 
ATOM     28  O   UNL     1       8.369  -2.340  11.165  0.00  0.00    +0.000 OA
ENDBRANCH   1  28
BRANCH   3  29
ATOM     29  O   UNL     1       5.756  -0.181   7.741  0.00  0.00    +0.000 OA
BRANCH  29  30
ATOM     30  C   UNL     1       5.323  -0.035   6.310  0.00  0.00    +0.000 C 
ATOM     31  C   UNL     1       4.654  -1.296   5.641  0.00  0.00    +0.000 C 
ATOM     32  C   UNL     1       5.634  -2.368   5.275  0.00  0.00    +0.000 C 
ATOM     33  N   UNL     1       6.678  -1.573   4.550  0.00  0.00    +0.000 NA
ATOM     34  C   UNL     1       7.360  -0.263   5.109  0.00  0.00    +0.000 C 
ATOM     35  C   UNL     1       6.316   0.695   5.410  0.00  0.00    +0.000 C 
BRANCH  33  36
ATOM     36  C   UNL     1       7.007  -1.920   3.215  0.00  0.00    +0.000 C 
ATOM     37  C   UNL     1       5.936  -1.174   2.370  0.00  0.00    +0.000 C 
ATOM     38  C   UNL     1       6.609  -0.842   1.069  0.00  0.00    +0.000 C 
ATOM     39  C   UNL     1       7.729   0.161   1.329  0.00  0.00    +0.000 C 
ATOM     40  C   UNL     1       8.738  -0.337   2.323  0.00  0.00    +0.000 A 
ATOM     41  C   UNL     1       8.499  -1.482   3.100  0.00  0.00    +0.000 A 
ATOM     42  C   UNL     1       9.410  -1.752   4.182  0.00  0.00    +0.000 A 
ATOM     43  C   UNL     1      10.383  -0.817   4.567  0.00  0.00    +0.000 A 
ATOM     44  C   UNL     1      10.593   0.285   3.753  0.00  0.00    +0.000 A 
ATOM     45  N   UNL     1       9.799   0.528   2.634  0.00  0.00    +0.000 N 
ATOM     46  O   UNL     1       9.985   1.597   1.966  0.00  0.00    +0.000 OA
ENDBRANCH  33  36
ENDBRANCH  29  30
ENDBRANCH   3  29
TORSDOF 6
