REMARK  Name = CHEMBL1630522
REMARK  23 active torsions:
REMARK  status: ('A' for Active; 'I' for Inactive)
REMARK    1  A    between atoms: C_1  and  C_2
REMARK    2  A    between atoms: C_2  and  C_3
REMARK    3  A    between atoms: C_3  and  C_4
REMARK    4  A    between atoms: C_3  and  C_5
REMARK    5  A    between atoms: C_9  and  C_10
REMARK    6  A    between atoms: C_10  and  C_11
REMARK    7  A    between atoms: C_14  and  O_15
REMARK    8  A    between atoms: C_21  and  N_22
REMARK    9  A    between atoms: C_27  and  C_28
REMARK   10  A    between atoms: C_34  and  C_35
REMARK   11  A    between atoms: N_37  and  C_38
REMARK   12  A    between atoms: C_38  and  C_39
REMARK   13  A    between atoms: C_38  and  N_43
REMARK   14  A    between atoms: C_39  and  C_40
REMARK   15  A    between atoms: C_40  and  C_41
REMARK   16  A    between atoms: C_40  and  C_42
REMARK   17  A    between atoms: N_43  and  C_44
REMARK   18  A    between atoms: C_44  and  C_45
REMARK   19  A    between atoms: C_51  and  C_52
REMARK   20  A    between atoms: C_52  and  C_53
REMARK   21  A    between atoms: C_59  and  C_60
REMARK   22  A    between atoms: C_60  and  C_61
REMARK   23  A    between atoms: C_61  and  C_62
REMARK                            x       y       z     vdW  Elec       q    Type
REMARK                         _______ _______ _______ _____ _____    ______ ____
ROOT
ATOM      1  C   UNL     1       4.447  -1.114  -0.914  0.00  0.00    +0.000 C 
ATOM      2  N   UNL     1       6.677  -3.888 -12.517  0.00  0.00    +0.000 N 
ATOM      3  C   UNL     1       5.653  -3.597 -11.503  0.00  0.00    +0.000 C 
ATOM      4  O   UNL     1       5.368  -4.465 -10.620  0.00  0.00    +0.000 OA
ATOM      5  C   UNL     1       4.935  -2.257 -11.512  0.00  0.00    +0.000 C 
ATOM      6  N   UNL     1       3.492  -2.476 -11.681  0.00  0.00    +0.000 N 
ATOM      7  C   UNL     1       2.748  -3.271 -10.694  0.00  0.00    +0.000 C 
ATOM      8  O   UNL     1       1.500  -3.460 -10.841  0.00  0.00    +0.000 OA
ATOM      9  C   UNL     1       3.471  -3.867  -9.498  0.00  0.00    +0.000 C 
ATOM     10  C   UNL     1       2.864  -3.322  -8.215  0.00  0.00    +0.000 C 
ATOM     11 SE   UNL     1       0.965  -3.802  -8.136  0.00  0.00    +0.000 Se
ATOM     12  S   UNL     1       0.067  -2.995  -6.238  0.00  0.00    +0.000 S 
ATOM     13  C   UNL     1      -1.687  -3.438  -6.164  0.00  0.00    +0.000 C 
ATOM     14  C   UNL     1      -2.294  -2.893  -4.882  0.00  0.00    +0.000 C 
ATOM     15  N   UNL     1      -1.594  -3.470  -3.725  0.00  0.00    +0.000 N 
ATOM     16  C   UNL     1      -0.151  -3.251  -3.555  0.00  0.00    +0.000 C 
ATOM     17  O   UNL     1       0.454  -3.750  -2.555  0.00  0.00    +0.000 OA
ATOM     18  C   UNL     1       0.619  -2.429  -4.576  0.00  0.00    +0.000 C 
ATOM     19  N   UNL     1       1.225  -1.266  -3.912  0.00  0.00    +0.000 N 
ATOM     20  C   UNL     1       2.186  -1.463  -2.818  0.00  0.00    +0.000 C 
ATOM     21  O   UNL     1       2.711  -0.458  -2.244  0.00  0.00    +0.000 OA
ATOM     22  C   UNL     1       2.554  -2.869  -2.373  0.00  0.00    +0.000 C 
ATOM     23  N   UNL     1       3.999  -3.076  -2.544  0.00  0.00    +0.000 N 
ATOM     24  C   UNL     1       4.954  -2.217  -1.830  0.00  0.00    +0.000 C 
ATOM     25  O   UNL     1       6.204  -2.395  -1.979  0.00  0.00    +0.000 OA
ATOM     26  H   UNL     1       7.130  -4.108 -13.363  0.00  0.00    +0.000 HD
ATOM     27  H   UNL     1       3.023  -2.089 -12.456  0.00  0.00    +0.000 HD
ATOM     28  H   UNL     1      -2.093  -4.002  -3.064  0.00  0.00    +0.000 HD
ATOM     29  H   UNL     1       0.987  -0.355  -4.200  0.00  0.00    +0.000 HD
ATOM     30  H   UNL     1       4.327  -3.790  -3.138  0.00  0.00    +0.000 HD
ENDROOT
BRANCH  14  31
ATOM     31  C   UNL     1      -3.767  -3.265  -4.821  0.00  0.00    +0.000 C 
ATOM     32  O   UNL     1      -4.203  -3.974  -3.860  0.00  0.00    +0.000 OA
ATOM     33  N   UNL     1      -4.685  -2.805  -5.872  0.00  0.00    +0.000 N 
ATOM     34  C   UNL     1      -4.406  -2.853  -7.319  0.00  0.00    +0.000 C 
ATOM     35  C   UNL     1      -5.091  -1.608  -7.810  0.00  0.00    +0.000 C 
ATOM     36  C   UNL     1      -6.449  -1.631  -7.045  0.00  0.00    +0.000 C 
ATOM     37  C   UNL     1      -6.083  -2.255  -5.696  0.00  0.00    +0.000 C 
BRANCH  37  38
ATOM     38  C   UNL     1      -7.053  -3.371  -5.346  0.00  0.00    +0.000 C 
ATOM     39  O   UNL     1      -6.635  -4.567  -5.242  0.00  0.00    +0.000 OA
ATOM     40  N   UNL     1      -8.475  -3.068  -5.128  0.00  0.00    +0.000 N 
ATOM     41  H   UNL     1      -8.798  -2.142  -5.208  0.00  0.00    +0.000 HD
BRANCH  40  42
ATOM     42  C   UNL     1      -9.413  -4.148  -4.789  0.00  0.00    +0.000 C 
BRANCH  42  43
ATOM     43  N   UNL     1     -10.763  -3.589  -4.623  0.00  0.00    +0.000 NA
ATOM     44  H   UNL     1     -11.056  -3.144  -5.493  0.00  0.00    +0.000 HD
BRANCH  43  45
ATOM     45  C   UNL     1     -11.701  -4.669  -4.285  0.00  0.00    +0.000 C 
BRANCH  45  46
ATOM     46  C   UNL     1     -13.097  -4.092  -4.113  0.00  0.00    +0.000 C 
ATOM     47  N   UNL     1     -13.323  -2.650  -4.290  0.00  0.00    +0.000 N 
ATOM     48  O   UNL     1     -14.069  -4.856  -3.817  0.00  0.00    +0.000 OA
ATOM     49  H   UNL     1     -12.571  -2.059  -4.520  0.00  0.00    +0.000 HD
ATOM     50  H   UNL     1     -14.227  -2.276  -4.179  0.00  0.00    +0.000 HD
ENDBRANCH  45  46
ENDBRANCH  43  45
ENDBRANCH  42  43
BRANCH  42  51
ATOM     51  C   UNL     1      -8.976  -4.811  -3.494  0.00  0.00    +0.000 C 
BRANCH  51  52
ATOM     52  C   UNL     1      -7.581  -5.388  -3.665  0.00  0.00    +0.000 C 
ATOM     53  C   UNL     1      -6.610  -4.272  -4.015  0.00  0.00    +0.000 C 
ATOM     54  C   UNL     1      -7.144  -6.052  -2.369  0.00  0.00    +0.000 C 
ENDBRANCH  51  52
ENDBRANCH  42  51
ENDBRANCH  40  42
ENDBRANCH  37  38
ENDBRANCH  14  31
BRANCH   9  55
ATOM     55  N   UNL     1       4.895  -3.507  -9.557  0.00  0.00    +0.000 NA
ATOM     56  H   UNL     1       4.990  -2.492  -9.540  0.00  0.00    +0.000 HD
ATOM     57  H   UNL     1       5.303  -3.873 -10.418  0.00  0.00    +0.000 HD
ENDBRANCH   9  55
BRANCH   1  58
ATOM     58  C   UNL     1       2.927  -1.114  -0.914  0.00  0.00    +0.000 C 
ATOM     59  C   UNL     1       2.421  -0.012   0.002  0.00  0.00    +0.000 C 
BRANCH  58  61
ATOM     60  C   UNL     1       1.464  -0.546  -3.462  0.00  0.00    +0.000 C 
ATOM     61  C   UNL     1       2.421  -0.872  -2.327  0.00  0.00    +0.000 C 
ENDBRANCH  58  61
ENDBRANCH   1  58
BRANCH  18  62
ATOM     62  C   UNL     1       1.711  -3.284  -5.197  0.00  0.00    +0.000 C 
BRANCH  62  63
ATOM     63  C   UNL     1       2.764  -2.299  -5.677  0.00  0.00    +0.000 C 
ATOM     64  N   UNL     1       2.526  -0.853  -5.560  0.00  0.00    +0.000 N 
ATOM     65  O   UNL     1       3.851  -2.726  -6.180  0.00  0.00    +0.000 OA
ATOM     66  H   UNL     1       1.684  -0.523  -5.170  0.00  0.00    +0.000 HD
ATOM     67  H   UNL     1       3.208  -0.215  -5.871  0.00  0.00    +0.000 HD
ENDBRANCH  62  63
ENDBRANCH  18  62
BRANCH   5  68
ATOM     68  C   UNL     1       5.188  -1.539 -10.196  0.00  0.00    +0.000 C 
BRANCH  68  69
ATOM     69  C   UNL     1       6.677  -1.303 -10.003  0.00  0.00    +0.000 A 
ATOM     70  C   UNL     1       7.559  -1.612 -11.015  0.00  0.00    +0.000 A 
ATOM     71  C   UNL     1       8.933  -1.395 -10.866  0.00  0.00    +0.000 A 
ATOM     72  C   UNL     1       9.377  -0.833  -9.651  0.00  0.00    +0.000 A 
ATOM     73  C   UNL     1       8.490  -0.557  -8.637  0.00  0.00    +0.000 A 
ATOM     74  C   UNL     1       7.140  -0.784  -8.818  0.00  0.00    +0.000 A 
BRANCH  72  75
ATOM     75  O   UNL     1      10.683  -0.566  -9.427  0.00  0.00    +0.000 OA
ATOM     76  H   UNL     1      11.318  -0.741 -10.094  0.00  0.00    +0.000 HD
ENDBRANCH  72  75
ENDBRANCH  68  69
ENDBRANCH   5  68
BRANCH  22  77
ATOM     77  C   UNL     1       2.186  -3.050  -0.909  0.00  0.00    +0.000 C 
BRANCH  77  78
ATOM     78  C   UNL     1       2.822  -1.932  -0.098  0.00  0.00    +0.000 C 
BRANCH  78  79
ATOM     79  C   UNL     1       2.478  -2.113   1.371  0.00  0.00    +0.000 C 
ATOM     80  N   UNL     1       1.645  -3.247   1.797  0.00  0.00    +0.000 N 
ATOM     81  O   UNL     1       2.910  -1.284   2.232  0.00  0.00    +0.000 OA
ATOM     82  H   UNL     1       1.310  -3.889   1.130  0.00  0.00    +0.000 HD
ATOM     83  H   UNL     1       1.422  -3.364   2.749  0.00  0.00    +0.000 HD
ENDBRANCH  78  79
ENDBRANCH  77  78
ENDBRANCH  22  77
TORSDOF 19
