REMARK  Name = CHEMBL590175
REMARK  7 active torsions:
REMARK  status: ('A' for Active; 'I' for Inactive)
REMARK    1  A    between atoms: C_1  and  C_2
REMARK    2  A    between atoms: C_4  and  C_5
REMARK    3  A    between atoms: C_23  and  C_24
REMARK    4  A    between atoms: C_24  and  N_25
REMARK    5  A    between atoms: C_32  and  C_33
REMARK    6  A    between atoms: C_33  and  N_35
REMARK    7  A    between atoms: N_39  and  C_40
REMARK                            x       y       z     vdW  Elec       q    Type
REMARK                         _______ _______ _______ _____ _____    ______ ____
ROOT
ATOM      1  C   UNL     1       2.488  -0.332  -0.009  0.00  0.00    +0.000 C 
ATOM      2  C   UNL     1       1.008  -0.116  -0.025  0.00  0.00    +0.000 A 
ATOM      3  C   UNL     1       0.214  -1.299  -0.090  0.00  0.00    +0.000 A 
ATOM      4  C   UNL     1      -1.182  -1.278  -0.125  0.00  0.00    +0.000 A 
ATOM      5  C   UNL     1      -1.742  -0.031   0.121  0.00  0.00    +0.000 A 
ATOM      6  C   UNL     1      -0.988   1.172   0.085  0.00  0.00    +0.000 A 
ATOM      7  C   UNL     1       0.418   1.167  -0.010  0.00  0.00    +0.000 A 
ENDROOT
BRANCH   4   8
ATOM      8  C   UNL     1      -1.948  -2.592  -0.254  0.00  0.00    +0.000 C 
ATOM      9  O   UNL     1      -1.337  -3.606   0.104  0.00  0.00    +0.000 OA
ATOM     10  N   UNL     1      -3.315  -2.682  -0.630  0.00  0.00    +0.000 N 
ATOM     11  C   UNL     1      -4.070  -3.820  -0.133  0.00  0.00    +0.000 C 
ATOM     12  C   UNL     1      -5.546  -3.543  -0.001  0.00  0.00    +0.000 A 
ATOM     13  C   UNL     1      -6.571  -4.474   0.026  0.00  0.00    +0.000 A 
ATOM     14  C   UNL     1      -7.797  -3.775   0.033  0.00  0.00    +0.000 A 
ATOM     15  C   UNL     1      -7.502  -2.431   0.042  0.00  0.00    +0.000 A 
ATOM     16  N   UNL     1      -6.134  -2.285   0.044  0.00  0.00    +0.000 N 
ATOM     17  C   UNL     1      -5.442  -0.981   0.012  0.00  0.00    +0.000 C 
ATOM     18  C   UNL     1      -4.583  -0.831  -1.220  0.00  0.00    +0.000 A 
ATOM     19  C   UNL     1      -4.061   0.374  -1.688  0.00  0.00    +0.000 A 
ATOM     20  C   UNL     1      -3.153   0.379  -2.761  0.00  0.00    +0.000 A 
ATOM     21  C   UNL     1      -2.990  -0.769  -3.522  0.00  0.00    +0.000 A 
ATOM     22  C   UNL     1      -3.441  -1.962  -2.993  0.00  0.00    +0.000 A 
ATOM     23  C   UNL     1      -3.940  -1.958  -1.696  0.00  0.00    +0.000 A 
ENDBRANCH   4   8
BRANCH   7  24
ATOM     24  C   UNL     1       1.152   2.532  -0.042  0.00  0.00    +0.000 C 
BRANCH  24  25
ATOM     25  N   UNL     1       2.613   2.511  -0.230  0.00  0.00    +0.000 N 
ATOM     26  C   UNL     1       3.475   3.549   0.037  0.00  0.00    +0.000 C 
ATOM     27  O   UNL     1       3.089   4.648   0.355  0.00  0.00    +0.000 OA
ATOM     28  N   UNL     1       4.821   3.142   0.025  0.00  0.00    +0.000 N 
ATOM     29  C   UNL     1       5.459   2.095  -0.774  0.00  0.00    +0.000 C 
ATOM     30  C   UNL     1       6.589   1.605   0.113  0.00  0.00    +0.000 C 
ATOM     31  C   UNL     1       7.077   2.898   0.744  0.00  0.00    +0.000 C 
ATOM     32  C   UNL     1       5.860   3.858   0.794  0.00  0.00    +0.000 C 
ATOM     33  H   UNL     1       3.086   1.694   0.060  0.00  0.00    +0.000 HD
BRANCH  32  34
ATOM     34  C   UNL     1       6.284   5.284   0.297  0.00  0.00    +0.000 C 
ATOM     35  S   UNL     1       5.723   5.947  -1.153  0.00  0.00    +0.000 S 
BRANCH  34  36
ATOM     36  N   UNL     1       7.148   5.993   1.155  0.00  0.00    +0.000 N 
ATOM     37  C   UNL     1       6.760   7.333   1.603  0.00  0.00    +0.000 C 
ATOM     38  C   UNL     1       7.547   8.487   0.981  0.00  0.00    +0.000 C 
ATOM     39  C   UNL     1       8.983   8.531   1.513  0.00  0.00    +0.000 C 
ATOM     40  N   UNL     1       9.956   7.772   0.715  0.00  0.00    +0.000 NA
ATOM     41  C   UNL     1      10.416   8.585  -0.415  0.00  0.00    +0.000 C 
ATOM     42  C   UNL     1       9.446   6.474   0.225  0.00  0.00    +0.000 C 
ATOM     43  C   UNL     1       8.593   5.689   1.250  0.00  0.00    +0.000 C 
ENDBRANCH  34  36
ENDBRANCH  32  34
ENDBRANCH  24  25
ENDBRANCH   7  24
TORSDOF 5
