REMARK  Name = CHEMBL489387
REMARK  10 active torsions:
REMARK  status: ('A' for Active; 'I' for Inactive)
REMARK    1  A    between atoms: C_1  and  C_2
REMARK    2  A    between atoms: C_2  and  O_3
REMARK    3  A    between atoms: O_3  and  C_4
REMARK    4  A    between atoms: C_7  and  C_8
REMARK    5  A    between atoms: C_11  and  C_12
REMARK    6  A    between atoms: C_12  and  N_13
REMARK    7  A    between atoms: N_18  and  C_19
REMARK    8  A    between atoms: C_22  and  O_23
REMARK    9  A    between atoms: O_23  and  C_24
REMARK   10  A    between atoms: C_28  and  C_29
REMARK                            x       y       z     vdW  Elec       q    Type
REMARK                         _______ _______ _______ _____ _____    ______ ____
ROOT
ATOM      1  C   UNL     1       8.561  -1.682   1.766  0.00  0.00    +0.000 A 
ATOM      2  N   UNL     1       9.468  -2.339   1.061  0.00  0.00    +0.000 NA
ATOM      3  N   UNL     1      10.694  -2.192   1.679  0.00  0.00    +0.000 NA
ATOM      4  C   UNL     1      10.543  -1.470   2.784  0.00  0.00    +0.000 A 
ATOM      5  N   UNL     1       9.210  -1.099   2.844  0.00  0.00    +0.000 N 
ENDROOT
BRANCH   1   9
ATOM      6  C   UNL     1       4.326  -1.037   1.120  0.00  0.00    +0.000 A 
ATOM      7  C   UNL     1       4.854  -2.337   1.215  0.00  0.00    +0.000 A 
ATOM      8  C   UNL     1       6.238  -2.567   1.372  0.00  0.00    +0.000 A 
ATOM      9  C   UNL     1       7.127  -1.495   1.460  0.00  0.00    +0.000 A 
ATOM     10  C   UNL     1       6.588  -0.198   1.375  0.00  0.00    +0.000 A 
ATOM     11  C   UNL     1       5.203   0.050   1.236  0.00  0.00    +0.000 A 
ATOM     12  C   UNL     1       4.760   1.485   1.274  0.00  0.00    +0.000 C 
BRANCH   6  13
ATOM     13  O   UNL     1       2.953  -0.956   1.036  0.00  0.00    +0.000 OA
BRANCH  13  15
ATOM     14  C   UNL     1       0.912  -0.061   0.059  0.00  0.00    +0.000 C 
ATOM     15  C   UNL     1       2.431  -0.040   0.066  0.00  0.00    +0.000 C 
ENDBRANCH  13  15
ENDBRANCH   6  13
ENDBRANCH   1   9
BRANCH   5  16
ATOM     16  C   UNL     1       8.572  -0.311   3.809  0.00  0.00    +0.000 A 
ATOM     17  C   UNL     1       7.610  -0.889   4.628  0.00  0.00    +0.000 A 
ATOM     18  C   UNL     1       7.185  -0.161   5.733  0.00  0.00    +0.000 A 
ATOM     19  C   UNL     1       7.687   1.122   5.925  0.00  0.00    +0.000 A 
ATOM     20  N   UNL     1       8.502   1.736   5.035  0.00  0.00    +0.000 NA
ATOM     21  C   UNL     1       8.964   0.995   4.004  0.00  0.00    +0.000 A 
BRANCH  19  22
ATOM     22  O   UNL     1       7.613   1.805   7.111  0.00  0.00    +0.000 OA
ATOM     23  C   UNL     1       6.858   1.199   8.149  0.00  0.00    +0.000 C 
ENDBRANCH  19  22
ENDBRANCH   5  16
BRANCH   4  24
ATOM     24  C   UNL     1      11.659  -1.223   3.777  0.00  0.00    +0.000 C 
BRANCH  24  25
ATOM     25  N   UNL     1      11.319  -0.601   5.057  0.00  0.00    +0.000 N 
ATOM     26  N   UNL     1      10.558  -1.232   5.984  0.00  0.00    +0.000 NA
ATOM     27  C   UNL     1      10.316  -0.233   6.845  0.00  0.00    +0.000 A 
ATOM     28  C   UNL     1      11.005   0.922   6.450  0.00  0.00    +0.000 A 
ATOM     29  N   UNL     1      11.712   0.666   5.343  0.00  0.00    +0.000 NA
ENDBRANCH  24  25
ENDBRANCH   4  24
TORSDOF 7
