REMARK  Name = CHEMBL4128839
REMARK  22 active torsions:
REMARK  status: ('A' for Active; 'I' for Inactive)
REMARK    1  A    between atoms: C_1  and  C_2
REMARK    2  A    between atoms: C_2  and  C_3
REMARK    3  A    between atoms: C_3  and  C_4
REMARK    4  A    between atoms: C_3  and  C_5
REMARK    5  A    between atoms: C_9  and  C_10
REMARK    6  A    between atoms: C_10  and  C_11
REMARK    7  A    between atoms: C_14  and  O_15
REMARK    8  A    between atoms: C_33  and  C_34
REMARK    9  A    between atoms: C_40  and  C_41
REMARK   10  A    between atoms: N_43  and  C_44
REMARK   11  A    between atoms: C_44  and  C_45
REMARK   12  A    between atoms: C_44  and  C_49
REMARK   13  A    between atoms: C_45  and  C_46
REMARK   14  A    between atoms: C_46  and  C_47
REMARK   15  A    between atoms: C_46  and  C_48
REMARK   16  A    between atoms: N_51  and  C_52
REMARK   17  A    between atoms: C_52  and  C_53
REMARK   18  A    between atoms: C_59  and  C_60
REMARK   19  A    between atoms: C_60  and  C_61
REMARK   20  A    between atoms: C_67  and  C_68
REMARK   21  A    between atoms: C_68  and  C_69
REMARK   22  A    between atoms: C_69  and  C_70
REMARK                            x       y       z     vdW  Elec       q    Type
REMARK                         _______ _______ _______ _____ _____    ______ ____
ROOT
ATOM      1  C   UNL     1       3.995   3.844   5.875  0.00  0.00    +0.000 C 
ATOM      2  N   UNL     1       4.069   4.858   8.285  0.00  0.00    +0.000 N 
ATOM      3  C   UNL     1       4.221   5.909  10.567  0.00  0.00    +0.000 C 
ATOM      4  O   UNL     1       3.399   6.152  12.114  0.00  0.00    +0.000 OA
ATOM      5  C   UNL     1       4.708   7.139  12.763  0.00  0.00    +0.000 C 
ATOM      6  N   UNL     1       5.701   6.860  14.746  0.00  0.00    +0.000 N 
ATOM      7  C   UNL     1       6.112   5.420  15.138  0.00  0.00    +0.000 C 
ATOM      8  O   UNL     1       6.809   4.805  15.952  0.00  0.00    +0.000 OA
ATOM      9  C   UNL     1       5.452   4.610  14.103  0.00  0.00    +0.000 C 
ATOM     10  C   UNL     1       4.668   5.251  13.235  0.00  0.00    +0.000 C 
ATOM     11  S   UNL     1       3.435   4.228  11.997  0.00  0.00    +0.000 S 
ATOM     12  C   UNL     1       1.893   6.010  11.249  0.00  0.00    +0.000 C 
ATOM     13  C   UNL     1       1.840   5.372   9.861  0.00  0.00    +0.000 A 
ATOM     14  C   UNL     1       2.067   3.993   9.630  0.00  0.00    +0.000 A 
ATOM     15  C   UNL     1       1.703   3.392   8.467  0.00  0.00    +0.000 A 
ATOM     16  C   UNL     1       0.892   4.127   7.683  0.00  0.00    +0.000 A 
ATOM     17  C   UNL     1       0.631   5.425   7.903  0.00  0.00    +0.000 A 
ATOM     18  C   UNL     1       1.270   6.102   8.884  0.00  0.00    +0.000 A 
ATOM     19  S   UNL     1      -0.018   3.397   6.543  0.00  0.00    +0.000 S 
ATOM     20  C   UNL     1      -1.555   3.814   6.014  0.00  0.00    +0.000 C 
ATOM     21  C   UNL     1      -2.118   3.163   4.779  0.00  0.00    +0.000 C 
ATOM     22  N   UNL     1      -1.380   3.631   3.586  0.00  0.00    +0.000 N 
ATOM     23  C   UNL     1      -0.039   3.461   3.400  0.00  0.00    +0.000 C 
ATOM     24  O   UNL     1       0.484   3.916   2.400  0.00  0.00    +0.000 OA
ATOM     25  C   UNL     1       0.771   2.708   4.421  0.00  0.00    +0.000 C 
ATOM     26  N   UNL     1       1.263   1.506   4.213  0.00  0.00    +0.000 N 
ATOM     27  C   UNL     1       2.198   1.584   3.447  0.00  0.00    +0.000 C 
ATOM     28  O   UNL     1       3.577   0.550   3.161  0.00  0.00    +0.000 OA
ATOM     29  C   UNL     1       2.555   3.302   2.213  0.00  0.00    +0.000 C 
ATOM     30  N   UNL     1       4.219   3.560   2.295  0.00  0.00    +0.000 N 
ATOM     31  C   UNL     1       4.923   3.181   3.863  0.00  0.00    +0.000 C 
ATOM     32  O   UNL     1       5.868   2.692   2.684  0.00  0.00    +0.000 OA
ATOM     33  H   UNL     1       3.630   5.489   9.692  0.00  0.00    +0.000 HD
ATOM     34  H   UNL     1       6.428   7.343  15.898  0.00  0.00    +0.000 HD
ATOM     35  H   UNL     1      -1.916   4.149   2.878  0.00  0.00    +0.000 HD
ATOM     36  H   UNL     1       1.062   0.520   4.291  0.00  0.00    +0.000 HD
ATOM     37  H   UNL     1       4.485   4.179   2.942  0.00  0.00    +0.000 HD
ENDROOT
BRANCH  21  38
ATOM     38  C   UNL     1      -3.623   3.520   4.700  0.00  0.00    +0.000 C 
ATOM     39  O   UNL     1      -3.960   4.113   3.675  0.00  0.00    +0.000 OA
ATOM     40  N   UNL     1      -4.492   3.105   5.754  0.00  0.00    +0.000 N 
ATOM     41  C   UNL     1      -4.279   3.227   7.191  0.00  0.00    +0.000 C 
ATOM     42  C   UNL     1      -4.895   1.966   7.731  0.00  0.00    +0.000 C 
ATOM     43  C   UNL     1      -6.186   1.853   6.944  0.00  0.00    +0.000 C 
ATOM     44  C   UNL     1      -5.842   2.447   5.598  0.00  0.00    +0.000 C 
BRANCH  44  45
ATOM     45  C   UNL     1      -6.999   3.465   5.612  0.00  0.00    +0.000 C 
ATOM     46  O   UNL     1      -6.614   4.751   5.597  0.00  0.00    +0.000 OA
ATOM     47  N   UNL     1      -8.274   3.079   4.992  0.00  0.00    +0.000 N 
ATOM     48  H   UNL     1      -8.568   2.119   5.020  0.00  0.00    +0.000 HD
BRANCH  47  49
ATOM     49  C   UNL     1      -9.290   4.083   4.522  0.00  0.00    +0.000 C 
BRANCH  49  50
ATOM     50  C   UNL     1     -10.670   3.393   4.334  0.00  0.00    +0.000 C 
ATOM     51  O   UNL     1     -10.756   2.177   4.529  0.00  0.00    +0.000 OA
ATOM     52  N   UNL     1     -11.775   4.169   3.954  0.00  0.00    +0.000 N 
ATOM     53  H   UNL     1     -11.704   5.162   3.796  0.00  0.00    +0.000 HD
BRANCH  52  54
ATOM     54  C   UNL     1     -13.100   3.568   3.762  0.00  0.00    +0.000 C 
BRANCH  54  55
ATOM     55  C   UNL     1     -14.171   4.598   3.344  0.00  0.00    +0.000 C 
ATOM     56  N   UNL     1     -13.771   5.932   3.200  0.00  0.00    +0.000 N 
ATOM     57  O   UNL     1     -15.333   4.240   3.147  0.00  0.00    +0.000 OA
ATOM     58  H   UNL     1     -12.835   6.272   3.350  0.00  0.00    +0.000 HD
ATOM     59  H   UNL     1     -14.443   6.649   2.925  0.00  0.00    +0.000 HD
ENDBRANCH  54  55
ENDBRANCH  52  54
ENDBRANCH  49  50
BRANCH  49  60
ATOM     60  C   UNL     1      -8.867   4.738   3.218  0.00  0.00    +0.000 C 
BRANCH  60  61
ATOM     61  C   UNL     1      -7.535   5.442   3.337  0.00  0.00    +0.000 C 
ATOM     62  C   UNL     1      -6.419   4.502   3.449  0.00  0.00    +0.000 C 
ATOM     63  C   UNL     1      -7.110   6.077   2.078  0.00  0.00    +0.000 C 
ENDBRANCH  60  61
ENDBRANCH  49  60
ENDBRANCH  47  49
ENDBRANCH  44  45
ENDBRANCH  21  38
BRANCH   1  64
ATOM     64  C   UNL     1       3.553   2.382   3.566  0.00  0.00    +0.000 C 
ATOM     65  C   UNL     1       3.107   0.901   1.545  0.00  0.00    +0.000 C 
BRANCH  64  67
ATOM     66  C   UNL     1       0.797   0.868   2.139  0.00  0.00    +0.000 C 
ATOM     67  C   UNL     1       2.447   1.053   2.037  0.00  0.00    +0.000 C 
ENDBRANCH  64  67
ENDBRANCH   1  64
BRANCH  25  68
ATOM     68  C   UNL     1       1.935   3.525   5.024  0.00  0.00    +0.000 C 
BRANCH  68  69
ATOM     69  C   UNL     1       2.962   2.300   5.666  0.00  0.00    +0.000 C 
ATOM     70  N   UNL     1       2.877   1.080   5.379  0.00  0.00    +0.000 N 
ATOM     71  O   UNL     1       4.026   2.212   6.427  0.00  0.00    +0.000 OA
ATOM     72  H   UNL     1       2.054   0.778   5.023  0.00  0.00    +0.000 HD
ATOM     73  H   UNL     1       3.587   0.455   5.432  0.00  0.00    +0.000 HD
ENDBRANCH  68  69
ENDBRANCH  25  68
BRANCH   5  74
ATOM     74  C   UNL     1       5.939   7.608  12.680  0.00  0.00    +0.000 C 
BRANCH  74  75
ATOM     75  C   UNL     1       4.911   8.365  11.935  0.00  0.00    +0.000 A 
ATOM     76  C   UNL     1       3.705   9.037  12.357  0.00  0.00    +0.000 A 
ATOM     77  C   UNL     1       2.735   9.368  11.449  0.00  0.00    +0.000 A 
ATOM     78  C   UNL     1       3.015   9.307  10.124  0.00  0.00    +0.000 A 
ATOM     79  C   UNL     1       4.279   8.870   9.747  0.00  0.00    +0.000 A 
ATOM     80  C   UNL     1       5.149   8.262  10.618  0.00  0.00    +0.000 A 
BRANCH  78  81
ATOM     81  O   UNL     1       2.081   9.644   9.186  0.00  0.00    +0.000 OA
ATOM     82  H   UNL     1       1.201   9.938   9.499  0.00  0.00    +0.000 HD
ENDBRANCH  78  81
ENDBRANCH  74  75
ENDBRANCH   5  74
BRANCH  29  83
ATOM     83  C   UNL     1       2.285   3.263   0.704  0.00  0.00    +0.000 C 
BRANCH  83  84
ATOM     84  C   UNL     1       2.839   1.982  -0.238  0.00  0.00    +0.000 C 
BRANCH  84  85
ATOM     85  C   UNL     1       2.438   1.942  -1.581  0.00  0.00    +0.000 C 
ATOM     86  N   UNL     1       1.781   3.063  -1.926  0.00  0.00    +0.000 N 
ATOM     87  O   UNL     1       2.726   0.983  -2.272  0.00  0.00    +0.000 OA
ATOM     88  H   UNL     1       1.546   3.834  -1.310  0.00  0.00    +0.000 HD
ATOM     89  H   UNL     1       1.536   3.150  -2.885  0.00  0.00    +0.000 HD
ENDBRANCH  84  85
ENDBRANCH  83  84
ENDBRANCH  29  83
TORSDOF 18
