REMARK  Name = CHEMBL24678
REMARK  13 active torsions:
REMARK  status: ('A' for Active; 'I' for Inactive)
REMARK    1  A    between atoms: C_1  and  C_2
REMARK    2  A    between atoms: C_2  and  C_4
REMARK    3  A    between atoms: C_4  and  C_5
REMARK    4  A    between atoms: C_5  and  C_6
REMARK    5  A    between atoms: C_6  and  C_7
REMARK    6  A    between atoms: N_9  and  C_10
REMARK    7  A    between atoms: C_12  and  C_13
REMARK    8  A    between atoms: N_25  and  C_26
REMARK    9  A    between atoms: C_26  and  C_27
REMARK   10  A    between atoms: N_29  and  C_30
REMARK   11  A    between atoms: C_30  and  C_31
REMARK   12  A    between atoms: C_31  and  C_32
REMARK   13  A    between atoms: C_32  and  C_33
REMARK                            x       y       z     vdW  Elec       q    Type
REMARK                         _______ _______ _______ _____ _____    ______ ____
ROOT
ATOM      1  C   UNL     1       9.327  -2.808   0.095  0.00  0.00    +0.000 C 
ATOM      2  N   UNL     1       9.993  -3.995   0.663  0.00  0.00    +0.000 NA
ATOM      3  C   UNL     1      11.292  -4.030   0.694  0.00  0.00    +0.000 C 
ATOM      4  C   UNL     1      12.206  -3.020   0.056  0.00  0.00    +0.000 A 
ATOM      5  C   UNL     1      13.406  -3.491  -0.518  0.00  0.00    +0.000 A 
ATOM      6  C   UNL     1      14.338  -2.609  -1.068  0.00  0.00    +0.000 A 
ATOM      7  C   UNL     1      14.052  -1.254  -1.127  0.00  0.00    +0.000 A 
ATOM      8  C   UNL     1      12.840  -0.785  -0.627  0.00  0.00    +0.000 A 
ATOM      9  C   UNL     1      11.954  -1.636   0.059  0.00  0.00    +0.000 A 
ATOM     10  N   UNL     1      10.944  -1.045   0.870  0.00  0.00    +0.000 N 
ATOM     11  C   UNL     1       9.676  -1.592   1.020  0.00  0.00    +0.000 C 
ATOM     12  O   UNL     1       8.882  -1.112   1.839  0.00  0.00    +0.000 OA
ENDROOT
BRANCH   3  13
ATOM     13  C   UNL     1      11.949  -5.169   1.431  0.00  0.00    +0.000 A 
ATOM     14  C   UNL     1      11.681  -6.499   1.091  0.00  0.00    +0.000 A 
ATOM     15  C   UNL     1      12.231  -7.539   1.852  0.00  0.00    +0.000 A 
ATOM     16  C   UNL     1      13.119  -7.257   2.892  0.00  0.00    +0.000 A 
ATOM     17  C   UNL     1      13.471  -5.937   3.163  0.00  0.00    +0.000 A 
ATOM     18  C   UNL     1      12.852  -4.892   2.469  0.00  0.00    +0.000 A 
ENDBRANCH   3  13
BRANCH   1  21
ATOM     19  C   UNL     1       7.020  -1.996  -0.151  0.00  0.00    +0.000 C 
ATOM     20  O   UNL     1       7.414  -0.884  -0.497  0.00  0.00    +0.000 OA
ATOM     21  N   UNL     1       7.888  -3.034   0.131  0.00  0.00    +0.000 N 
ATOM     22  H   UNL     1       7.578  -3.991   0.121  0.00  0.00    +0.000 HD
BRANCH  19  23
ATOM     23  C   UNL     1       5.534  -2.310  -0.009  0.00  0.00    +0.000 C 
BRANCH  23  24
ATOM     24  C   UNL     1       4.724  -1.005  -0.001  0.00  0.00    +0.000 C 
BRANCH  24  25
ATOM     25  C   UNL     1       3.212  -1.214   0.011  0.00  0.00    +0.000 C 
BRANCH  25  27
ATOM     26  C   UNL     1       0.968   0.063  -0.007  0.00  0.00    +0.000 C 
ATOM     27  C   UNL     1       2.472   0.118  -0.007  0.00  0.00    +0.000 C 
ATOM     28  O   UNL     1       3.052   1.204  -0.024  0.00  0.00    +0.000 OA
ENDBRANCH  25  27
ENDBRANCH  24  25
ENDBRANCH  23  24
ENDBRANCH  19  23
ENDBRANCH   1  21
BRANCH  10  29
ATOM     29  C   UNL     1      11.232   0.145   1.695  0.00  0.00    +0.000 C 
BRANCH  29  30
ATOM     30  C   UNL     1      12.699   0.503   1.965  0.00  0.00    +0.000 C 
ATOM     31  O   UNL     1      13.633  -0.305   1.859  0.00  0.00    +0.000 OA
ATOM     32  N   UNL     1      12.974   1.786   2.362  0.00  0.00    +0.000 N 
ATOM     33  H   UNL     1      12.272   2.318   2.869  0.00  0.00    +0.000 HD
BRANCH  32  34
ATOM     34  C   UNL     1      14.372   2.155   2.422  0.00  0.00    +0.000 C 
BRANCH  34  35
ATOM     35  C   UNL     1      14.595   3.387   3.250  0.00  0.00    +0.000 C 
BRANCH  35  36
ATOM     36  C   UNL     1      16.069   3.786   3.245  0.00  0.00    +0.000 C 
BRANCH  36  37
ATOM     37  C   UNL     1      16.265   5.037   4.059  0.00  0.00    +0.000 A 
ATOM     38  C   UNL     1      15.497   6.174   3.765  0.00  0.00    +0.000 A 
ATOM     39  C   UNL     1      15.631   7.337   4.510  0.00  0.00    +0.000 A 
ATOM     40  C   UNL     1      16.637   7.425   5.466  0.00  0.00    +0.000 A 
ATOM     41  C   UNL     1      17.425   6.310   5.748  0.00  0.00    +0.000 A 
ATOM     42 CL   UNL     1      18.703   6.444   6.892  0.00  0.00    +0.000 Cl
ATOM     43  C   UNL     1      17.202   5.097   5.096  0.00  0.00    +0.000 A 
ENDBRANCH  36  37
ENDBRANCH  35  36
ENDBRANCH  34  35
ENDBRANCH  32  34
ENDBRANCH  29  30
ENDBRANCH  10  29
TORSDOF 12
