MODEL 1
REMARK VINA RESULT:      -9.1      0.000      0.000
REMARK  Name = CHEMBL1790718
REMARK  25 active torsions:
REMARK  status: ('A' for Active; 'I' for Inactive)
REMARK    1  A    between atoms: C_1  and  C_2
REMARK    2  A    between atoms: C_2  and  C_3
REMARK    3  A    between atoms: C_3  and  C_4
REMARK    4  A    between atoms: C_3  and  C_5
REMARK    5  A    between atoms: C_9  and  C_10
REMARK    6  A    between atoms: C_13  and  O_14
REMARK    7  A    between atoms: C_25  and  C_26
REMARK    8  A    between atoms: C_32  and  C_33
REMARK    9  A    between atoms: N_35  and  C_36
REMARK   10  A    between atoms: C_36  and  C_37
REMARK   11  A    between atoms: C_36  and  C_69
REMARK   12  A    between atoms: C_37  and  C_38
REMARK   13  A    between atoms: C_38  and  C_39
REMARK   14  A    between atoms: C_39  and  C_40
REMARK   15  A    between atoms: C_40  and  N_41
REMARK   16  A    between atoms: C_42  and  C_44
REMARK   17  A    between atoms: C_57  and  O_58
REMARK   18  A    between atoms: C_64  and  O_65
REMARK   19  A    between atoms: N_71  and  C_72
REMARK   20  A    between atoms: C_72  and  N_73
REMARK   21  A    between atoms: C_77  and  C_78
REMARK   22  A    between atoms: C_78  and  C_79
REMARK   23  A    between atoms: C_85  and  C_86
REMARK   24  A    between atoms: C_86  and  C_87
REMARK   25  A    between atoms: C_87  and  C_88
REMARK                            x       y       z     vdW  Elec       q    Type
REMARK                         _______ _______ _______ _____ _____    ______ ____
ROOT
ATOM      1  C   UNL     1      -6.271   4.443 126.260  0.00  0.00    +0.000 C 
ATOM      2  N   UNL     1      -7.758   4.466 127.613  0.00  0.00    +0.000 N 
ATOM      3  C   UNL     1      -8.498   4.538 129.114  0.00  0.00    +0.000 C 
ATOM      4  O   UNL     1      -9.665   4.031 129.236  0.00  0.00    +0.000 OA
ATOM      5  C   UNL     1      -8.030   5.533 130.444  0.00  0.00    +0.000 C 
ATOM      6  N   UNL     1      -9.102   6.318 131.289  0.00  0.00    +0.000 N 
ATOM      7  C   UNL     1      -9.898   5.977 132.394  0.00  0.00    +0.000 C 
ATOM      8  O   UNL     1     -10.490   6.850 133.044  0.00  0.00    +0.000 OA
ATOM      9  C   UNL     1     -10.045   4.561 132.902  0.00  0.00    +0.000 C 
ATOM     10  C   UNL     1      -9.216   3.600 132.209  0.00  0.00    +0.000 C 
ATOM     11  S   UNL     1      -9.652   2.018 132.605  0.00  0.00    +0.000 S 
ATOM     12  S   UNL     1      -8.726   1.294 130.599  0.00  0.00    +0.000 S 
ATOM     13  C   UNL     1      -7.940  -1.100 130.915  0.00  0.00    +0.000 C 
ATOM     14  C   UNL     1      -6.804  -1.886 130.419  0.00  0.00    +0.000 C 
ATOM     15  N   UNL     1      -6.953  -1.667 129.083  0.00  0.00    +0.000 N 
ATOM     16  C   UNL     1      -6.523  -0.479 128.586  0.00  0.00    +0.000 C 
ATOM     17  O   UNL     1      -6.261  -0.496 127.372  0.00  0.00    +0.000 OA
ATOM     18  C   UNL     1      -6.647   0.923 129.407  0.00  0.00    +0.000 C 
ATOM     19  N   UNL     1      -5.767   1.769 128.730  0.00  0.00    +0.000 N 
ATOM     20  C   UNL     1      -5.963   2.194 127.456  0.00  0.00    +0.000 C 
ATOM     21  O   UNL     1      -4.884   2.632 127.029  0.00  0.00    +0.000 OA
ATOM     22  C   UNL     1      -7.484   2.116 126.497  0.00  0.00    +0.000 C 
ATOM     23  N   UNL     1      -8.128   3.282 125.678  0.00  0.00    +0.000 N 
ATOM     24  C   UNL     1      -7.467   4.492 125.441  0.00  0.00    +0.000 C 
ATOM     25  O   UNL     1      -7.885   5.570 125.047  0.00  0.00    +0.000 OA
ATOM     26  H   UNL     1      -8.836   4.359 127.451  0.00  0.00    +0.000 HD
ATOM     27  H   UNL     1      -9.015   7.330 131.210  0.00  0.00    +0.000 HD
ATOM     28  H   UNL     1      -7.624  -2.265 128.593  0.00  0.00    +0.000 HD
ATOM     29  H   UNL     1      -4.857   1.872 129.133  0.00  0.00    +0.000 HD
ATOM     30  H   UNL     1      -8.801   3.637 126.300  0.00  0.00    +0.000 HD
ENDROOT
BRANCH  14  31
ATOM     31  C   UNL     1      -5.352  -1.595 130.834  0.00  0.00    +0.000 C 
ATOM     32  O   UNL     1      -5.012  -0.780 131.705  0.00  0.00    +0.000 OA
ATOM     33  N   UNL     1      -4.411  -2.168 130.019  0.00  0.00    +0.000 N 
ATOM     34  C   UNL     1      -4.468  -2.698 128.648  0.00  0.00    +0.000 C 
ATOM     35  C   UNL     1      -3.832  -4.012 128.803  0.00  0.00    +0.000 C 
ATOM     36  C   UNL     1      -2.683  -3.639 129.707  0.00  0.00    +0.000 C 
ATOM     37  C   UNL     1      -3.162  -2.493 130.623  0.00  0.00    +0.000 C 
BRANCH  37  38
ATOM     38  C   UNL     1      -3.271  -2.941 132.082  0.00  0.00    +0.000 C 
ATOM     39  O   UNL     1      -3.715  -4.019 132.461  0.00  0.00    +0.000 OA
ATOM     40  N   UNL     1      -2.817  -1.987 132.946  0.00  0.00    +0.000 N 
ATOM     41  H   UNL     1      -2.700  -1.047 132.593  0.00  0.00    +0.000 HD
BRANCH  40  42
ATOM     42  C   UNL     1      -2.413  -2.215 134.323  0.00  0.00    +0.000 C 
BRANCH  42  43
ATOM     43  C   UNL     1      -3.492  -1.575 135.261  0.00  0.00    +0.000 C 
ATOM     44  O   UNL     1      -3.560  -0.347 135.381  0.00  0.00    +0.000 OA
ATOM     45  N   UNL     1      -4.351  -2.430 135.938  0.00  0.00    +0.000 N 
ATOM     46  H   UNL     1      -4.267  -3.433 135.860  0.00  0.00    +0.000 HD
BRANCH  45  47
ATOM     47  C   UNL     1      -5.360  -1.908 136.822  0.00  0.00    +0.000 C 
BRANCH  47  48
ATOM     48  N   UNL     1      -6.355  -1.209 136.037  0.00  0.00    +0.000 NA
ATOM     49  H   UNL     1      -6.311  -1.501 135.063  0.00  0.00    +0.000 HD
ATOM     50  H   UNL     1      -6.096  -0.216 136.011  0.00  0.00    +0.000 HD
ENDBRANCH  47  48
ENDBRANCH  45  47
ENDBRANCH  42  43
BRANCH  42  51
ATOM     51  C   UNL     1      -1.041  -1.591 134.605  0.00  0.00    +0.000 C 
BRANCH  51  52
ATOM     52  C   UNL     1      -0.312  -2.254 135.765  0.00  0.00    +0.000 C 
BRANCH  52  53
ATOM     53  C   UNL     1      -0.077  -1.373 136.962  0.00  0.00    +0.000 C 
BRANCH  53  54
ATOM     54  C   UNL     1      -1.316  -1.306 137.887  0.00  0.00    +0.000 C 
BRANCH  54  55
ATOM     55  N   UNL     1      -1.885   0.137 137.992  0.00  0.00    +0.000 N 
ATOM     56  C   UNL     1      -3.067   0.512 138.769  0.00  0.00    +0.000 C 
ATOM     57  O   UNL     1      -3.480  -0.477 139.418  0.00  0.00    +0.000 OA
ATOM     58  H   UNL     1      -1.360   0.784 137.438  0.00  0.00    +0.000 HD
BRANCH  56  59
ATOM     59  C   UNL     1      -4.147   1.999 138.882  0.00  0.00    +0.000 A 
ATOM     60  C   UNL     1      -3.821   2.824 137.921  0.00  0.00    +0.000 A 
ATOM     61  C   UNL     1      -4.846   3.745 137.342  0.00  0.00    +0.000 A 
ATOM     62  C   UNL     1      -4.548   4.879 137.928  0.00  0.00    +0.000 A 
ATOM     63  C   UNL     1      -5.567   5.023 138.708  0.00  0.00    +0.000 A 
ATOM     64  C   UNL     1      -5.277   3.079 139.274  0.00  0.00    +0.000 A 
ATOM     65  C   UNL     1      -5.504   6.710 137.717  0.00  0.00    +0.000 C 
ATOM     66  O   UNL     1      -4.643   6.466 136.541  0.00  0.00    +0.000 OA
ATOM     67  C   UNL     1      -3.708   5.715 137.149  0.00  0.00    +0.000 C 
ATOM     68  O   UNL     1      -2.580   5.298 136.953  0.00  0.00    +0.000 OA
ATOM     69  C   UNL     1      -7.040   7.626 137.652  0.00  0.00    +0.000 A 
ATOM     70  C   UNL     1      -8.151   7.331 136.850  0.00  0.00    +0.000 A 
ATOM     71  C   UNL     1      -9.410   8.036 136.975  0.00  0.00    +0.000 A 
ATOM     72  C   UNL     1      -9.561   9.138 137.821  0.00  0.00    +0.000 A 
ATOM     73  C   UNL     1      -8.446   9.611 138.482  0.00  0.00    +0.000 A 
ATOM     74  C   UNL     1      -7.222   8.874 138.395  0.00  0.00    +0.000 A 
ATOM     75  O   UNL     1      -6.200   9.457 139.125  0.00  0.00    +0.000 OA
ATOM     76  C   UNL     1      -4.979   9.407 138.516  0.00  0.00    +0.000 A 
ATOM     77  C   UNL     1      -3.974  10.359 139.015  0.00  0.00    +0.000 A 
ATOM     78  C   UNL     1      -2.852  10.843 138.338  0.00  0.00    +0.000 A 
ATOM     79  C   UNL     1      -2.928  10.694 136.985  0.00  0.00    +0.000 A 
ATOM     80  C   UNL     1      -3.917   9.629 136.472  0.00  0.00    +0.000 A 
ATOM     81  C   UNL     1      -4.718   8.560 137.475  0.00  0.00    +0.000 A 
BRANCH  72  82
ATOM     82  O   UNL     1     -10.747   9.776 138.060  0.00  0.00    +0.000 OA
ATOM     83  H   UNL     1     -11.511   9.194 137.923  0.00  0.00    +0.000 HD
ENDBRANCH  72  82
BRANCH  78  84
ATOM     84  O   UNL     1      -1.747  11.370 138.949  0.00  0.00    +0.000 OA
ATOM     85  H   UNL     1      -1.702  11.148 139.900  0.00  0.00    +0.000 HD
ENDBRANCH  78  84
ENDBRANCH  56  59
ENDBRANCH  54  55
ENDBRANCH  53  54
ENDBRANCH  52  53
ENDBRANCH  51  52
ENDBRANCH  42  51
ENDBRANCH  40  42
ENDBRANCH  37  38
ENDBRANCH  14  31
BRANCH   5  86
ATOM     86  C   UNL     1      -6.984   4.989 131.448  0.00  0.00    +0.000 A 
ATOM     87  C   UNL     1      -7.116   5.353 132.770  0.00  0.00    +0.000 A 
ATOM     88  C   UNL     1      -6.104   5.061 133.705  0.00  0.00    +0.000 A 
ATOM     89  C   UNL     1      -4.864   4.588 133.312  0.00  0.00    +0.000 A 
ATOM     90  C   UNL     1      -4.650   4.289 131.990  0.00  0.00    +0.000 A 
ATOM     91  C   UNL     1      -5.716   4.404 131.082  0.00  0.00    +0.000 A 
BRANCH  89  92
ATOM     92  O   UNL     1      -3.849   4.341 134.180  0.00  0.00    +0.000 OA
ATOM     93  H   UNL     1      -3.350   3.548 133.926  0.00  0.00    +0.000 HD
ENDBRANCH  89  92
ENDBRANCH   5  86
BRANCH   1  94
ATOM     94  C   UNL     1      -5.203   4.543 124.560  0.00  0.00    +0.000 C 
ATOM     95  C   UNL     1      -3.733   4.110 124.648  0.00  0.00    +0.000 C 
BRANCH  94  97
ATOM     96  C   UNL     1      -5.302   4.469 122.078  0.00  0.00    +0.000 C 
ATOM     97  C   UNL     1      -5.704   3.598 123.207  0.00  0.00    +0.000 C 
ENDBRANCH  94  97
ENDBRANCH   1  94
BRANCH  18  98
ATOM     98  C   UNL     1      -6.540   0.702 130.981  0.00  0.00    +0.000 C 
BRANCH  98  99
ATOM     99  C   UNL     1      -5.197   1.310 132.335  0.00  0.00    +0.000 C 
ATOM    100  N   UNL     1      -5.847   1.217 134.062  0.00  0.00    +0.000 N 
ATOM    101  O   UNL     1      -4.002   1.431 132.137  0.00  0.00    +0.000 OA
ATOM    102  H   UNL     1      -6.991   1.056 133.951  0.00  0.00    +0.000 HD
ATOM    103  H   UNL     1      -5.784   1.195 135.057  0.00  0.00    +0.000 HD
ENDBRANCH  98  99
ENDBRANCH  18  98
BRANCH  22 104
ATOM    104  C   UNL     1      -8.740   1.559 127.223  0.00  0.00    +0.000 C 
BRANCH 104 105
ATOM    105  C   UNL     1      -9.593   0.752 126.317  0.00  0.00    +0.000 C 
BRANCH 105 106
ATOM    106  C   UNL     1      -9.115  -0.330 125.402  0.00  0.00    +0.000 C 
ATOM    107  N   UNL     1      -8.859  -1.470 126.048  0.00  0.00    +0.000 N 
ATOM    108  O   UNL     1      -8.873  -0.257 124.203  0.00  0.00    +0.000 OA
ATOM    109  H   UNL     1      -8.713  -1.444 127.052  0.00  0.00    +0.000 HD
ATOM    110  H   UNL     1      -8.374  -2.162 125.501  0.00  0.00    +0.000 HD
ENDBRANCH 105 106
ENDBRANCH 104 105
ENDBRANCH  22 104
TORSDOF 23
ENDMDL
MODEL 2
REMARK VINA RESULT:      -9.0      3.638      9.389
REMARK  Name = CHEMBL1790718
REMARK  25 active torsions:
REMARK  status: ('A' for Active; 'I' for Inactive)
REMARK    1  A    between atoms: C_1  and  C_2
REMARK    2  A    between atoms: C_2  and  C_3
REMARK    3  A    between atoms: C_3  and  C_4
REMARK    4  A    between atoms: C_3  and  C_5
REMARK    5  A    between atoms: C_9  and  C_10
REMARK    6  A    between atoms: C_13  and  O_14
REMARK    7  A    between atoms: C_25  and  C_26
REMARK    8  A    between atoms: C_32  and  C_33
REMARK    9  A    between atoms: N_35  and  C_36
REMARK   10  A    between atoms: C_36  and  C_37
REMARK   11  A    between atoms: C_36  and  C_69
REMARK   12  A    between atoms: C_37  and  C_38
REMARK   13  A    between atoms: C_38  and  C_39
REMARK   14  A    between atoms: C_39  and  C_40
REMARK   15  A    between atoms: C_40  and  N_41
REMARK   16  A    between atoms: C_42  and  C_44
REMARK   17  A    between atoms: C_57  and  O_58
REMARK   18  A    between atoms: C_64  and  O_65
REMARK   19  A    between atoms: N_71  and  C_72
REMARK   20  A    between atoms: C_72  and  N_73
REMARK   21  A    between atoms: C_77  and  C_78
REMARK   22  A    between atoms: C_78  and  C_79
REMARK   23  A    between atoms: C_85  and  C_86
REMARK   24  A    between atoms: C_86  and  C_87
REMARK   25  A    between atoms: C_87  and  C_88
REMARK                            x       y       z     vdW  Elec       q    Type
REMARK                         _______ _______ _______ _____ _____    ______ ____
ROOT
ATOM      1  C   UNL     1      -9.106   4.831 131.063  0.00  0.00    +0.000 C 
ATOM      2  N   UNL     1      -7.653   3.455 131.260  0.00  0.00    +0.000 N 
ATOM      3  C   UNL     1      -6.462   2.542 132.004  0.00  0.00    +0.000 C 
ATOM      4  O   UNL     1      -5.549   2.028 131.271  0.00  0.00    +0.000 OA
ATOM      5  C   UNL     1      -6.509   1.903 133.606  0.00  0.00    +0.000 C 
ATOM      6  N   UNL     1      -6.050   0.427 133.906  0.00  0.00    +0.000 N 
ATOM      7  C   UNL     1      -4.804  -0.160 134.181  0.00  0.00    +0.000 C 
ATOM      8  O   UNL     1      -4.731  -1.311 134.633  0.00  0.00    +0.000 OA
ATOM      9  C   UNL     1      -3.491   0.569 134.008  0.00  0.00    +0.000 C 
ATOM     10  C   UNL     1      -3.636   1.956 133.628  0.00  0.00    +0.000 C 
ATOM     11  S   UNL     1      -2.156   2.616 133.152  0.00  0.00    +0.000 S 
ATOM     12  S   UNL     1      -3.304   4.214 131.912  0.00  0.00    +0.000 S 
ATOM     13  C   UNL     1      -1.861   6.300 131.791  0.00  0.00    +0.000 C 
ATOM     14  C   UNL     1      -2.133   7.742 131.791  0.00  0.00    +0.000 C 
ATOM     15  N   UNL     1      -3.033   7.795 130.769  0.00  0.00    +0.000 N 
ATOM     16  C   UNL     1      -4.310   7.417 131.033  0.00  0.00    +0.000 C 
ATOM     17  O   UNL     1      -5.154   7.891 130.256  0.00  0.00    +0.000 OA
ATOM     18  C   UNL     1      -4.683   6.204 132.054  0.00  0.00    +0.000 C 
ATOM     19  N   UNL     1      -6.036   6.414 132.320  0.00  0.00    +0.000 N 
ATOM     20  C   UNL     1      -7.014   6.282 131.388  0.00  0.00    +0.000 C 
ATOM     21  O   UNL     1      -8.031   6.849 131.818  0.00  0.00    +0.000 OA
ATOM     22  C   UNL     1      -6.896   5.477 129.782  0.00  0.00    +0.000 C 
ATOM     23  N   UNL     1      -7.894   4.428 129.191  0.00  0.00    +0.000 N 
ATOM     24  C   UNL     1      -9.126   4.139 129.789  0.00  0.00    +0.000 C 
ATOM     25  O   UNL     1      -9.903   3.212 129.617  0.00  0.00    +0.000 OA
ATOM     26  H   UNL     1      -7.218   2.802 130.496  0.00  0.00    +0.000 HD
ATOM     27  H   UNL     1      -6.807  -0.171 134.234  0.00  0.00    +0.000 HD
ATOM     28  H   UNL     1      -2.648   7.833 129.821  0.00  0.00    +0.000 HD
ATOM     29  H   UNL     1      -6.250   6.896 133.170  0.00  0.00    +0.000 HD
ATOM     30  H   UNL     1      -7.459   3.573 129.403  0.00  0.00    +0.000 HD
ENDROOT
BRANCH  14  31
ATOM     31  C   UNL     1      -2.696   8.479 133.017  0.00  0.00    +0.000 C 
ATOM     32  O   UNL     1      -3.510   8.000 133.821  0.00  0.00    +0.000 OA
ATOM     33  N   UNL     1      -2.383   9.813 133.062  0.00  0.00    +0.000 N 
ATOM     34  C   UNL     1      -1.936  10.768 132.037  0.00  0.00    +0.000 C 
ATOM     35  C   UNL     1      -0.777  11.393 132.687  0.00  0.00    +0.000 C 
ATOM     36  C   UNL     1      -1.327  11.573 134.080  0.00  0.00    +0.000 C 
ATOM     37  C   UNL     1      -2.291  10.399 134.358  0.00  0.00    +0.000 C 
BRANCH  37  38
ATOM     38  C   UNL     1      -1.742   9.458 135.432  0.00  0.00    +0.000 C 
ATOM     39  O   UNL     1      -0.718   8.791 135.336  0.00  0.00    +0.000 OA
ATOM     40  N   UNL     1      -2.538   9.429 136.541  0.00  0.00    +0.000 N 
ATOM     41  H   UNL     1      -3.475   9.799 136.461  0.00  0.00    +0.000 HD
BRANCH  40  42
ATOM     42  C   UNL     1      -2.134   8.974 137.861  0.00  0.00    +0.000 C 
BRANCH  42  43
ATOM     43  C   UNL     1      -3.367   8.288 138.541  0.00  0.00    +0.000 C 
ATOM     44  O   UNL     1      -3.334   7.084 138.817  0.00  0.00    +0.000 OA
ATOM     45  N   UNL     1      -4.478   9.076 138.813  0.00  0.00    +0.000 N 
ATOM     46  H   UNL     1      -4.509  10.052 138.554  0.00  0.00    +0.000 HD
BRANCH  45  47
ATOM     47  C   UNL     1      -5.648   8.508 139.428  0.00  0.00    +0.000 C 
BRANCH  47  48
ATOM     48  N   UNL     1      -6.248   7.564 138.508  0.00  0.00    +0.000 NA
ATOM     49  H   UNL     1      -7.156   7.259 138.852  0.00  0.00    +0.000 HD
ATOM     50  H   UNL     1      -5.678   6.710 138.516  0.00  0.00    +0.000 HD
ENDBRANCH  47  48
ENDBRANCH  45  47
ENDBRANCH  42  43
BRANCH  42  51
ATOM     51  C   UNL     1      -1.651  10.148 138.723  0.00  0.00    +0.000 C 
BRANCH  51  52
ATOM     52  C   UNL     1      -0.139  10.169 138.907  0.00  0.00    +0.000 C 
BRANCH  52  53
ATOM     53  C   UNL     1       0.344   9.778 140.276  0.00  0.00    +0.000 C 
BRANCH  53  54
ATOM     54  C   UNL     1       1.370   8.619 140.223  0.00  0.00    +0.000 C 
BRANCH  54  55
ATOM     55  N   UNL     1       0.702   7.240 140.481  0.00  0.00    +0.000 N 
ATOM     56  C   UNL     1       0.266   6.315 139.434  0.00  0.00    +0.000 C 
ATOM     57  O   UNL     1       0.609   6.754 138.311  0.00  0.00    +0.000 OA
ATOM     58  H   UNL     1       0.579   7.065 141.459  0.00  0.00    +0.000 HD
BRANCH  56  59
ATOM     59  C   UNL     1      -0.777   4.800 139.371  0.00  0.00    +0.000 A 
ATOM     60  C   UNL     1      -0.008   3.758 139.552  0.00  0.00    +0.000 A 
ATOM     61  C   UNL     1      -0.558   2.519 140.182  0.00  0.00    +0.000 A 
ATOM     62  C   UNL     1      -0.746   1.749 139.138  0.00  0.00    +0.000 A 
ATOM     63  C   UNL     1      -2.036   1.713 139.094  0.00  0.00    +0.000 A 
ATOM     64  C   UNL     1      -1.995   3.747 139.296  0.00  0.00    +0.000 A 
ATOM     65  C   UNL     1      -1.523  -0.177 139.101  0.00  0.00    +0.000 C 
ATOM     66  O   UNL     1      -0.119  -0.221 139.561  0.00  0.00    +0.000 OA
ATOM     67  C   UNL     1       0.328   0.856 138.892  0.00  0.00    +0.000 C 
ATOM     68  O   UNL     1       1.382   1.372 138.562  0.00  0.00    +0.000 OA
ATOM     69  C   UNL     1      -2.787  -1.318 139.651  0.00  0.00    +0.000 A 
ATOM     70  C   UNL     1      -3.185  -1.542 140.976  0.00  0.00    +0.000 A 
ATOM     71  C   UNL     1      -4.324  -2.371 141.316  0.00  0.00    +0.000 A 
ATOM     72  C   UNL     1      -5.024  -3.100 140.351  0.00  0.00    +0.000 A 
ATOM     73  C   UNL     1      -4.551  -3.090 139.055  0.00  0.00    +0.000 A 
ATOM     74  C   UNL     1      -3.462  -2.224 138.719  0.00  0.00    +0.000 A 
ATOM     75  O   UNL     1      -3.112  -2.306 137.383  0.00  0.00    +0.000 OA
ATOM     76  C   UNL     1      -1.767  -2.258 137.152  0.00  0.00    +0.000 A 
ATOM     77  C   UNL     1      -1.322  -2.763 135.843  0.00  0.00    +0.000 A 
ATOM     78  C   UNL     1      -0.056  -3.246 135.506  0.00  0.00    +0.000 A 
ATOM     79  C   UNL     1       0.692  -3.613 136.584  0.00  0.00    +0.000 A 
ATOM     80  C   UNL     1       0.276  -3.005 137.939  0.00  0.00    +0.000 A 
ATOM     81  C   UNL     1      -0.883  -1.812 138.094  0.00  0.00    +0.000 A 
BRANCH  72  82
ATOM     82  O   UNL     1      -6.165  -3.814 140.595  0.00  0.00    +0.000 OA
ATOM     83  H   UNL     1      -6.673  -3.452 141.338  0.00  0.00    +0.000 HD
ENDBRANCH  72  82
BRANCH  78  84
ATOM     84  O   UNL     1       0.434  -3.305 134.229  0.00  0.00    +0.000 OA
ATOM     85  H   UNL     1      -0.219  -3.654 133.592  0.00  0.00    +0.000 HD
ENDBRANCH  78  84
ENDBRANCH  56  59
ENDBRANCH  54  55
ENDBRANCH  53  54
ENDBRANCH  52  53
ENDBRANCH  51  52
ENDBRANCH  42  51
ENDBRANCH  40  42
ENDBRANCH  37  38
ENDBRANCH  14  31
BRANCH   5  86
ATOM     86  C   UNL     1      -5.983   2.777 134.771  0.00  0.00    +0.000 A 
ATOM     87  C   UNL     1      -5.275   2.151 135.773  0.00  0.00    +0.000 A 
ATOM     88  C   UNL     1      -4.932   2.836 136.954  0.00  0.00    +0.000 A 
ATOM     89  C   UNL     1      -5.455   4.084 137.250  0.00  0.00    +0.000 A 
ATOM     90  C   UNL     1      -6.238   4.719 136.319  0.00  0.00    +0.000 A 
ATOM     91  C   UNL     1      -6.432   4.118 135.064  0.00  0.00    +0.000 A 
BRANCH  89  92
ATOM     92  O   UNL     1      -5.185   4.753 138.400  0.00  0.00    +0.000 OA
ATOM     93  H   UNL     1      -5.972   5.211 138.737  0.00  0.00    +0.000 HD
ENDBRANCH  89  92
ENDBRANCH   5  86
BRANCH   1  94
ATOM     94  C   UNL     1     -10.674   5.907 130.411  0.00  0.00    +0.000 C 
ATOM     95  C   UNL     1     -11.710   6.318 131.466  0.00  0.00    +0.000 C 
BRANCH  94  97
ATOM     96  C   UNL     1     -10.550   7.115 128.243  0.00  0.00    +0.000 C 
ATOM     97  C   UNL     1     -10.381   7.441 129.677  0.00  0.00    +0.000 C 
ENDBRANCH  94  97
ENDBRANCH   1  94
BRANCH  18  98
ATOM     98  C   UNL     1      -3.617   6.068 133.231  0.00  0.00    +0.000 C 
BRANCH  98  99
ATOM     99  C   UNL     1      -3.749   6.376 135.204  0.00  0.00    +0.000 C 
ATOM    100  N   UNL     1      -2.181   5.958 136.088  0.00  0.00    +0.000 N 
ATOM    101  O   UNL     1      -4.604   7.045 135.758  0.00  0.00    +0.000 OA
ATOM    102  H   UNL     1      -1.543   5.369 135.318  0.00  0.00    +0.000 HD
ATOM    103  H   UNL     1      -1.536   5.967 136.848  0.00  0.00    +0.000 HD
ENDBRANCH  98  99
ENDBRANCH  18  98
BRANCH  22 104
ATOM    104  C   UNL     1      -5.542   4.796 129.439  0.00  0.00    +0.000 C 
BRANCH 104 105
ATOM    105  C   UNL     1      -5.050   5.185 128.095  0.00  0.00    +0.000 C 
BRANCH 105 106
ATOM    106  C   UNL     1      -3.652   5.598 127.764  0.00  0.00    +0.000 C 
ATOM    107  N   UNL     1      -2.877   4.561 127.434  0.00  0.00    +0.000 N 
ATOM    108  O   UNL     1      -3.154   6.715 127.835  0.00  0.00    +0.000 OA
ATOM    109  H   UNL     1      -3.162   3.627 127.710  0.00  0.00    +0.000 HD
ATOM    110  H   UNL     1      -1.894   4.776 127.375  0.00  0.00    +0.000 HD
ENDBRANCH 105 106
ENDBRANCH 104 105
ENDBRANCH  22 104
TORSDOF 23
ENDMDL
MODEL 3
REMARK VINA RESULT:      -8.9      3.784      9.394
REMARK  Name = CHEMBL1790718
REMARK  25 active torsions:
REMARK  status: ('A' for Active; 'I' for Inactive)
REMARK    1  A    between atoms: C_1  and  C_2
REMARK    2  A    between atoms: C_2  and  C_3
REMARK    3  A    between atoms: C_3  and  C_4
REMARK    4  A    between atoms: C_3  and  C_5
REMARK    5  A    between atoms: C_9  and  C_10
REMARK    6  A    between atoms: C_13  and  O_14
REMARK    7  A    between atoms: C_25  and  C_26
REMARK    8  A    between atoms: C_32  and  C_33
REMARK    9  A    between atoms: N_35  and  C_36
REMARK   10  A    between atoms: C_36  and  C_37
REMARK   11  A    between atoms: C_36  and  C_69
REMARK   12  A    between atoms: C_37  and  C_38
REMARK   13  A    between atoms: C_38  and  C_39
REMARK   14  A    between atoms: C_39  and  C_40
REMARK   15  A    between atoms: C_40  and  N_41
REMARK   16  A    between atoms: C_42  and  C_44
REMARK   17  A    between atoms: C_57  and  O_58
REMARK   18  A    between atoms: C_64  and  O_65
REMARK   19  A    between atoms: N_71  and  C_72
REMARK   20  A    between atoms: C_72  and  N_73
REMARK   21  A    between atoms: C_77  and  C_78
REMARK   22  A    between atoms: C_78  and  C_79
REMARK   23  A    between atoms: C_85  and  C_86
REMARK   24  A    between atoms: C_86  and  C_87
REMARK   25  A    between atoms: C_87  and  C_88
REMARK                            x       y       z     vdW  Elec       q    Type
REMARK                         _______ _______ _______ _____ _____    ______ ____
ROOT
ATOM      1  C   UNL     1      -9.009   4.849 130.741  0.00  0.00    +0.000 C 
ATOM      2  N   UNL     1      -7.577   3.455 130.969  0.00  0.00    +0.000 N 
ATOM      3  C   UNL     1      -6.429   2.513 131.744  0.00  0.00    +0.000 C 
ATOM      4  O   UNL     1      -5.488   2.008 131.040  0.00  0.00    +0.000 OA
ATOM      5  C   UNL     1      -6.552   1.837 133.326  0.00  0.00    +0.000 C 
ATOM      6  N   UNL     1      -6.120   0.350 133.611  0.00  0.00    +0.000 N 
ATOM      7  C   UNL     1      -4.893  -0.255 133.927  0.00  0.00    +0.000 C 
ATOM      8  O   UNL     1      -4.849  -1.417 134.354  0.00  0.00    +0.000 OA
ATOM      9  C   UNL     1      -3.567   0.465 133.830  0.00  0.00    +0.000 C 
ATOM     10  C   UNL     1      -3.683   1.862 133.477  0.00  0.00    +0.000 C 
ATOM     11  S   UNL     1      -2.178   2.519 133.083  0.00  0.00    +0.000 S 
ATOM     12  S   UNL     1      -3.255   4.157 131.832  0.00  0.00    +0.000 S 
ATOM     13  C   UNL     1      -1.790   6.231 131.825  0.00  0.00    +0.000 C 
ATOM     14  C   UNL     1      -2.050   7.675 131.847  0.00  0.00    +0.000 C 
ATOM     15  N   UNL     1      -2.902   7.761 130.788  0.00  0.00    +0.000 N 
ATOM     16  C   UNL     1      -4.193   7.389 130.986  0.00  0.00    +0.000 C 
ATOM     17  O   UNL     1      -4.998   7.889 130.184  0.00  0.00    +0.000 OA
ATOM     18  C   UNL     1      -4.622   6.155 131.960  0.00  0.00    +0.000 C 
ATOM     19  N   UNL     1      -5.984   6.372 132.170  0.00  0.00    +0.000 N 
ATOM     20  C   UNL     1      -6.921   6.272 131.194  0.00  0.00    +0.000 C 
ATOM     21  O   UNL     1      -7.951   6.838 131.591  0.00  0.00    +0.000 OA
ATOM     22  C   UNL     1      -6.738   5.504 129.575  0.00  0.00    +0.000 C 
ATOM     23  N   UNL     1      -7.718   4.479 128.916  0.00  0.00    +0.000 N 
ATOM     24  C   UNL     1      -8.977   4.188 129.451  0.00  0.00    +0.000 C 
ATOM     25  O   UNL     1      -9.753   3.273 129.222  0.00  0.00    +0.000 OA
ATOM     26  H   UNL     1      -7.114   2.816 130.210  0.00  0.00    +0.000 HD
ATOM     27  H   UNL     1      -6.896  -0.248 133.891  0.00  0.00    +0.000 HD
ATOM     28  H   UNL     1      -2.475   7.817 129.859  0.00  0.00    +0.000 HD
ATOM     29  H   UNL     1      -6.231   6.837 133.021  0.00  0.00    +0.000 HD
ATOM     30  H   UNL     1      -7.300   3.615 129.126  0.00  0.00    +0.000 HD
ENDROOT
BRANCH  14  31
ATOM     31  C   UNL     1      -2.661   8.388 133.065  0.00  0.00    +0.000 C 
ATOM     32  O   UNL     1      -3.705   8.045 133.638  0.00  0.00    +0.000 OA
ATOM     33  N   UNL     1      -2.065   9.584 133.371  0.00  0.00    +0.000 N 
ATOM     34  C   UNL     1      -1.216  10.503 132.597  0.00  0.00    +0.000 C 
ATOM     35  C   UNL     1      -0.098  10.735 133.519  0.00  0.00    +0.000 C 
ATOM     36  C   UNL     1      -0.857  10.891 134.813  0.00  0.00    +0.000 C 
ATOM     37  C   UNL     1      -2.100   9.978 134.740  0.00  0.00    +0.000 C 
BRANCH  37  38
ATOM     38  C   UNL     1      -2.006   8.814 135.728  0.00  0.00    +0.000 C 
ATOM     39  O   UNL     1      -1.168   7.920 135.694  0.00  0.00    +0.000 OA
ATOM     40  N   UNL     1      -2.987   8.867 136.676  0.00  0.00    +0.000 N 
ATOM     41  H   UNL     1      -3.778   9.473 136.505  0.00  0.00    +0.000 HD
BRANCH  40  42
ATOM     42  C   UNL     1      -2.965   8.180 137.956  0.00  0.00    +0.000 C 
BRANCH  42  43
ATOM     43  C   UNL     1      -4.308   8.491 138.701  0.00  0.00    +0.000 C 
ATOM     44  O   UNL     1      -4.398   9.484 139.430  0.00  0.00    +0.000 OA
ATOM     45  N   UNL     1      -5.372   7.620 138.509  0.00  0.00    +0.000 N 
ATOM     46  H   UNL     1      -5.280   6.792 137.937  0.00  0.00    +0.000 HD
BRANCH  45  47
ATOM     47  C   UNL     1      -6.631   7.841 139.170  0.00  0.00    +0.000 C 
BRANCH  47  48
ATOM     48  N   UNL     1      -7.291   8.972 138.552  0.00  0.00    +0.000 NA
ATOM     49  H   UNL     1      -6.611   9.579 138.099  0.00  0.00    +0.000 HD
ATOM     50  H   UNL     1      -7.684   9.556 139.300  0.00  0.00    +0.000 HD
ENDBRANCH  47  48
ENDBRANCH  45  47
ENDBRANCH  42  43
BRANCH  42  51
ATOM     51  C   UNL     1      -1.777   8.643 138.809  0.00  0.00    +0.000 C 
BRANCH  51  52
ATOM     52  C   UNL     1      -0.924   7.488 139.317  0.00  0.00    +0.000 C 
BRANCH  52  53
ATOM     53  C   UNL     1      -1.621   6.543 140.256  0.00  0.00    +0.000 C 
BRANCH  53  54
ATOM     54  C   UNL     1      -1.439   5.064 139.835  0.00  0.00    +0.000 C 
BRANCH  54  55
ATOM     55  N   UNL     1      -2.803   4.348 139.624  0.00  0.00    +0.000 N 
ATOM     56  C   UNL     1      -3.251   3.172 140.370  0.00  0.00    +0.000 C 
ATOM     57  O   UNL     1      -2.422   2.900 141.271  0.00  0.00    +0.000 OA
ATOM     58  H   UNL     1      -3.335   4.773 138.891  0.00  0.00    +0.000 HD
BRANCH  56  59
ATOM     59  C   UNL     1      -4.610   1.944 140.194  0.00  0.00    +0.000 A 
ATOM     60  C   UNL     1      -4.125   0.862 139.642  0.00  0.00    +0.000 A 
ATOM     61  C   UNL     1      -4.734  -0.470 139.940  0.00  0.00    +0.000 A 
ATOM     62  C   UNL     1      -5.456  -0.681 138.866  0.00  0.00    +0.000 A 
ATOM     63  C   UNL     1      -6.647  -0.573 139.352  0.00  0.00    +0.000 A 
ATOM     64  C   UNL     1      -6.012   1.151 140.251  0.00  0.00    +0.000 A 
ATOM     65  C   UNL     1      -6.673  -2.311 138.451  0.00  0.00    +0.000 C 
ATOM     66  O   UNL     1      -5.260  -2.684 138.234  0.00  0.00    +0.000 OA
ATOM     67  C   UNL     1      -4.799  -1.470 137.888  0.00  0.00    +0.000 C 
ATOM     68  O   UNL     1      -3.822  -0.962 137.365  0.00  0.00    +0.000 OA
ATOM     69  C   UNL     1      -7.929  -3.455 139.015  0.00  0.00    +0.000 A 
ATOM     70  C   UNL     1      -7.902  -4.201 140.201  0.00  0.00    +0.000 A 
ATOM     71  C   UNL     1      -9.033  -4.985 140.652  0.00  0.00    +0.000 A 
ATOM     72  C   UNL     1     -10.181  -5.146 139.872  0.00  0.00    +0.000 A 
ATOM     73  C   UNL     1     -10.188  -4.610 138.601  0.00  0.00    +0.000 A 
ATOM     74  C   UNL     1      -9.089  -3.790 138.187  0.00  0.00    +0.000 A 
ATOM     75  O   UNL     1      -9.245  -3.307 136.900  0.00  0.00    +0.000 OA
ATOM     76  C   UNL     1      -8.093  -3.287 136.167  0.00  0.00    +0.000 A 
ATOM     77  C   UNL     1      -8.262  -3.204 134.707  0.00  0.00    +0.000 A 
ATOM     78  C   UNL     1      -7.356  -3.604 133.723  0.00  0.00    +0.000 A 
ATOM     79  C   UNL     1      -6.411  -4.476 134.175  0.00  0.00    +0.000 A 
ATOM     80  C   UNL     1      -6.173  -4.492 135.698  0.00  0.00    +0.000 A 
ATOM     81  C   UNL     1      -6.859  -3.387 136.746  0.00  0.00    +0.000 A 
BRANCH  72  82
ATOM     82  O   UNL     1     -11.318  -5.784 140.286  0.00  0.00    +0.000 OA
ATOM     83  H   UNL     1     -12.013  -5.161 140.553  0.00  0.00    +0.000 HD
ENDBRANCH  72  82
BRANCH  78  84
ATOM     84  O   UNL     1      -7.357  -3.139 132.435  0.00  0.00    +0.000 OA
ATOM     85  H   UNL     1      -6.622  -2.520 132.258  0.00  0.00    +0.000 HD
ENDBRANCH  78  84
ENDBRANCH  56  59
ENDBRANCH  54  55
ENDBRANCH  53  54
ENDBRANCH  52  53
ENDBRANCH  51  52
ENDBRANCH  42  51
ENDBRANCH  40  42
ENDBRANCH  37  38
ENDBRANCH  14  31
BRANCH   5  86
ATOM     86  C   UNL     1      -6.071   2.679 134.534  0.00  0.00    +0.000 A 
ATOM     87  C   UNL     1      -5.399   2.025 135.543  0.00  0.00    +0.000 A 
ATOM     88  C   UNL     1      -5.101   2.677 136.755  0.00  0.00    +0.000 A 
ATOM     89  C   UNL     1      -5.638   3.915 137.067  0.00  0.00    +0.000 A 
ATOM     90  C   UNL     1      -6.388   4.575 136.126  0.00  0.00    +0.000 A 
ATOM     91  C   UNL     1      -6.534   4.010 134.848  0.00  0.00    +0.000 A 
BRANCH  89  92
ATOM     92  O   UNL     1      -5.411   4.552 138.245  0.00  0.00    +0.000 OA
ATOM     93  H   UNL     1      -4.512   4.383 138.572  0.00  0.00    +0.000 HD
ENDBRANCH  89  92
ENDBRANCH   5  86
BRANCH   1  94
ATOM     94  C   UNL     1     -10.536   5.955 130.046  0.00  0.00    +0.000 C 
ATOM     95  C   UNL     1     -11.611   6.357 131.065  0.00  0.00    +0.000 C 
BRANCH  94  97
ATOM     96  C   UNL     1     -10.512   7.258 127.930  0.00  0.00    +0.000 C 
ATOM     97  C   UNL     1     -10.197   7.500 129.356  0.00  0.00    +0.000 C 
ENDBRANCH  94  97
ENDBRANCH   1  94
BRANCH  18  98
ATOM     98  C   UNL     1      -3.611   5.981 133.180  0.00  0.00    +0.000 C 
BRANCH  98  99
ATOM     99  C   UNL     1      -3.885   5.981 135.162  0.00  0.00    +0.000 C 
ATOM    100  N   UNL     1      -2.472   5.212 136.068  0.00  0.00    +0.000 N 
ATOM    101  O   UNL     1      -4.698   6.663 135.761  0.00  0.00    +0.000 OA
ATOM    102  H   UNL     1      -1.844   4.672 135.255  0.00  0.00    +0.000 HD
ATOM    103  H   UNL     1      -1.904   5.008 136.862  0.00  0.00    +0.000 HD
ENDBRANCH  98  99
ENDBRANCH  18  98
BRANCH  22 104
ATOM    104  C   UNL     1      -5.376   4.818 129.277  0.00  0.00    +0.000 C 
BRANCH 104 105
ATOM    105  C   UNL     1      -4.777   5.301 128.008  0.00  0.00    +0.000 C 
BRANCH 105 106
ATOM    106  C   UNL     1      -3.341   5.665 127.804  0.00  0.00    +0.000 C 
ATOM    107  N   UNL     1      -2.564   4.594 127.618  0.00  0.00    +0.000 N 
ATOM    108  O   UNL     1      -2.824   6.774 127.863  0.00  0.00    +0.000 OA
ATOM    109  H   UNL     1      -2.903   3.684 127.915  0.00  0.00    +0.000 HD
ATOM    110  H   UNL     1      -1.576   4.784 127.652  0.00  0.00    +0.000 HD
ENDBRANCH 105 106
ENDBRANCH 104 105
ENDBRANCH  22 104
TORSDOF 23
ENDMDL
MODEL 4
REMARK VINA RESULT:      -8.8      3.605      9.649
REMARK  Name = CHEMBL1790718
REMARK  25 active torsions:
REMARK  status: ('A' for Active; 'I' for Inactive)
REMARK    1  A    between atoms: C_1  and  C_2
REMARK    2  A    between atoms: C_2  and  C_3
REMARK    3  A    between atoms: C_3  and  C_4
REMARK    4  A    between atoms: C_3  and  C_5
REMARK    5  A    between atoms: C_9  and  C_10
REMARK    6  A    between atoms: C_13  and  O_14
REMARK    7  A    between atoms: C_25  and  C_26
REMARK    8  A    between atoms: C_32  and  C_33
REMARK    9  A    between atoms: N_35  and  C_36
REMARK   10  A    between atoms: C_36  and  C_37
REMARK   11  A    between atoms: C_36  and  C_69
REMARK   12  A    between atoms: C_37  and  C_38
REMARK   13  A    between atoms: C_38  and  C_39
REMARK   14  A    between atoms: C_39  and  C_40
REMARK   15  A    between atoms: C_40  and  N_41
REMARK   16  A    between atoms: C_42  and  C_44
REMARK   17  A    between atoms: C_57  and  O_58
REMARK   18  A    between atoms: C_64  and  O_65
REMARK   19  A    between atoms: N_71  and  C_72
REMARK   20  A    between atoms: C_72  and  N_73
REMARK   21  A    between atoms: C_77  and  C_78
REMARK   22  A    between atoms: C_78  and  C_79
REMARK   23  A    between atoms: C_85  and  C_86
REMARK   24  A    between atoms: C_86  and  C_87
REMARK   25  A    between atoms: C_87  and  C_88
REMARK                            x       y       z     vdW  Elec       q    Type
REMARK                         _______ _______ _______ _____ _____    ______ ____
ROOT
ATOM      1  C   UNL     1      -9.076   4.817 131.027  0.00  0.00    +0.000 C 
ATOM      2  N   UNL     1      -7.618   3.445 131.213  0.00  0.00    +0.000 N 
ATOM      3  C   UNL     1      -6.426   2.528 131.950  0.00  0.00    +0.000 C 
ATOM      4  O   UNL     1      -5.510   2.025 131.213  0.00  0.00    +0.000 OA
ATOM      5  C   UNL     1      -6.472   1.874 133.546  0.00  0.00    +0.000 C 
ATOM      6  N   UNL     1      -6.009   0.396 133.832  0.00  0.00    +0.000 N 
ATOM      7  C   UNL     1      -4.762  -0.189 134.103  0.00  0.00    +0.000 C 
ATOM      8  O   UNL     1      -4.685  -1.345 134.544  0.00  0.00    +0.000 OA
ATOM      9  C   UNL     1      -3.451   0.545 133.939  0.00  0.00    +0.000 C 
ATOM     10  C   UNL     1      -3.599   1.936 133.572  0.00  0.00    +0.000 C 
ATOM     11  S   UNL     1      -2.121   2.606 133.105  0.00  0.00    +0.000 S 
ATOM     12  S   UNL     1      -3.273   4.212 131.879  0.00  0.00    +0.000 S 
ATOM     13  C   UNL     1      -1.836   6.303 131.780  0.00  0.00    +0.000 C 
ATOM     14  C   UNL     1      -2.113   7.745 131.793  0.00  0.00    +0.000 C 
ATOM     15  N   UNL     1      -3.012   7.804 130.771  0.00  0.00    +0.000 N 
ATOM     16  C   UNL     1      -4.288   7.419 131.029  0.00  0.00    +0.000 C 
ATOM     17  O   UNL     1      -5.133   7.898 130.255  0.00  0.00    +0.000 OA
ATOM     18  C   UNL     1      -4.659   6.195 132.037  0.00  0.00    +0.000 C 
ATOM     19  N   UNL     1      -6.013   6.398 132.303  0.00  0.00    +0.000 N 
ATOM     20  C   UNL     1      -6.989   6.272 131.369  0.00  0.00    +0.000 C 
ATOM     21  O   UNL     1      -8.008   6.831 131.803  0.00  0.00    +0.000 OA
ATOM     22  C   UNL     1      -6.866   5.483 129.755  0.00  0.00    +0.000 C 
ATOM     23  N   UNL     1      -7.860   4.437 129.153  0.00  0.00    +0.000 N 
ATOM     24  C   UNL     1      -9.092   4.138 129.746  0.00  0.00    +0.000 C 
ATOM     25  O   UNL     1      -9.865   3.210 129.564  0.00  0.00    +0.000 OA
ATOM     26  H   UNL     1      -7.180   2.800 130.443  0.00  0.00    +0.000 HD
ATOM     27  H   UNL     1      -6.764  -0.208 134.153  0.00  0.00    +0.000 HD
ATOM     28  H   UNL     1      -2.626   7.853 129.823  0.00  0.00    +0.000 HD
ATOM     29  H   UNL     1      -6.229   6.872 133.158  0.00  0.00    +0.000 HD
ATOM     30  H   UNL     1      -7.423   3.581 129.357  0.00  0.00    +0.000 HD
ENDROOT
BRANCH  14  31
ATOM     31  C   UNL     1      -2.681   8.468 133.026  0.00  0.00    +0.000 C 
ATOM     32  O   UNL     1      -3.531   7.997 133.795  0.00  0.00    +0.000 OA
ATOM     33  N   UNL     1      -2.320   9.787 133.116  0.00  0.00    +0.000 N 
ATOM     34  C   UNL     1      -1.813  10.753 132.130  0.00  0.00    +0.000 C 
ATOM     35  C   UNL     1      -0.650  11.316 132.825  0.00  0.00    +0.000 C 
ATOM     36  C   UNL     1      -1.229  11.478 134.209  0.00  0.00    +0.000 C 
ATOM     37  C   UNL     1      -2.240  10.334 134.430  0.00  0.00    +0.000 C 
BRANCH  37  38
ATOM     38  C   UNL     1      -1.754   9.344 135.490  0.00  0.00    +0.000 C 
ATOM     39  O   UNL     1      -0.745   8.653 135.406  0.00  0.00    +0.000 OA
ATOM     40  N   UNL     1      -2.588   9.300 136.570  0.00  0.00    +0.000 N 
ATOM     41  H   UNL     1      -3.512   9.698 136.471  0.00  0.00    +0.000 HD
BRANCH  40  42
ATOM     42  C   UNL     1      -2.241   8.793 137.887  0.00  0.00    +0.000 C 
BRANCH  42  43
ATOM     43  C   UNL     1      -3.519   8.132 138.508  0.00  0.00    +0.000 C 
ATOM     44  O   UNL     1      -3.486   6.959 138.896  0.00  0.00    +0.000 OA
ATOM     45  N   UNL     1      -4.668   8.906 138.601  0.00  0.00    +0.000 N 
ATOM     46  H   UNL     1      -4.696   9.853 138.251  0.00  0.00    +0.000 HD
BRANCH  45  47
ATOM     47  C   UNL     1      -5.879   8.358 139.152  0.00  0.00    +0.000 C 
BRANCH  47  48
ATOM     48  N   UNL     1      -6.488   7.487 138.170  0.00  0.00    +0.000 NA
ATOM     49  H   UNL     1      -5.853   6.733 137.918  0.00  0.00    +0.000 HD
ATOM     50  H   UNL     1      -6.598   8.020 137.299  0.00  0.00    +0.000 HD
ENDBRANCH  47  48
ENDBRANCH  45  47
ENDBRANCH  42  43
BRANCH  42  51
ATOM     51  C   UNL     1      -1.745   9.922 138.799  0.00  0.00    +0.000 C 
BRANCH  51  52
ATOM     52  C   UNL     1      -0.953   9.416 139.997  0.00  0.00    +0.000 C 
BRANCH  52  53
ATOM     53  C   UNL     1      -1.719   9.352 141.290  0.00  0.00    +0.000 C 
BRANCH  53  54
ATOM     54  C   UNL     1      -1.476   8.023 142.046  0.00  0.00    +0.000 C 
BRANCH  54  55
ATOM     55  N   UNL     1      -1.301   6.824 141.072  0.00  0.00    +0.000 N 
ATOM     56  C   UNL     1      -1.271   5.419 141.478  0.00  0.00    +0.000 C 
ATOM     57  O   UNL     1      -1.516   5.325 142.703  0.00  0.00    +0.000 OA
ATOM     58  H   UNL     1      -1.182   7.129 140.126  0.00  0.00    +0.000 HD
BRANCH  56  59
ATOM     59  C   UNL     1      -0.809   3.829 140.673  0.00  0.00    +0.000 A 
ATOM     60  C   UNL     1      -1.888   3.291 140.164  0.00  0.00    +0.000 A 
ATOM     61  C   UNL     1      -1.792   2.413 138.959  0.00  0.00    +0.000 A 
ATOM     62  C   UNL     1      -1.883   1.218 139.491  0.00  0.00    +0.000 A 
ATOM     63  C   UNL     1      -0.683   0.779 139.303  0.00  0.00    +0.000 A 
ATOM     64  C   UNL     1      -0.025   2.561 140.061  0.00  0.00    +0.000 A 
ATOM     65  C   UNL     1      -1.812  -0.616 138.519  0.00  0.00    +0.000 C 
ATOM     66  O   UNL     1      -3.144  -0.007 138.325  0.00  0.00    +0.000 OA
ATOM     67  C   UNL     1      -3.199   0.689 139.473  0.00  0.00    +0.000 C 
ATOM     68  O   UNL     1      -4.014   1.271 140.169  0.00  0.00    +0.000 OA
ATOM     69  C   UNL     1      -1.012  -1.668 137.312  0.00  0.00    +0.000 A 
ATOM     70  C   UNL     1      -0.710  -1.330 135.986  0.00  0.00    +0.000 A 
ATOM     71  C   UNL     1       0.078  -2.190 135.125  0.00  0.00    +0.000 A 
ATOM     72  C   UNL     1       0.482  -3.467 135.523  0.00  0.00    +0.000 A 
ATOM     73  C   UNL     1       0.037  -3.943 136.739  0.00  0.00    +0.000 A 
ATOM     74  C   UNL     1      -0.691  -3.066 137.605  0.00  0.00    +0.000 A 
ATOM     75  O   UNL     1      -1.052  -3.675 138.794  0.00  0.00    +0.000 OA
ATOM     76  C   UNL     1      -2.301  -3.342 139.236  0.00  0.00    +0.000 A 
ATOM     77  C   UNL     1      -2.897  -4.257 140.224  0.00  0.00    +0.000 A 
ATOM     78  C   UNL     1      -4.253  -4.436 140.505  0.00  0.00    +0.000 A 
ATOM     79  C   UNL     1      -5.077  -3.990 139.515  0.00  0.00    +0.000 A 
ATOM     80  C   UNL     1      -4.474  -2.961 138.539  0.00  0.00    +0.000 A 
ATOM     81  C   UNL     1      -2.976  -2.254 138.760  0.00  0.00    +0.000 A 
BRANCH  72  82
ATOM     82  O   UNL     1       1.312  -4.278 134.800  0.00  0.00    +0.000 OA
ATOM     83  H   UNL     1       0.833  -4.784 134.124  0.00  0.00    +0.000 HD
ENDBRANCH  72  82
BRANCH  78  84
ATOM     84  O   UNL     1      -4.738  -4.954 141.675  0.00  0.00    +0.000 OA
ATOM     85  H   UNL     1      -4.071  -4.960 142.388  0.00  0.00    +0.000 HD
ENDBRANCH  78  84
ENDBRANCH  56  59
ENDBRANCH  54  55
ENDBRANCH  53  54
ENDBRANCH  52  53
ENDBRANCH  51  52
ENDBRANCH  42  51
ENDBRANCH  40  42
ENDBRANCH  37  38
ENDBRANCH  14  31
BRANCH   5  86
ATOM     86  C   UNL     1      -5.951   2.738 134.719  0.00  0.00    +0.000 A 
ATOM     87  C   UNL     1      -5.239   2.105 135.715  0.00  0.00    +0.000 A 
ATOM     88  C   UNL     1      -4.901   2.780 136.903  0.00  0.00    +0.000 A 
ATOM     89  C   UNL     1      -5.430   4.021 137.212  0.00  0.00    +0.000 A 
ATOM     90  C   UNL     1      -6.216   4.662 136.288  0.00  0.00    +0.000 A 
ATOM     91  C   UNL     1      -6.407   4.073 135.027  0.00  0.00    +0.000 A 
BRANCH  89  92
ATOM     92  O   UNL     1      -5.163   4.680 138.369  0.00  0.00    +0.000 OA
ATOM     93  H   UNL     1      -4.709   4.106 139.007  0.00  0.00    +0.000 HD
ENDBRANCH  89  92
ENDBRANCH   5  86
BRANCH   1  94
ATOM     94  C   UNL     1     -10.646   5.894 130.383  0.00  0.00    +0.000 C 
ATOM     95  C   UNL     1     -11.670   6.317 131.446  0.00  0.00    +0.000 C 
BRANCH  94  97
ATOM     96  C   UNL     1     -10.550   7.089 128.206  0.00  0.00    +0.000 C 
ATOM     97  C   UNL     1     -10.355   7.422 129.636  0.00  0.00    +0.000 C 
ENDBRANCH  94  97
ENDBRANCH   1  94
BRANCH  18  98
ATOM     98  C   UNL     1      -3.594   6.051 133.215  0.00  0.00    +0.000 C 
BRANCH  98  99
ATOM     99  C   UNL     1      -3.734   6.324 135.193  0.00  0.00    +0.000 C 
ATOM    100  N   UNL     1      -2.186   5.846 136.080  0.00  0.00    +0.000 N 
ATOM    101  O   UNL     1      -4.576   7.003 135.753  0.00  0.00    +0.000 OA
ATOM    102  H   UNL     1      -1.557   5.256 135.303  0.00  0.00    +0.000 HD
ATOM    103  H   UNL     1      -1.547   5.823 136.845  0.00  0.00    +0.000 HD
ENDBRANCH  98  99
ENDBRANCH  18  98
BRANCH  22 104
ATOM    104  C   UNL     1      -5.510   4.810 129.408  0.00  0.00    +0.000 C 
BRANCH 104 105
ATOM    105  C   UNL     1      -5.006   5.231 128.078  0.00  0.00    +0.000 C 
BRANCH 105 106
ATOM    106  C   UNL     1      -3.593   5.602 127.757  0.00  0.00    +0.000 C 
ATOM    107  N   UNL     1      -2.855   4.547 127.402  0.00  0.00    +0.000 N 
ATOM    108  O   UNL     1      -3.056   6.699 127.857  0.00  0.00    +0.000 OA
ATOM    109  H   UNL     1      -3.174   3.617 127.654  0.00  0.00    +0.000 HD
ATOM    110  H   UNL     1      -1.866   4.727 127.349  0.00  0.00    +0.000 HD
ENDBRANCH 105 106
ENDBRANCH 104 105
ENDBRANCH  22 104
TORSDOF 23
ENDMDL
MODEL 5
REMARK VINA RESULT:      -8.7      3.980      8.875
REMARK  Name = CHEMBL1790718
REMARK  25 active torsions:
REMARK  status: ('A' for Active; 'I' for Inactive)
REMARK    1  A    between atoms: C_1  and  C_2
REMARK    2  A    between atoms: C_2  and  C_3
REMARK    3  A    between atoms: C_3  and  C_4
REMARK    4  A    between atoms: C_3  and  C_5
REMARK    5  A    between atoms: C_9  and  C_10
REMARK    6  A    between atoms: C_13  and  O_14
REMARK    7  A    between atoms: C_25  and  C_26
REMARK    8  A    between atoms: C_32  and  C_33
REMARK    9  A    between atoms: N_35  and  C_36
REMARK   10  A    between atoms: C_36  and  C_37
REMARK   11  A    between atoms: C_36  and  C_69
REMARK   12  A    between atoms: C_37  and  C_38
REMARK   13  A    between atoms: C_38  and  C_39
REMARK   14  A    between atoms: C_39  and  C_40
REMARK   15  A    between atoms: C_40  and  N_41
REMARK   16  A    between atoms: C_42  and  C_44
REMARK   17  A    between atoms: C_57  and  O_58
REMARK   18  A    between atoms: C_64  and  O_65
REMARK   19  A    between atoms: N_71  and  C_72
REMARK   20  A    between atoms: C_72  and  N_73
REMARK   21  A    between atoms: C_77  and  C_78
REMARK   22  A    between atoms: C_78  and  C_79
REMARK   23  A    between atoms: C_85  and  C_86
REMARK   24  A    between atoms: C_86  and  C_87
REMARK   25  A    between atoms: C_87  and  C_88
REMARK                            x       y       z     vdW  Elec       q    Type
REMARK                         _______ _______ _______ _____ _____    ______ ____
ROOT
ATOM      1  C   UNL     1      -9.108   4.821 131.321  0.00  0.00    +0.000 C 
ATOM      2  N   UNL     1      -7.700   3.389 131.421  0.00  0.00    +0.000 N 
ATOM      3  C   UNL     1      -6.510   2.418 132.090  0.00  0.00    +0.000 C 
ATOM      4  O   UNL     1      -5.655   1.884 131.304  0.00  0.00    +0.000 OA
ATOM      5  C   UNL     1      -6.501   1.752 133.682  0.00  0.00    +0.000 C 
ATOM      6  N   UNL     1      -6.085   0.255 133.935  0.00  0.00    +0.000 N 
ATOM      7  C   UNL     1      -4.850  -0.383 134.137  0.00  0.00    +0.000 C 
ATOM      8  O   UNL     1      -4.798  -1.544 134.565  0.00  0.00    +0.000 OA
ATOM      9  C   UNL     1      -3.520   0.299 133.910  0.00  0.00    +0.000 C 
ATOM     10  C   UNL     1      -3.630   1.698 133.560  0.00  0.00    +0.000 C 
ATOM     11  S   UNL     1      -2.152   2.311 133.021  0.00  0.00    +0.000 S 
ATOM     12  S   UNL     1      -3.298   3.972 131.866  0.00  0.00    +0.000 S 
ATOM     13  C   UNL     1      -1.784   6.004 131.706  0.00  0.00    +0.000 C 
ATOM     14  C   UNL     1      -2.001   7.456 131.743  0.00  0.00    +0.000 C 
ATOM     15  N   UNL     1      -2.948   7.561 130.769  0.00  0.00    +0.000 N 
ATOM     16  C   UNL     1      -4.223   7.226 131.090  0.00  0.00    +0.000 C 
ATOM     17  O   UNL     1      -5.087   7.745 130.365  0.00  0.00    +0.000 OA
ATOM     18  C   UNL     1      -4.592   6.009 132.109  0.00  0.00    +0.000 C 
ATOM     19  N   UNL     1      -5.921   6.265 132.446  0.00  0.00    +0.000 N 
ATOM     20  C   UNL     1      -6.949   6.186 131.563  0.00  0.00    +0.000 C 
ATOM     21  O   UNL     1      -7.920   6.783 132.053  0.00  0.00    +0.000 OA
ATOM     22  C   UNL     1      -6.941   5.407 129.940  0.00  0.00    +0.000 C 
ATOM     23  N   UNL     1      -8.007   4.407 129.384  0.00  0.00    +0.000 N 
ATOM     24  C   UNL     1      -9.217   4.153 130.038  0.00  0.00    +0.000 C 
ATOM     25  O   UNL     1     -10.037   3.260 129.890  0.00  0.00    +0.000 OA
ATOM     26  H   UNL     1      -7.329   2.733 130.626  0.00  0.00    +0.000 HD
ATOM     27  H   UNL     1      -6.846  -0.321 134.291  0.00  0.00    +0.000 HD
ATOM     28  H   UNL     1      -2.609   7.601 129.803  0.00  0.00    +0.000 HD
ATOM     29  H   UNL     1      -6.073   6.740 133.314  0.00  0.00    +0.000 HD
ATOM     30  H   UNL     1      -7.595   3.532 129.559  0.00  0.00    +0.000 HD
ENDROOT
BRANCH  14  31
ATOM     31  C   UNL     1      -2.474   8.191 133.008  0.00  0.00    +0.000 C 
ATOM     32  O   UNL     1      -2.955   7.641 134.010  0.00  0.00    +0.000 OA
ATOM     33  N   UNL     1      -2.512   9.555 132.882  0.00  0.00    +0.000 N 
ATOM     34  C   UNL     1      -2.544  10.449 131.714  0.00  0.00    +0.000 C 
ATOM     35  C   UNL     1      -1.479  11.406 132.033  0.00  0.00    +0.000 C 
ATOM     36  C   UNL     1      -1.762  11.630 133.499  0.00  0.00    +0.000 C 
ATOM     37  C   UNL     1      -2.313  10.308 134.075  0.00  0.00    +0.000 C 
BRANCH  37  38
ATOM     38  C   UNL     1      -1.334   9.669 135.062  0.00  0.00    +0.000 C 
ATOM     39  O   UNL     1      -0.146   9.459 134.847  0.00  0.00    +0.000 OA
ATOM     40  N   UNL     1      -1.939   9.337 136.240  0.00  0.00    +0.000 N 
ATOM     41  H   UNL     1      -2.950   9.307 136.261  0.00  0.00    +0.000 HD
BRANCH  40  42
ATOM     42  C   UNL     1      -1.259   9.090 137.500  0.00  0.00    +0.000 C 
BRANCH  42  43
ATOM     43  C   UNL     1      -1.973   7.892 138.214  0.00  0.00    +0.000 C 
ATOM     44  O   UNL     1      -3.194   7.918 138.399  0.00  0.00    +0.000 OA
ATOM     45  N   UNL     1      -1.189   6.821 138.622  0.00  0.00    +0.000 N 
ATOM     46  H   UNL     1      -0.186   6.823 138.496  0.00  0.00    +0.000 HD
BRANCH  45  47
ATOM     47  C   UNL     1      -1.779   5.692 139.291  0.00  0.00    +0.000 C 
BRANCH  47  48
ATOM     48  N   UNL     1      -1.642   4.524 138.447  0.00  0.00    +0.000 NA
ATOM     49  H   UNL     1      -2.483   4.384 137.891  0.00  0.00    +0.000 HD
ATOM     50  H   UNL     1      -1.606   3.697 139.055  0.00  0.00    +0.000 HD
ENDBRANCH  47  48
ENDBRANCH  45  47
ENDBRANCH  42  43
BRANCH  42  51
ATOM     51  C   UNL     1      -1.301  10.332 138.401  0.00  0.00    +0.000 C 
BRANCH  51  52
ATOM     52  C   UNL     1      -2.276  11.392 137.907  0.00  0.00    +0.000 C 
BRANCH  52  53
ATOM     53  C   UNL     1      -3.265  11.878 138.931  0.00  0.00    +0.000 C 
BRANCH  53  54
ATOM     54  C   UNL     1      -4.715  11.465 138.581  0.00  0.00    +0.000 C 
BRANCH  54  55
ATOM     55  N   UNL     1      -5.131  10.145 139.290  0.00  0.00    +0.000 N 
ATOM     56  C   UNL     1      -5.902   9.070 138.665  0.00  0.00    +0.000 C 
ATOM     57  O   UNL     1      -6.078   9.326 137.450  0.00  0.00    +0.000 OA
ATOM     58  H   UNL     1      -4.831  10.127 140.244  0.00  0.00    +0.000 HD
BRANCH  56  59
ATOM     59  C   UNL     1      -6.783   7.568 139.260  0.00  0.00    +0.000 A 
ATOM     60  C   UNL     1      -6.141   7.092 140.296  0.00  0.00    +0.000 A 
ATOM     61  C   UNL     1      -6.879   6.341 141.356  0.00  0.00    +0.000 A 
ATOM     62  C   UNL     1      -6.586   5.098 141.057  0.00  0.00    +0.000 A 
ATOM     63  C   UNL     1      -7.733   4.673 140.643  0.00  0.00    +0.000 A 
ATOM     64  C   UNL     1      -7.829   6.365 139.497  0.00  0.00    +0.000 A 
ATOM     65  C   UNL     1      -7.229   3.373 142.017  0.00  0.00    +0.000 C 
ATOM     66  O   UNL     1      -6.155   4.006 142.810  0.00  0.00    +0.000 OA
ATOM     67  C   UNL     1      -5.490   4.582 141.793  0.00  0.00    +0.000 C 
ATOM     68  O   UNL     1      -4.408   5.094 141.563  0.00  0.00    +0.000 OA
ATOM     69  C   UNL     1      -8.580   2.445 142.734  0.00  0.00    +0.000 A 
ATOM     70  C   UNL     1      -9.501   2.914 143.682  0.00  0.00    +0.000 A 
ATOM     71  C   UNL     1     -10.656   2.142 144.092  0.00  0.00    +0.000 A 
ATOM     72  C   UNL     1     -10.861   0.829 143.661  0.00  0.00    +0.000 A 
ATOM     73  C   UNL     1      -9.881   0.233 142.893  0.00  0.00    +0.000 A 
ATOM     74  C   UNL     1      -8.773   1.022 142.447  0.00  0.00    +0.000 A 
ATOM     75  O   UNL     1      -7.885   0.297 141.672  0.00  0.00    +0.000 OA
ATOM     76  C   UNL     1      -6.572   0.590 141.902  0.00  0.00    +0.000 A 
ATOM     77  C   UNL     1      -5.600  -0.417 141.447  0.00  0.00    +0.000 A 
ATOM     78  C   UNL     1      -4.300  -0.615 141.917  0.00  0.00    +0.000 A 
ATOM     79  C   UNL     1      -4.075  -0.066 143.144  0.00  0.00    +0.000 A 
ATOM     80  C   UNL     1      -5.042   1.054 143.575  0.00  0.00    +0.000 A 
ATOM     81  C   UNL     1      -6.183   1.726 142.556  0.00  0.00    +0.000 A 
BRANCH  72  82
ATOM     82  O   UNL     1     -11.981   0.090 143.928  0.00  0.00    +0.000 OA
ATOM     83  H   UNL     1     -11.958  -0.303 144.815  0.00  0.00    +0.000 HD
ENDBRANCH  72  82
BRANCH  78  84
ATOM     84  O   UNL     1      -3.311  -1.248 141.213  0.00  0.00    +0.000 OA
ATOM     85  H   UNL     1      -2.812  -1.887 141.757  0.00  0.00    +0.000 HD
ENDBRANCH  78  84
ENDBRANCH  56  59
ENDBRANCH  54  55
ENDBRANCH  53  54
ENDBRANCH  52  53
ENDBRANCH  51  52
ENDBRANCH  42  51
ENDBRANCH  40  42
ENDBRANCH  37  38
ENDBRANCH  14  31
BRANCH   5  86
ATOM     86  C   UNL     1      -5.884   2.585 134.833  0.00  0.00    +0.000 A 
ATOM     87  C   UNL     1      -5.145   1.916 135.783  0.00  0.00    +0.000 A 
ATOM     88  C   UNL     1      -4.718   2.566 136.957  0.00  0.00    +0.000 A 
ATOM     89  C   UNL     1      -5.182   3.823 137.303  0.00  0.00    +0.000 A 
ATOM     90  C   UNL     1      -5.992   4.502 136.428  0.00  0.00    +0.000 A 
ATOM     91  C   UNL     1      -6.272   3.933 135.175  0.00  0.00    +0.000 A 
BRANCH  89  92
ATOM     92  O   UNL     1      -4.828   4.460 138.450  0.00  0.00    +0.000 OA
ATOM     93  H   UNL     1      -5.409   5.217 138.628  0.00  0.00    +0.000 HD
ENDBRANCH  89  92
ENDBRANCH   5  86
BRANCH   1  94
ATOM     94  C   UNL     1     -10.664   5.966 130.766  0.00  0.00    +0.000 C 
ATOM     95  C   UNL     1     -11.558   6.501 131.893  0.00  0.00    +0.000 C 
BRANCH  94  97
ATOM     96  C   UNL     1     -10.587   7.021 128.517  0.00  0.00    +0.000 C 
ATOM     97  C   UNL     1     -10.352   7.436 129.918  0.00  0.00    +0.000 C 
ENDBRANCH  94  97
ENDBRANCH   1  94
BRANCH  18  98
ATOM     98  C   UNL     1      -3.475   5.812 133.229  0.00  0.00    +0.000 C 
BRANCH  98  99
ATOM     99  C   UNL     1      -3.504   6.062 135.214  0.00  0.00    +0.000 C 
ATOM    100  N   UNL     1      -4.910   7.124 135.770  0.00  0.00    +0.000 N 
ATOM    101  O   UNL     1      -2.899   5.376 136.020  0.00  0.00    +0.000 OA
ATOM    102  H   UNL     1      -5.323   7.615 134.803  0.00  0.00    +0.000 HD
ATOM    103  H   UNL     1      -5.554   7.509 136.426  0.00  0.00    +0.000 HD
ENDBRANCH  98  99
ENDBRANCH  18  98
BRANCH  22 104
ATOM    104  C   UNL     1      -5.633   4.682 129.519  0.00  0.00    +0.000 C 
BRANCH 104 105
ATOM    105  C   UNL     1      -5.187   5.085 128.162  0.00  0.00    +0.000 C 
BRANCH 105 106
ATOM    106  C   UNL     1      -3.767   5.248 127.723  0.00  0.00    +0.000 C 
ATOM    107  N   UNL     1      -3.330   4.207 127.010  0.00  0.00    +0.000 N 
ATOM    108  O   UNL     1      -2.987   6.151 128.001  0.00  0.00    +0.000 OA
ATOM    109  H   UNL     1      -3.826   3.324 127.075  0.00  0.00    +0.000 HD
ATOM    110  H   UNL     1      -2.336   4.200 126.847  0.00  0.00    +0.000 HD
ENDBRANCH 105 106
ENDBRANCH 104 105
ENDBRANCH  22 104
TORSDOF 23
ENDMDL
MODEL 6
REMARK VINA RESULT:      -8.3      3.388      8.992
REMARK  Name = CHEMBL1790718
REMARK  25 active torsions:
REMARK  status: ('A' for Active; 'I' for Inactive)
REMARK    1  A    between atoms: C_1  and  C_2
REMARK    2  A    between atoms: C_2  and  C_3
REMARK    3  A    between atoms: C_3  and  C_4
REMARK    4  A    between atoms: C_3  and  C_5
REMARK    5  A    between atoms: C_9  and  C_10
REMARK    6  A    between atoms: C_13  and  O_14
REMARK    7  A    between atoms: C_25  and  C_26
REMARK    8  A    between atoms: C_32  and  C_33
REMARK    9  A    between atoms: N_35  and  C_36
REMARK   10  A    between atoms: C_36  and  C_37
REMARK   11  A    between atoms: C_36  and  C_69
REMARK   12  A    between atoms: C_37  and  C_38
REMARK   13  A    between atoms: C_38  and  C_39
REMARK   14  A    between atoms: C_39  and  C_40
REMARK   15  A    between atoms: C_40  and  N_41
REMARK   16  A    between atoms: C_42  and  C_44
REMARK   17  A    between atoms: C_57  and  O_58
REMARK   18  A    between atoms: C_64  and  O_65
REMARK   19  A    between atoms: N_71  and  C_72
REMARK   20  A    between atoms: C_72  and  N_73
REMARK   21  A    between atoms: C_77  and  C_78
REMARK   22  A    between atoms: C_78  and  C_79
REMARK   23  A    between atoms: C_85  and  C_86
REMARK   24  A    between atoms: C_86  and  C_87
REMARK   25  A    between atoms: C_87  and  C_88
REMARK                            x       y       z     vdW  Elec       q    Type
REMARK                         _______ _______ _______ _____ _____    ______ ____
ROOT
ATOM      1  C   UNL     1      -6.016  -1.215 131.158  0.00  0.00    +0.000 C 
ATOM      2  N   UNL     1      -7.098  -0.144 129.843  0.00  0.00    +0.000 N 
ATOM      3  C   UNL     1      -7.418   0.910 128.582  0.00  0.00    +0.000 C 
ATOM      4  O   UNL     1      -8.559   1.487 128.553  0.00  0.00    +0.000 OA
ATOM      5  C   UNL     1      -6.532   1.048 127.108  0.00  0.00    +0.000 C 
ATOM      6  N   UNL     1      -7.272   1.175 125.724  0.00  0.00    +0.000 N 
ATOM      7  C   UNL     1      -7.788   2.263 125.001  0.00  0.00    +0.000 C 
ATOM      8  O   UNL     1      -8.107   2.141 123.811  0.00  0.00    +0.000 OA
ATOM      9  C   UNL     1      -7.936   3.649 125.587  0.00  0.00    +0.000 C 
ATOM     10  C   UNL     1      -7.408   3.779 126.927  0.00  0.00    +0.000 C 
ATOM     11  S   UNL     1      -7.879   5.240 127.630  0.00  0.00    +0.000 S 
ATOM     12  S   UNL     1      -7.571   4.292 129.731  0.00  0.00    +0.000 S 
ATOM     13  C   UNL     1      -6.965   6.151 131.351  0.00  0.00    +0.000 C 
ATOM     14  C   UNL     1      -6.074   6.255 132.513  0.00  0.00    +0.000 C 
ATOM     15  N   UNL     1      -6.539   5.201 133.240  0.00  0.00    +0.000 N 
ATOM     16  C   UNL     1      -6.137   3.957 132.874  0.00  0.00    +0.000 C 
ATOM     17  O   UNL     1      -6.197   3.112 133.782  0.00  0.00    +0.000 OA
ATOM     18  C   UNL     1      -5.911   3.518 131.321  0.00  0.00    +0.000 C 
ATOM     19  N   UNL     1      -5.157   2.349 131.425  0.00  0.00    +0.000 N 
ATOM     20  C   UNL     1      -5.630   1.194 131.957  0.00  0.00    +0.000 C 
ATOM     21  O   UNL     1      -4.659   0.468 132.219  0.00  0.00    +0.000 OA
ATOM     22  C   UNL     1      -7.346   0.761 132.285  0.00  0.00    +0.000 C 
ATOM     23  N   UNL     1      -8.063  -0.570 131.886  0.00  0.00    +0.000 N 
ATOM     24  C   UNL     1      -7.371  -1.678 131.385  0.00  0.00    +0.000 C 
ATOM     25  O   UNL     1      -7.770  -2.681 130.812  0.00  0.00    +0.000 OA
ATOM     26  H   UNL     1      -8.187  -0.060 129.758  0.00  0.00    +0.000 HD
ATOM     27  H   UNL     1      -7.111   0.381 125.106  0.00  0.00    +0.000 HD
ATOM     28  H   UNL     1      -7.367   5.371 133.817  0.00  0.00    +0.000 HD
ATOM     29  H   UNL     1      -4.168   2.450 131.307  0.00  0.00    +0.000 HD
ATOM     30  H   UNL     1      -8.517  -0.329 131.048  0.00  0.00    +0.000 HD
ENDROOT
BRANCH  14  31
ATOM     31  C   UNL     1      -4.544   6.170 132.394  0.00  0.00    +0.000 C 
ATOM     32  O   UNL     1      -3.921   6.045 131.329  0.00  0.00    +0.000 OA
ATOM     33  N   UNL     1      -3.895   6.040 133.594  0.00  0.00    +0.000 N 
ATOM     34  C   UNL     1      -4.341   5.611 134.928  0.00  0.00    +0.000 C 
ATOM     35  C   UNL     1      -3.819   6.684 135.783  0.00  0.00    +0.000 C 
ATOM     36  C   UNL     1      -2.451   6.861 135.172  0.00  0.00    +0.000 C 
ATOM     37  C   UNL     1      -2.573   6.569 133.661  0.00  0.00    +0.000 C 
BRANCH  37  38
ATOM     38  C   UNL     1      -2.362   7.831 132.821  0.00  0.00    +0.000 C 
ATOM     39  O   UNL     1      -2.447   7.892 131.600  0.00  0.00    +0.000 OA
ATOM     40  N   UNL     1      -2.051   8.913 133.593  0.00  0.00    +0.000 N 
ATOM     41  H   UNL     1      -1.757   8.746 134.546  0.00  0.00    +0.000 HD
BRANCH  40  42
ATOM     42  C   UNL     1      -2.174  10.304 133.189  0.00  0.00    +0.000 C 
BRANCH  42  43
ATOM     43  C   UNL     1      -0.738  10.854 132.893  0.00  0.00    +0.000 C 
ATOM     44  O   UNL     1       0.258  10.189 133.198  0.00  0.00    +0.000 OA
ATOM     45  N   UNL     1      -0.634  12.098 132.283  0.00  0.00    +0.000 N 
ATOM     46  H   UNL     1      -1.452  12.649 132.067  0.00  0.00    +0.000 HD
BRANCH  45  47
ATOM     47  C   UNL     1       0.655  12.667 131.991  0.00  0.00    +0.000 C 
BRANCH  47  48
ATOM     48  N   UNL     1       0.719  12.979 130.579  0.00  0.00    +0.000 NA
ATOM     49  H   UNL     1       0.415  12.182 130.023  0.00  0.00    +0.000 HD
ATOM     50  H   UNL     1       1.707  13.096 130.325  0.00  0.00    +0.000 HD
ENDBRANCH  47  48
ENDBRANCH  45  47
ENDBRANCH  42  43
BRANCH  42  51
ATOM     51  C   UNL     1      -2.835  11.141 134.292  0.00  0.00    +0.000 C 
BRANCH  51  52
ATOM     52  C   UNL     1      -2.495  10.653 135.694  0.00  0.00    +0.000 C 
BRANCH  52  53
ATOM     53  C   UNL     1      -2.555  11.704 136.768  0.00  0.00    +0.000 C 
BRANCH  53  54
ATOM     54  C   UNL     1      -3.578  11.349 137.874  0.00  0.00    +0.000 C 
BRANCH  54  55
ATOM     55  N   UNL     1      -4.001   9.854 137.817  0.00  0.00    +0.000 N 
ATOM     56  C   UNL     1      -5.153   9.286 138.517  0.00  0.00    +0.000 C 
ATOM     57  O   UNL     1      -5.803  10.201 139.075  0.00  0.00    +0.000 OA
ATOM     58  H   UNL     1      -3.370   9.312 137.260  0.00  0.00    +0.000 HD
BRANCH  56  59
ATOM     59  C   UNL     1      -5.755   7.589 138.895  0.00  0.00    +0.000 A 
ATOM     60  C   UNL     1      -4.746   6.876 139.325  0.00  0.00    +0.000 A 
ATOM     61  C   UNL     1      -4.975   5.750 140.282  0.00  0.00    +0.000 A 
ATOM     62  C   UNL     1      -4.907   4.708 139.489  0.00  0.00    +0.000 A 
ATOM     63  C   UNL     1      -6.139   4.320 139.496  0.00  0.00    +0.000 A 
ATOM     64  C   UNL     1      -6.647   6.269 139.143  0.00  0.00    +0.000 A 
ATOM     65  C   UNL     1      -5.145   2.708 139.995  0.00  0.00    +0.000 C 
ATOM     66  O   UNL     1      -3.801   3.163 140.406  0.00  0.00    +0.000 OA
ATOM     67  C   UNL     1      -3.626   4.102 139.459  0.00  0.00    +0.000 C 
ATOM     68  O   UNL     1      -2.733   4.772 138.970  0.00  0.00    +0.000 OA
ATOM     69  C   UNL     1      -6.084   1.461 140.870  0.00  0.00    +0.000 A 
ATOM     70  C   UNL     1      -6.466   1.502 142.218  0.00  0.00    +0.000 A 
ATOM     71  C   UNL     1      -7.358   0.521 142.803  0.00  0.00    +0.000 A 
ATOM     72  C   UNL     1      -7.798  -0.598 142.092  0.00  0.00    +0.000 A 
ATOM     73  C   UNL     1      -7.290  -0.808 140.826  0.00  0.00    +0.000 A 
ATOM     74  C   UNL     1      -6.455   0.195 140.237  0.00  0.00    +0.000 A 
ATOM     75  O   UNL     1      -6.040  -0.146 138.961  0.00  0.00    +0.000 OA
ATOM     76  C   UNL     1      -4.747   0.196 138.685  0.00  0.00    +0.000 A 
ATOM     77  C   UNL     1      -4.128  -0.504 137.547  0.00  0.00    +0.000 A 
ATOM     78  C   UNL     1      -2.766  -0.704 137.312  0.00  0.00    +0.000 A 
ATOM     79  C   UNL     1      -1.995  -0.557 138.426  0.00  0.00    +0.000 A 
ATOM     80  C   UNL     1      -2.614   0.257 139.580  0.00  0.00    +0.000 A 
ATOM     81  C   UNL     1      -4.053   1.095 139.444  0.00  0.00    +0.000 A 
BRANCH  72  82
ATOM     82  O   UNL     1      -8.719  -1.497 142.553  0.00  0.00    +0.000 OA
ATOM     83  H   UNL     1      -9.303  -1.113 143.227  0.00  0.00    +0.000 HD
ENDBRANCH  72  82
BRANCH  78  84
ATOM     84  O   UNL     1      -2.224  -0.968 136.084  0.00  0.00    +0.000 OA
ATOM     85  H   UNL     1      -2.319  -0.220 135.462  0.00  0.00    +0.000 HD
ENDBRANCH  78  84
ENDBRANCH  56  59
ENDBRANCH  54  55
ENDBRANCH  53  54
ENDBRANCH  52  53
ENDBRANCH  51  52
ENDBRANCH  42  51
ENDBRANCH  40  42
ENDBRANCH  37  38
ENDBRANCH  14  31
BRANCH   5  86
ATOM     86  C   UNL     1      -5.322   2.012 127.055  0.00  0.00    +0.000 A 
ATOM     87  C   UNL     1      -5.070   2.660 125.866  0.00  0.00    +0.000 A 
ATOM     88  C   UNL     1      -3.885   3.397 125.681  0.00  0.00    +0.000 A 
ATOM     89  C   UNL     1      -2.843   3.341 126.590  0.00  0.00    +0.000 A 
ATOM     90  C   UNL     1      -3.010   2.639 127.757  0.00  0.00    +0.000 A 
ATOM     91  C   UNL     1      -4.257   2.053 128.029  0.00  0.00    +0.000 A 
BRANCH  89  92
ATOM     92  O   UNL     1      -1.668   4.002 126.421  0.00  0.00    +0.000 OA
ATOM     93  H   UNL     1      -1.719   4.909 126.761  0.00  0.00    +0.000 HD
ENDBRANCH  89  92
ENDBRANCH   5  86
BRANCH   1  94
ATOM     94  C   UNL     1      -5.413  -2.564 132.519  0.00  0.00    +0.000 C 
ATOM     95  C   UNL     1      -4.165  -3.386 132.165  0.00  0.00    +0.000 C 
BRANCH  94  97
ATOM     96  C   UNL     1      -6.269  -2.019 134.788  0.00  0.00    +0.000 C 
ATOM     97  C   UNL     1      -4.962  -2.014 134.091  0.00  0.00    +0.000 C 
ENDBRANCH  94  97
ENDBRANCH   1  94
BRANCH  18  98
ATOM     98  C   UNL     1      -5.428   4.741 130.422  0.00  0.00    +0.000 C 
BRANCH  98  99
ATOM     99  C   UNL     1      -3.731   5.081 129.416  0.00  0.00    +0.000 C 
ATOM    100  N   UNL     1      -3.913   6.423 128.160  0.00  0.00    +0.000 N 
ATOM    101  O   UNL     1      -2.622   4.711 129.760  0.00  0.00    +0.000 OA
ATOM    102  H   UNL     1      -5.057   6.601 128.066  0.00  0.00    +0.000 HD
ATOM    103  H   UNL     1      -3.596   7.119 127.521  0.00  0.00    +0.000 HD
ENDBRANCH  98  99
ENDBRANCH  18  98
BRANCH  22 104
ATOM    104  C   UNL     1      -8.422   1.796 131.855  0.00  0.00    +0.000 C 
BRANCH 104 105
ATOM    105  C   UNL     1      -9.290   2.198 132.989  0.00  0.00    +0.000 C 
BRANCH 105 106
ATOM    106  C   UNL     1      -9.527   3.600 133.452  0.00  0.00    +0.000 C 
ATOM    107  N   UNL     1     -10.086   4.363 132.509  0.00  0.00    +0.000 N 
ATOM    108  O   UNL     1      -9.207   4.110 134.520  0.00  0.00    +0.000 OA
ATOM    109  H   UNL     1     -10.027   4.067 131.540  0.00  0.00    +0.000 HD
ATOM    110  H   UNL     1     -10.100   5.347 132.721  0.00  0.00    +0.000 HD
ENDBRANCH 105 106
ENDBRANCH 104 105
ENDBRANCH  22 104
TORSDOF 23
ENDMDL
MODEL 7
REMARK VINA RESULT:      -8.2      4.770     11.031
REMARK  Name = CHEMBL1790718
REMARK  25 active torsions:
REMARK  status: ('A' for Active; 'I' for Inactive)
REMARK    1  A    between atoms: C_1  and  C_2
REMARK    2  A    between atoms: C_2  and  C_3
REMARK    3  A    between atoms: C_3  and  C_4
REMARK    4  A    between atoms: C_3  and  C_5
REMARK    5  A    between atoms: C_9  and  C_10
REMARK    6  A    between atoms: C_13  and  O_14
REMARK    7  A    between atoms: C_25  and  C_26
REMARK    8  A    between atoms: C_32  and  C_33
REMARK    9  A    between atoms: N_35  and  C_36
REMARK   10  A    between atoms: C_36  and  C_37
REMARK   11  A    between atoms: C_36  and  C_69
REMARK   12  A    between atoms: C_37  and  C_38
REMARK   13  A    between atoms: C_38  and  C_39
REMARK   14  A    between atoms: C_39  and  C_40
REMARK   15  A    between atoms: C_40  and  N_41
REMARK   16  A    between atoms: C_42  and  C_44
REMARK   17  A    between atoms: C_57  and  O_58
REMARK   18  A    between atoms: C_64  and  O_65
REMARK   19  A    between atoms: N_71  and  C_72
REMARK   20  A    between atoms: C_72  and  N_73
REMARK   21  A    between atoms: C_77  and  C_78
REMARK   22  A    between atoms: C_78  and  C_79
REMARK   23  A    between atoms: C_85  and  C_86
REMARK   24  A    between atoms: C_86  and  C_87
REMARK   25  A    between atoms: C_87  and  C_88
REMARK                            x       y       z     vdW  Elec       q    Type
REMARK                         _______ _______ _______ _____ _____    ______ ____
ROOT
ATOM      1  C   UNL     1      -4.745  -2.472 136.418  0.00  0.00    +0.000 C 
ATOM      2  N   UNL     1      -5.004  -2.354 138.409  0.00  0.00    +0.000 N 
ATOM      3  C   UNL     1      -5.262  -1.651 139.907  0.00  0.00    +0.000 C 
ATOM      4  O   UNL     1      -4.864  -2.283 140.946  0.00  0.00    +0.000 OA
ATOM      5  C   UNL     1      -6.323  -0.337 140.257  0.00  0.00    +0.000 C 
ATOM      6  N   UNL     1      -7.261  -0.363 141.521  0.00  0.00    +0.000 N 
ATOM      7  C   UNL     1      -7.081   0.001 142.866  0.00  0.00    +0.000 C 
ATOM      8  O   UNL     1      -8.051   0.122 143.626  0.00  0.00    +0.000 OA
ATOM      9  C   UNL     1      -5.729   0.322 143.460  0.00  0.00    +0.000 C 
ATOM     10  C   UNL     1      -4.649   0.317 142.499  0.00  0.00    +0.000 C 
ATOM     11  S   UNL     1      -3.147   0.373 143.268  0.00  0.00    +0.000 S 
ATOM     12  S   UNL     1      -2.183  -0.596 141.386  0.00  0.00    +0.000 S 
ATOM     13  C   UNL     1       0.233   0.176 141.255  0.00  0.00    +0.000 C 
ATOM     14  C   UNL     1       1.148   0.515 140.159  0.00  0.00    +0.000 C 
ATOM     15  N   UNL     1       1.030  -0.622 139.416  0.00  0.00    +0.000 N 
ATOM     16  C   UNL     1      -0.073  -0.754 138.636  0.00  0.00    +0.000 C 
ATOM     17  O   UNL     1       0.068  -1.533 137.679  0.00  0.00    +0.000 OA
ATOM     18  C   UNL     1      -1.544  -0.212 139.079  0.00  0.00    +0.000 C 
ATOM     19  N   UNL     1      -2.255  -0.197 137.879  0.00  0.00    +0.000 N 
ATOM     20  C   UNL     1      -2.586  -1.317 137.187  0.00  0.00    +0.000 C 
ATOM     21  O   UNL     1      -2.897  -0.977 136.035  0.00  0.00    +0.000 OA
ATOM     22  C   UNL     1      -2.554  -3.018 137.776  0.00  0.00    +0.000 C 
ATOM     23  N   UNL     1      -3.696  -4.075 137.628  0.00  0.00    +0.000 N 
ATOM     24  C   UNL     1      -4.824  -3.861 136.828  0.00  0.00    +0.000 C 
ATOM     25  O   UNL     1      -5.896  -4.445 136.779  0.00  0.00    +0.000 OA
ATOM     26  H   UNL     1      -4.973  -3.156 139.154  0.00  0.00    +0.000 HD
ATOM     27  H   UNL     1      -8.253  -0.384 141.287  0.00  0.00    +0.000 HD
ATOM     28  H   UNL     1       1.610  -1.417 139.700  0.00  0.00    +0.000 HD
ATOM     29  H   UNL     1      -2.316   0.687 137.413  0.00  0.00    +0.000 HD
ATOM     30  H   UNL     1      -4.157  -4.019 138.494  0.00  0.00    +0.000 HD
ENDROOT
BRANCH  14  31
ATOM     31  C   UNL     1       0.943   1.745 139.260  0.00  0.00    +0.000 C 
ATOM     32  O   UNL     1      -0.158   2.230 138.960  0.00  0.00    +0.000 OA
ATOM     33  N   UNL     1       2.083   2.174 138.630  0.00  0.00    +0.000 N 
ATOM     34  C   UNL     1       3.369   1.521 138.340  0.00  0.00    +0.000 C 
ATOM     35  C   UNL     1       4.332   2.521 138.817  0.00  0.00    +0.000 C 
ATOM     36  C   UNL     1       3.683   3.778 138.292  0.00  0.00    +0.000 C 
ATOM     37  C   UNL     1       2.155   3.564 138.327  0.00  0.00    +0.000 C 
BRANCH  37  38
ATOM     38  C   UNL     1       1.480   4.466 139.363  0.00  0.00    +0.000 C 
ATOM     39  O   UNL     1       1.736   4.483 140.562  0.00  0.00    +0.000 OA
ATOM     40  N   UNL     1       0.530   5.269 138.801  0.00  0.00    +0.000 N 
ATOM     41  H   UNL     1       0.200   5.035 137.875  0.00  0.00    +0.000 HD
BRANCH  40  42
ATOM     42  C   UNL     1      -0.007   6.485 139.390  0.00  0.00    +0.000 C 
BRANCH  42  43
ATOM     43  C   UNL     1      -1.519   6.591 138.997  0.00  0.00    +0.000 C 
ATOM     44  O   UNL     1      -2.359   6.916 139.843  0.00  0.00    +0.000 OA
ATOM     45  N   UNL     1      -1.869   6.309 137.683  0.00  0.00    +0.000 N 
ATOM     46  H   UNL     1      -1.180   6.012 137.006  0.00  0.00    +0.000 HD
BRANCH  45  47
ATOM     47  C   UNL     1      -3.241   6.379 137.257  0.00  0.00    +0.000 C 
BRANCH  47  48
ATOM     48  N   UNL     1      -3.573   5.162 136.546  0.00  0.00    +0.000 NA
ATOM     49  H   UNL     1      -4.582   5.051 136.479  0.00  0.00    +0.000 HD
ATOM     50  H   UNL     1      -3.272   4.367 137.122  0.00  0.00    +0.000 HD
ENDBRANCH  47  48
ENDBRANCH  45  47
ENDBRANCH  42  43
BRANCH  42  51
ATOM     51  C   UNL     1       0.750   7.720 138.886  0.00  0.00    +0.000 C 
BRANCH  51  52
ATOM     52  C   UNL     1       1.427   7.496 137.541  0.00  0.00    +0.000 C 
BRANCH  52  53
ATOM     53  C   UNL     1       0.772   8.182 136.373  0.00  0.00    +0.000 C 
BRANCH  53  54
ATOM     54  C   UNL     1       0.787   7.304 135.098  0.00  0.00    +0.000 C 
BRANCH  54  55
ATOM     55  N   UNL     1      -0.640   6.841 134.694  0.00  0.00    +0.000 N 
ATOM     56  C   UNL     1      -1.252   7.073 133.385  0.00  0.00    +0.000 C 
ATOM     57  O   UNL     1      -0.416   7.598 132.613  0.00  0.00    +0.000 OA
ATOM     58  H   UNL     1      -1.111   6.385 135.450  0.00  0.00    +0.000 HD
BRANCH  56  59
ATOM     59  C   UNL     1      -2.948   6.932 132.684  0.00  0.00    +0.000 A 
ATOM     60  C   UNL     1      -3.577   5.969 133.307  0.00  0.00    +0.000 A 
ATOM     61  C   UNL     1      -5.064   6.015 133.456  0.00  0.00    +0.000 A 
ATOM     62  C   UNL     1      -5.452   5.178 132.524  0.00  0.00    +0.000 A 
ATOM     63  C   UNL     1      -5.999   5.991 131.683  0.00  0.00    +0.000 A 
ATOM     64  C   UNL     1      -4.320   7.145 131.865  0.00  0.00    +0.000 A 
ATOM     65  C   UNL     1      -7.396   4.659 132.010  0.00  0.00    +0.000 C 
ATOM     66  O   UNL     1      -7.007   3.949 133.247  0.00  0.00    +0.000 OA
ATOM     67  C   UNL     1      -5.687   3.865 133.004  0.00  0.00    +0.000 C 
ATOM     68  O   UNL     1      -4.706   3.263 133.405  0.00  0.00    +0.000 OA
ATOM     69  C   UNL     1      -9.067   5.187 131.650  0.00  0.00    +0.000 A 
ATOM     70  C   UNL     1      -9.858   6.038 132.435  0.00  0.00    +0.000 A 
ATOM     71  C   UNL     1     -11.143   6.536 131.989  0.00  0.00    +0.000 A 
ATOM     72  C   UNL     1     -11.733   6.103 130.799  0.00  0.00    +0.000 A 
ATOM     73  C   UNL     1     -11.103   5.106 130.083  0.00  0.00    +0.000 A 
ATOM     74  C   UNL     1      -9.808   4.662 130.502  0.00  0.00    +0.000 A 
ATOM     75  O   UNL     1      -9.294   3.677 129.677  0.00  0.00    +0.000 OA
ATOM     76  C   UNL     1      -8.623   2.688 130.338  0.00  0.00    +0.000 A 
ATOM     77  C   UNL     1      -8.438   1.431 129.595  0.00  0.00    +0.000 A 
ATOM     78  C   UNL     1      -8.216   0.158 130.123  0.00  0.00    +0.000 A 
ATOM     79  C   UNL     1      -8.575   0.042 131.433  0.00  0.00    +0.000 A 
ATOM     80  C   UNL     1      -8.676   1.357 132.230  0.00  0.00    +0.000 A 
ATOM     81  C   UNL     1      -8.190   2.837 131.625  0.00  0.00    +0.000 A 
BRANCH  72  82
ATOM     82  O   UNL     1     -12.889   6.613 130.276  0.00  0.00    +0.000 OA
ATOM     83  H   UNL     1     -12.894   7.584 130.273  0.00  0.00    +0.000 HD
ENDBRANCH  72  82
BRANCH  78  84
ATOM     84  O   UNL     1      -7.644  -0.877 129.433  0.00  0.00    +0.000 OA
ATOM     85  H   UNL     1      -8.193  -1.685 129.444  0.00  0.00    +0.000 HD
ENDBRANCH  78  84
ENDBRANCH  56  59
ENDBRANCH  54  55
ENDBRANCH  53  54
ENDBRANCH  52  53
ENDBRANCH  51  52
ENDBRANCH  42  51
ENDBRANCH  40  42
ENDBRANCH  37  38
ENDBRANCH  14  31
BRANCH   5  86
ATOM     86  C   UNL     1      -5.781   1.109 140.137  0.00  0.00    +0.000 A 
ATOM     87  C   UNL     1      -6.262   2.049 141.021  0.00  0.00    +0.000 A 
ATOM     88  C   UNL     1      -5.968   3.416 140.854  0.00  0.00    +0.000 A 
ATOM     89  C   UNL     1      -5.364   3.896 139.705  0.00  0.00    +0.000 A 
ATOM     90  C   UNL     1      -4.939   3.007 138.751  0.00  0.00    +0.000 A 
ATOM     91  C   UNL     1      -5.065   1.629 138.996  0.00  0.00    +0.000 A 
BRANCH  89  92
ATOM     92  O   UNL     1      -5.108   5.213 139.490  0.00  0.00    +0.000 OA
ATOM     93  H   UNL     1      -4.622   5.605 140.234  0.00  0.00    +0.000 HD
ENDBRANCH  89  92
ENDBRANCH   5  86
BRANCH   1  94
ATOM     94  C   UNL     1      -4.614  -3.124 134.521  0.00  0.00    +0.000 C 
ATOM     95  C   UNL     1      -5.366  -2.306 133.461  0.00  0.00    +0.000 C 
BRANCH  94  97
ATOM     96  C   UNL     1      -2.654  -4.593 134.104  0.00  0.00    +0.000 C 
ATOM     97  C   UNL     1      -3.061  -3.207 133.776  0.00  0.00    +0.000 C 
ENDBRANCH  94  97
ENDBRANCH   1  94
BRANCH  18  98
ATOM     98  C   UNL     1      -1.448   1.082 140.003  0.00  0.00    +0.000 C 
BRANCH  98  99
ATOM     99  C   UNL     1      -2.030   2.977 139.726  0.00  0.00    +0.000 C 
ATOM    100  N   UNL     1      -1.957   3.971 141.281  0.00  0.00    +0.000 N 
ATOM    101  O   UNL     1      -2.123   3.535 138.647  0.00  0.00    +0.000 OA
ATOM    102  H   UNL     1      -1.820   3.196 142.134  0.00  0.00    +0.000 HD
ATOM    103  H   UNL     1      -1.937   4.806 141.826  0.00  0.00    +0.000 HD
ENDBRANCH  98  99
ENDBRANCH  18  98
BRANCH  22 104
ATOM    104  C   UNL     1      -2.166  -3.235 139.265  0.00  0.00    +0.000 C 
BRANCH 104 105
ATOM    105  C   UNL     1      -1.361  -4.467 139.455  0.00  0.00    +0.000 C 
BRANCH 105 106
ATOM    106  C   UNL     1      -0.157  -4.854 138.658  0.00  0.00    +0.000 C 
ATOM    107  N   UNL     1       0.947  -4.215 139.056  0.00  0.00    +0.000 N 
ATOM    108  O   UNL     1      -0.098  -5.596 137.685  0.00  0.00    +0.000 OA
ATOM    109  H   UNL     1       0.852  -3.363 139.599  0.00  0.00    +0.000 HD
ATOM    110  H   UNL     1       1.735  -4.316 138.438  0.00  0.00    +0.000 HD
ENDBRANCH 105 106
ENDBRANCH 104 105
ENDBRANCH  22 104
TORSDOF 23
ENDMDL
MODEL 8
REMARK VINA RESULT:      -8.1      2.197      3.455
REMARK  Name = CHEMBL1790718
REMARK  25 active torsions:
REMARK  status: ('A' for Active; 'I' for Inactive)
REMARK    1  A    between atoms: C_1  and  C_2
REMARK    2  A    between atoms: C_2  and  C_3
REMARK    3  A    between atoms: C_3  and  C_4
REMARK    4  A    between atoms: C_3  and  C_5
REMARK    5  A    between atoms: C_9  and  C_10
REMARK    6  A    between atoms: C_13  and  O_14
REMARK    7  A    between atoms: C_25  and  C_26
REMARK    8  A    between atoms: C_32  and  C_33
REMARK    9  A    between atoms: N_35  and  C_36
REMARK   10  A    between atoms: C_36  and  C_37
REMARK   11  A    between atoms: C_36  and  C_69
REMARK   12  A    between atoms: C_37  and  C_38
REMARK   13  A    between atoms: C_38  and  C_39
REMARK   14  A    between atoms: C_39  and  C_40
REMARK   15  A    between atoms: C_40  and  N_41
REMARK   16  A    between atoms: C_42  and  C_44
REMARK   17  A    between atoms: C_57  and  O_58
REMARK   18  A    between atoms: C_64  and  O_65
REMARK   19  A    between atoms: N_71  and  C_72
REMARK   20  A    between atoms: C_72  and  N_73
REMARK   21  A    between atoms: C_77  and  C_78
REMARK   22  A    between atoms: C_78  and  C_79
REMARK   23  A    between atoms: C_85  and  C_86
REMARK   24  A    between atoms: C_86  and  C_87
REMARK   25  A    between atoms: C_87  and  C_88
REMARK                            x       y       z     vdW  Elec       q    Type
REMARK                         _______ _______ _______ _____ _____    ______ ____
ROOT
ATOM      1  C   UNL     1      -6.600   4.266 125.979  0.00  0.00    +0.000 C 
ATOM      2  N   UNL     1      -7.975   4.299 127.446  0.00  0.00    +0.000 N 
ATOM      3  C   UNL     1      -8.595   4.412 128.998  0.00  0.00    +0.000 C 
ATOM      4  O   UNL     1      -9.730   3.873 129.234  0.00  0.00    +0.000 OA
ATOM      5  C   UNL     1      -8.059   5.478 130.244  0.00  0.00    +0.000 C 
ATOM      6  N   UNL     1      -9.088   6.263 131.140  0.00  0.00    +0.000 N 
ATOM      7  C   UNL     1      -9.782   5.945 132.319  0.00  0.00    +0.000 C 
ATOM      8  O   UNL     1     -10.351   6.825 132.979  0.00  0.00    +0.000 OA
ATOM      9  C   UNL     1      -9.837   4.547 132.894  0.00  0.00    +0.000 C 
ATOM     10  C   UNL     1      -9.032   3.585 132.175  0.00  0.00    +0.000 C 
ATOM     11  S   UNL     1      -9.379   2.008 132.669  0.00  0.00    +0.000 S 
ATOM     12  S   UNL     1      -8.589   1.229 130.625  0.00  0.00    +0.000 S 
ATOM     13  C   UNL     1      -7.696  -1.123 130.974  0.00  0.00    +0.000 C 
ATOM     14  C   UNL     1      -6.575  -1.892 130.419  0.00  0.00    +0.000 C 
ATOM     15  N   UNL     1      -6.837  -1.735 129.092  0.00  0.00    +0.000 N 
ATOM     16  C   UNL     1      -6.491  -0.556 128.515  0.00  0.00    +0.000 C 
ATOM     17  O   UNL     1      -6.325  -0.618 127.285  0.00  0.00    +0.000 OA
ATOM     18  C   UNL     1      -6.599   0.875 129.285  0.00  0.00    +0.000 C 
ATOM     19  N   UNL     1      -5.806   1.718 128.507  0.00  0.00    +0.000 N 
ATOM     20  C   UNL     1      -6.117   2.082 127.237  0.00  0.00    +0.000 C 
ATOM     21  O   UNL     1      -5.092   2.536 126.707  0.00  0.00    +0.000 OA
ATOM     22  C   UNL     1      -7.706   1.913 126.407  0.00  0.00    +0.000 C 
ATOM     23  N   UNL     1      -8.454   3.022 125.596  0.00  0.00    +0.000 N 
ATOM     24  C   UNL     1      -7.858   4.241 125.258  0.00  0.00    +0.000 C 
ATOM     25  O   UNL     1      -8.343   5.287 124.856  0.00  0.00    +0.000 OA
ATOM     26  H   UNL     1      -9.058   4.151 127.376  0.00  0.00    +0.000 HD
ATOM     27  H   UNL     1      -9.044   7.273 131.014  0.00  0.00    +0.000 HD
ATOM     28  H   UNL     1      -7.523  -2.376 128.682  0.00  0.00    +0.000 HD
ATOM     29  H   UNL     1      -4.871   1.868 128.830  0.00  0.00    +0.000 HD
ATOM     30  H   UNL     1      -9.088   3.381 126.256  0.00  0.00    +0.000 HD
ENDROOT
BRANCH  14  31
ATOM     31  C   UNL     1      -5.106  -1.536 130.704  0.00  0.00    +0.000 C 
ATOM     32  O   UNL     1      -4.728  -0.666 131.502  0.00  0.00    +0.000 OA
ATOM     33  N   UNL     1      -4.212  -2.126 129.849  0.00  0.00    +0.000 N 
ATOM     34  C   UNL     1      -4.356  -2.731 128.516  0.00  0.00    +0.000 C 
ATOM     35  C   UNL     1      -3.667  -4.015 128.688  0.00  0.00    +0.000 C 
ATOM     36  C   UNL     1      -2.465  -3.560 129.479  0.00  0.00    +0.000 C 
ATOM     37  C   UNL     1      -2.910  -2.381 130.369  0.00  0.00    +0.000 C 
BRANCH  37  38
ATOM     38  C   UNL     1      -2.892  -2.752 131.853  0.00  0.00    +0.000 C 
ATOM     39  O   UNL     1      -2.436  -2.056 132.753  0.00  0.00    +0.000 OA
ATOM     40  N   UNL     1      -3.446  -3.979 132.080  0.00  0.00    +0.000 N 
ATOM     41  H   UNL     1      -3.573  -4.595 131.289  0.00  0.00    +0.000 HD
BRANCH  40  42
ATOM     42  C   UNL     1      -3.942  -4.460 133.359  0.00  0.00    +0.000 C 
BRANCH  42  43
ATOM     43  C   UNL     1      -2.776  -5.216 134.082  0.00  0.00    +0.000 C 
ATOM     44  O   UNL     1      -2.624  -6.430 133.915  0.00  0.00    +0.000 OA
ATOM     45  N   UNL     1      -1.935  -4.475 134.903  0.00  0.00    +0.000 N 
ATOM     46  H   UNL     1      -2.086  -3.489 135.060  0.00  0.00    +0.000 HD
BRANCH  45  47
ATOM     47  C   UNL     1      -0.850  -5.108 135.604  0.00  0.00    +0.000 C 
BRANCH  47  48
ATOM     48  N   UNL     1       0.394  -4.487 135.200  0.00  0.00    +0.000 NA
ATOM     49  H   UNL     1       0.214  -3.681 134.604  0.00  0.00    +0.000 HD
ATOM     50  H   UNL     1       0.891  -5.144 134.586  0.00  0.00    +0.000 HD
ENDBRANCH  47  48
ENDBRANCH  45  47
ENDBRANCH  42  43
BRANCH  42  51
ATOM     51  C   UNL     1      -5.134  -5.406 133.166  0.00  0.00    +0.000 C 
BRANCH  51  52
ATOM     52  C   UNL     1      -6.050  -5.464 134.382  0.00  0.00    +0.000 C 
BRANCH  52  53
ATOM     53  C   UNL     1      -6.618  -4.141 134.819  0.00  0.00    +0.000 C 
BRANCH  53  54
ATOM     54  C   UNL     1      -6.503  -3.936 136.349  0.00  0.00    +0.000 C 
BRANCH  54  55
ATOM     55  N   UNL     1      -6.087  -2.483 136.711  0.00  0.00    +0.000 N 
ATOM     56  C   UNL     1      -4.714  -2.050 136.970  0.00  0.00    +0.000 C 
ATOM     57  O   UNL     1      -3.921  -2.995 136.749  0.00  0.00    +0.000 OA
ATOM     58  H   UNL     1      -6.879  -1.875 136.775  0.00  0.00    +0.000 HD
BRANCH  56  59
ATOM     59  C   UNL     1      -3.922  -0.547 137.679  0.00  0.00    +0.000 A 
ATOM     60  C   UNL     1      -4.644   0.495 137.356  0.00  0.00    +0.000 A 
ATOM     61  C   UNL     1      -4.674   1.694 138.249  0.00  0.00    +0.000 A 
ATOM     62  C   UNL     1      -3.863   2.513 137.623  0.00  0.00    +0.000 A 
ATOM     63  C   UNL     1      -2.864   2.535 138.441  0.00  0.00    +0.000 A 
ATOM     64  C   UNL     1      -2.981   0.493 138.473  0.00  0.00    +0.000 A 
ATOM     65  C   UNL     1      -3.299   4.428 138.196  0.00  0.00    +0.000 C 
ATOM     66  O   UNL     1      -4.659   4.467 137.619  0.00  0.00    +0.000 OA
ATOM     67  C   UNL     1      -4.531   3.430 136.773  0.00  0.00    +0.000 C 
ATOM     68  O   UNL     1      -5.095   2.945 135.807  0.00  0.00    +0.000 OA
ATOM     69  C   UNL     1      -2.737   5.524 139.493  0.00  0.00    +0.000 A 
ATOM     70  C   UNL     1      -3.314   5.677 140.761  0.00  0.00    +0.000 A 
ATOM     71  C   UNL     1      -2.700   6.473 141.805  0.00  0.00    +0.000 A 
ATOM     72  C   UNL     1      -1.556   7.241 141.574  0.00  0.00    +0.000 A 
ATOM     73  C   UNL     1      -1.058   7.301 140.289  0.00  0.00    +0.000 A 
ATOM     74  C   UNL     1      -1.637   6.466 139.279  0.00  0.00    +0.000 A 
ATOM     75  O   UNL     1      -1.022   6.620 138.049  0.00  0.00    +0.000 OA
ATOM     76  C   UNL     1      -1.881   6.600 136.988  0.00  0.00    +0.000 A 
ATOM     77  C   UNL     1      -1.366   7.176 135.735  0.00  0.00    +0.000 A 
ATOM     78  C   UNL     1      -2.108   7.691 134.670  0.00  0.00    +0.000 A 
ATOM     79  C   UNL     1      -3.389   8.013 135.004  0.00  0.00    +0.000 A 
ATOM     80  C   UNL     1      -3.954   7.333 136.268  0.00  0.00    +0.000 A 
ATOM     81  C   UNL     1      -3.156   6.119 137.092  0.00  0.00    +0.000 A 
BRANCH  72  82
ATOM     82  O   UNL     1      -0.874   7.927 142.541  0.00  0.00    +0.000 OA
ATOM     83  H   UNL     1      -0.280   8.597 142.167  0.00  0.00    +0.000 HD
ENDBRANCH  72  82
BRANCH  78  84
ATOM     84  O   UNL     1      -1.638   7.819 133.391  0.00  0.00    +0.000 OA
ATOM     85  H   UNL     1      -2.082   8.536 132.898  0.00  0.00    +0.000 HD
ENDBRANCH  78  84
ENDBRANCH  56  59
ENDBRANCH  54  55
ENDBRANCH  53  54
ENDBRANCH  52  53
ENDBRANCH  51  52
ENDBRANCH  42  51
ENDBRANCH  40  42
ENDBRANCH  37  38
ENDBRANCH  14  31
BRANCH   5  86
ATOM     86  C   UNL     1      -6.918   5.012 131.182  0.00  0.00    +0.000 A 
ATOM     87  C   UNL     1      -6.929   5.470 132.481  0.00  0.00    +0.000 A 
ATOM     88  C   UNL     1      -5.832   5.250 133.335  0.00  0.00    +0.000 A 
ATOM     89  C   UNL     1      -4.629   4.754 132.862  0.00  0.00    +0.000 A 
ATOM     90  C   UNL     1      -4.537   4.360 131.551  0.00  0.00    +0.000 A 
ATOM     91  C   UNL     1      -5.684   4.406 130.741  0.00  0.00    +0.000 A 
BRANCH  89  92
ATOM     92  O   UNL     1      -3.535   4.574 133.646  0.00  0.00    +0.000 OA
ATOM     93  H   UNL     1      -3.207   5.418 133.996  0.00  0.00    +0.000 HD
ENDBRANCH  89  92
ENDBRANCH   5  86
BRANCH   1  94
ATOM     94  C   UNL     1      -5.674   4.328 124.196  0.00  0.00    +0.000 C 
ATOM     95  C   UNL     1      -4.139   4.289 124.219  0.00  0.00    +0.000 C 
BRANCH  94  97
ATOM     96  C   UNL     1      -6.380   3.846 121.863  0.00  0.00    +0.000 C 
ATOM     97  C   UNL     1      -5.979   3.068 123.057  0.00  0.00    +0.000 C 
ENDBRANCH  94  97
ENDBRANCH   1  94
BRANCH  18  98
ATOM     98  C   UNL     1      -6.360   0.725 130.854  0.00  0.00    +0.000 C 
BRANCH  98  99
ATOM     99  C   UNL     1      -4.894   1.365 132.057  0.00  0.00    +0.000 C 
ATOM    100  N   UNL     1      -5.211   0.958 133.830  0.00  0.00    +0.000 N 
ATOM    101  O   UNL     1      -3.779   1.696 131.694  0.00  0.00    +0.000 OA
ATOM    102  H   UNL     1      -6.324   0.634 133.876  0.00  0.00    +0.000 HD
ATOM    103  H   UNL     1      -4.971   0.824 134.789  0.00  0.00    +0.000 HD
ENDBRANCH  98  99
ENDBRANCH  18  98
BRANCH  22 104
ATOM    104  C   UNL     1      -8.880   1.348 127.254  0.00  0.00    +0.000 C 
BRANCH 104 105
ATOM    105  C   UNL     1      -9.772   0.474 126.453  0.00  0.00    +0.000 C 
BRANCH 105 106
ATOM    106  C   UNL     1      -9.330  -0.509 125.417  0.00  0.00    +0.000 C 
ATOM    107  N   UNL     1      -8.799  -1.612 125.953  0.00  0.00    +0.000 N 
ATOM    108  O   UNL     1      -9.333  -0.380 124.199  0.00  0.00    +0.000 OA
ATOM    109  H   UNL     1      -8.469  -1.582 126.912  0.00  0.00    +0.000 HD
ATOM    110  H   UNL     1      -8.335  -2.215 125.294  0.00  0.00    +0.000 HD
ENDBRANCH 105 106
ENDBRANCH 104 105
ENDBRANCH  22 104
TORSDOF 23
ENDMDL
MODEL 9
REMARK VINA RESULT:      -8.0      5.136     11.862
REMARK  Name = CHEMBL1790718
REMARK  25 active torsions:
REMARK  status: ('A' for Active; 'I' for Inactive)
REMARK    1  A    between atoms: C_1  and  C_2
REMARK    2  A    between atoms: C_2  and  C_3
REMARK    3  A    between atoms: C_3  and  C_4
REMARK    4  A    between atoms: C_3  and  C_5
REMARK    5  A    between atoms: C_9  and  C_10
REMARK    6  A    between atoms: C_13  and  O_14
REMARK    7  A    between atoms: C_25  and  C_26
REMARK    8  A    between atoms: C_32  and  C_33
REMARK    9  A    between atoms: N_35  and  C_36
REMARK   10  A    between atoms: C_36  and  C_37
REMARK   11  A    between atoms: C_36  and  C_69
REMARK   12  A    between atoms: C_37  and  C_38
REMARK   13  A    between atoms: C_38  and  C_39
REMARK   14  A    between atoms: C_39  and  C_40
REMARK   15  A    between atoms: C_40  and  N_41
REMARK   16  A    between atoms: C_42  and  C_44
REMARK   17  A    between atoms: C_57  and  O_58
REMARK   18  A    between atoms: C_64  and  O_65
REMARK   19  A    between atoms: N_71  and  C_72
REMARK   20  A    between atoms: C_72  and  N_73
REMARK   21  A    between atoms: C_77  and  C_78
REMARK   22  A    between atoms: C_78  and  C_79
REMARK   23  A    between atoms: C_85  and  C_86
REMARK   24  A    between atoms: C_86  and  C_87
REMARK   25  A    between atoms: C_87  and  C_88
REMARK                            x       y       z     vdW  Elec       q    Type
REMARK                         _______ _______ _______ _____ _____    ______ ____
ROOT
ATOM      1  C   UNL     1      -4.965   0.483 138.246  0.00  0.00    +0.000 C 
ATOM      2  N   UNL     1      -5.255   1.282 140.069  0.00  0.00    +0.000 N 
ATOM      3  C   UNL     1      -5.587   2.450 141.223  0.00  0.00    +0.000 C 
ATOM      4  O   UNL     1      -5.151   2.264 142.411  0.00  0.00    +0.000 OA
ATOM      5  C   UNL     1      -6.755   3.713 141.101  0.00  0.00    +0.000 C 
ATOM      6  N   UNL     1      -7.703   4.063 142.309  0.00  0.00    +0.000 N 
ATOM      7  C   UNL     1      -7.568   4.896 143.432  0.00  0.00    +0.000 C 
ATOM      8  O   UNL     1      -8.554   5.203 144.117  0.00  0.00    +0.000 OA
ATOM      9  C   UNL     1      -6.254   5.516 143.848  0.00  0.00    +0.000 C 
ATOM     10  C   UNL     1      -5.166   5.256 142.932  0.00  0.00    +0.000 C 
ATOM     11  S   UNL     1      -3.682   5.702 143.603  0.00  0.00    +0.000 S 
ATOM     12  S   UNL     1      -2.621   4.207 142.173  0.00  0.00    +0.000 S 
ATOM     13  C   UNL     1      -0.276   5.073 141.730  0.00  0.00    +0.000 C 
ATOM     14  C   UNL     1       0.621   5.070 140.569  0.00  0.00    +0.000 C 
ATOM     15  N   UNL     1       0.605   3.738 140.282  0.00  0.00    +0.000 N 
ATOM     16  C   UNL     1      -0.474   3.248 139.620  0.00  0.00    +0.000 C 
ATOM     17  O   UNL     1      -0.259   2.193 139.002  0.00  0.00    +0.000 OA
ATOM     18  C   UNL     1      -1.990   3.792 139.868  0.00  0.00    +0.000 C 
ATOM     19  N   UNL     1      -2.685   3.321 138.755  0.00  0.00    +0.000 N 
ATOM     20  C   UNL     1      -2.916   2.006 138.514  0.00  0.00    +0.000 C 
ATOM     21  O   UNL     1      -3.240   1.886 137.322  0.00  0.00    +0.000 OA
ATOM     22  C   UNL     1      -2.752   0.635 139.669  0.00  0.00    +0.000 C 
ATOM     23  N   UNL     1      -3.802  -0.493 139.929  0.00  0.00    +0.000 N 
ATOM     24  C   UNL     1      -4.934  -0.670 139.126  0.00  0.00    +0.000 C 
ATOM     25  O   UNL     1      -5.954  -1.317 139.308  0.00  0.00    +0.000 OA
ATOM     26  H   UNL     1      -5.167   0.804 141.050  0.00  0.00    +0.000 HD
ATOM     27  H   UNL     1      -8.686   3.881 142.116  0.00  0.00    +0.000 HD
ATOM     28  H   UNL     1       1.245   3.146 140.820  0.00  0.00    +0.000 HD
ATOM     29  H   UNL     1      -2.813   3.973 138.006  0.00  0.00    +0.000 HD
ATOM     30  H   UNL     1      -4.276  -0.169 140.727  0.00  0.00    +0.000 HD
ENDROOT
BRANCH  14  31
ATOM     31  C   UNL     1       0.328   5.879 139.294  0.00  0.00    +0.000 C 
ATOM     32  O   UNL     1      -0.709   6.527 139.088  0.00  0.00    +0.000 OA
ATOM     33  N   UNL     1       1.230   5.676 138.282  0.00  0.00    +0.000 N 
ATOM     34  C   UNL     1       2.202   4.606 138.011  0.00  0.00    +0.000 C 
ATOM     35  C   UNL     1       3.426   5.369 137.739  0.00  0.00    +0.000 C 
ATOM     36  C   UNL     1       2.858   6.474 136.882  0.00  0.00    +0.000 C 
ATOM     37  C   UNL     1       1.426   6.762 137.381  0.00  0.00    +0.000 C 
BRANCH  37  38
ATOM     38  C   UNL     1       1.321   8.143 138.033  0.00  0.00    +0.000 C 
ATOM     39  O   UNL     1       2.019   8.547 138.955  0.00  0.00    +0.000 OA
ATOM     40  N   UNL     1       0.333   8.900 137.472  0.00  0.00    +0.000 N 
ATOM     41  H   UNL     1      -0.356   8.430 136.899  0.00  0.00    +0.000 HD
BRANCH  40  42
ATOM     42  C   UNL     1       0.219  10.346 137.564  0.00  0.00    +0.000 C 
BRANCH  42  43
ATOM     43  C   UNL     1      -1.234  10.749 137.139  0.00  0.00    +0.000 C 
ATOM     44  O   UNL     1      -1.580  11.935 137.157  0.00  0.00    +0.000 OA
ATOM     45  N   UNL     1      -2.099   9.735 136.748  0.00  0.00    +0.000 N 
ATOM     46  H   UNL     1      -1.818   8.765 136.768  0.00  0.00    +0.000 HD
BRANCH  45  47
ATOM     47  C   UNL     1      -3.450  10.035 136.354  0.00  0.00    +0.000 C 
BRANCH  47  48
ATOM     48  N   UNL     1      -4.138  10.648 137.470  0.00  0.00    +0.000 NA
ATOM     49  H   UNL     1      -5.119  10.802 137.245  0.00  0.00    +0.000 HD
ATOM     50  H   UNL     1      -3.760  11.596 137.593  0.00  0.00    +0.000 HD
ENDBRANCH  47  48
ENDBRANCH  45  47
ENDBRANCH  42  43
BRANCH  42  51
ATOM     51  C   UNL     1       1.239  11.037 136.651  0.00  0.00    +0.000 C 
BRANCH  51  52
ATOM     52  C   UNL     1       1.108  10.625 135.191  0.00  0.00    +0.000 C 
BRANCH  52  53
ATOM     53  C   UNL     1       0.540  11.676 134.278  0.00  0.00    +0.000 C 
BRANCH  53  54
ATOM     54  C   UNL     1      -0.081  11.063 132.999  0.00  0.00    +0.000 C 
BRANCH  54  55
ATOM     55  N   UNL     1      -1.367  10.249 133.310  0.00  0.00    +0.000 N 
ATOM     56  C   UNL     1      -1.461   8.789 133.268  0.00  0.00    +0.000 C 
ATOM     57  O   UNL     1      -0.328   8.297 133.053  0.00  0.00    +0.000 OA
ATOM     58  H   UNL     1      -2.143  10.846 133.518  0.00  0.00    +0.000 HD
BRANCH  56  59
ATOM     59  C   UNL     1      -2.830   7.559 133.290  0.00  0.00    +0.000 A 
ATOM     60  C   UNL     1      -3.346   7.489 132.090  0.00  0.00    +0.000 A 
ATOM     61  C   UNL     1      -3.972   6.217 131.615  0.00  0.00    +0.000 A 
ATOM     62  C   UNL     1      -5.249   6.480 131.756  0.00  0.00    +0.000 A 
ATOM     63  C   UNL     1      -5.550   5.691 132.734  0.00  0.00    +0.000 A 
ATOM     64  C   UNL     1      -3.896   6.418 133.692  0.00  0.00    +0.000 A 
ATOM     65  C   UNL     1      -6.856   5.229 131.351  0.00  0.00    +0.000 C 
ATOM     66  O   UNL     1      -6.328   5.778 130.085  0.00  0.00    +0.000 OA
ATOM     67  C   UNL     1      -5.866   6.944 130.568  0.00  0.00    +0.000 C 
ATOM     68  O   UNL     1      -5.491   8.032 130.165  0.00  0.00    +0.000 OA
ATOM     69  C   UNL     1      -7.597   3.607 131.500  0.00  0.00    +0.000 A 
ATOM     70  C   UNL     1      -6.994   2.384 131.174  0.00  0.00    +0.000 A 
ATOM     71  C   UNL     1      -7.613   1.108 131.472  0.00  0.00    +0.000 A 
ATOM     72  C   UNL     1      -8.906   1.016 131.993  0.00  0.00    +0.000 A 
ATOM     73  C   UNL     1      -9.635   2.177 132.140  0.00  0.00    +0.000 A 
ATOM     74  C   UNL     1      -8.996   3.435 131.897  0.00  0.00    +0.000 A 
ATOM     75  O   UNL     1      -9.844   4.509 132.104  0.00  0.00    +0.000 OA
ATOM     76  C   UNL     1      -9.699   5.520 131.198  0.00  0.00    +0.000 A 
ATOM     77  C   UNL     1     -10.826   6.461 131.099  0.00  0.00    +0.000 A 
ATOM     78  C   UNL     1     -11.160   7.275 130.015  0.00  0.00    +0.000 A 
ATOM     79  C   UNL     1     -10.603   6.872 128.839  0.00  0.00    +0.000 A 
ATOM     80  C   UNL     1      -9.364   5.960 128.950  0.00  0.00    +0.000 A 
ATOM     81  C   UNL     1      -8.597   5.626 130.397  0.00  0.00    +0.000 A 
BRANCH  72  82
ATOM     82  O   UNL     1      -9.500  -0.150 132.392  0.00  0.00    +0.000 OA
ATOM     83  H   UNL     1     -10.105  -0.017 133.139  0.00  0.00    +0.000 HD
ENDBRANCH  72  82
BRANCH  78  84
ATOM     84  O   UNL     1     -11.926   8.406 130.105  0.00  0.00    +0.000 OA
ATOM     85  H   UNL     1     -12.260   8.563 131.010  0.00  0.00    +0.000 HD
ENDBRANCH  78  84
ENDBRANCH  56  59
ENDBRANCH  54  55
ENDBRANCH  53  54
ENDBRANCH  52  53
ENDBRANCH  51  52
ENDBRANCH  42  51
ENDBRANCH  40  42
ENDBRANCH  37  38
ENDBRANCH  14  31
BRANCH   5  86
ATOM     86  C   UNL     1      -6.332   5.059 140.464  0.00  0.00    +0.000 A 
ATOM     87  C   UNL     1      -6.806   6.218 141.039  0.00  0.00    +0.000 A 
ATOM     88  C   UNL     1      -6.627   7.464 140.409  0.00  0.00    +0.000 A 
ATOM     89  C   UNL     1      -6.156   7.563 139.110  0.00  0.00    +0.000 A 
ATOM     90  C   UNL     1      -5.747   6.427 138.459  0.00  0.00    +0.000 A 
ATOM     91  C   UNL     1      -5.752   5.203 139.149  0.00  0.00    +0.000 A 
BRANCH  89  92
ATOM     92  O   UNL     1      -6.015   8.744 138.455  0.00  0.00    +0.000 OA
ATOM     93  H   UNL     1      -5.080   8.994 138.372  0.00  0.00    +0.000 HD
ENDBRANCH  89  92
ENDBRANCH   5  86
BRANCH   1  94
ATOM     94  C   UNL     1      -4.759  -0.790 136.705  0.00  0.00    +0.000 C 
ATOM     95  C   UNL     1      -5.619  -0.509 135.464  0.00  0.00    +0.000 C 
BRANCH  94  97
ATOM     96  C   UNL     1      -2.625  -2.062 136.734  0.00  0.00    +0.000 C 
ATOM     97  C   UNL     1      -3.212  -0.947 135.957  0.00  0.00    +0.000 C 
ENDBRANCH  94  97
ENDBRANCH   1  94
BRANCH  18  98
ATOM     98  C   UNL     1      -2.010   5.335 140.268  0.00  0.00    +0.000 C 
BRANCH  98  99
ATOM     99  C   UNL     1      -2.791   6.945 139.373  0.00  0.00    +0.000 C 
ATOM    100  N   UNL     1      -2.891   8.401 140.504  0.00  0.00    +0.000 N 
ATOM    101  O   UNL     1      -2.905   7.096 138.169  0.00  0.00    +0.000 OA
ATOM    102  H   UNL     1      -2.701   7.977 141.568  0.00  0.00    +0.000 HD
ATOM    103  H   UNL     1      -2.987   9.366 140.738  0.00  0.00    +0.000 HD
ENDBRANCH  98  99
ENDBRANCH  18  98
BRANCH  22 104
ATOM    104  C   UNL     1      -2.364   0.996 141.130  0.00  0.00    +0.000 C 
BRANCH 104 105
ATOM    105  C   UNL     1      -1.527  -0.056 141.758  0.00  0.00    +0.000 C 
BRANCH 105 106
ATOM    106  C   UNL     1      -0.220  -0.559 141.235  0.00  0.00    +0.000 C 
ATOM    107  N   UNL     1       0.762   0.337 141.368  0.00  0.00    +0.000 N 
ATOM    108  O   UNL     1       0.011  -1.616 140.660  0.00  0.00    +0.000 OA
ATOM    109  H   UNL     1       0.522   1.313 141.505  0.00  0.00    +0.000 HD
ATOM    110  H   UNL     1       1.609   0.106 140.874  0.00  0.00    +0.000 HD
ENDBRANCH 105 106
ENDBRANCH 104 105
ENDBRANCH  22 104
TORSDOF 23
ENDMDL
