MODEL 1
REMARK VINA RESULT:     -11.2      0.000      0.000
REMARK  Name = CHEMBL376685
REMARK  20 active torsions:
REMARK  status: ('A' for Active; 'I' for Inactive)
REMARK    1  A    between atoms: N_4  and  C_5
REMARK    2  A    between atoms: C_5  and  C_6
REMARK    3  A    between atoms: C_6  and  C_7
REMARK    4  A    between atoms: C_7  and  C_8
REMARK    5  A    between atoms: C_8  and  N_9
REMARK    6  A    between atoms: C_8  and  C_68
REMARK    7  A    between atoms: C_10  and  C_12
REMARK    8  A    between atoms: C_17  and  C_19
REMARK    9  A    between atoms: C_28  and  C_29
REMARK   10  A    between atoms: C_29  and  C_30
REMARK   11  A    between atoms: C_33  and  O_34
REMARK   12  A    between atoms: C_40  and  C_41
REMARK   13  A    between atoms: C_41  and  C_42
REMARK   14  A    between atoms: C_51  and  C_52
REMARK   15  A    between atoms: C_52  and  C_53
REMARK   16  A    between atoms: C_53  and  C_54
REMARK   17  A    between atoms: C_60  and  C_61
REMARK   18  A    between atoms: C_61  and  C_62
REMARK   19  A    between atoms: N_70  and  C_71
REMARK   20  A    between atoms: C_71  and  C_72
REMARK                            x       y       z     vdW  Elec       q    Type
REMARK                         _______ _______ _______ _____ _____    ______ ____
ROOT
ATOM      1  C   UNL     1      -7.574  -1.610 131.871  0.00  0.00    +0.000 C 
ATOM      2  C   UNL     1      -8.232  -2.184 129.484  0.00  0.00    +0.000 C 
ATOM      3  S   UNL     1      -8.605  -1.492 126.747  0.00  0.00    +0.000 S 
ATOM      4  S   UNL     1      -9.008  -0.298 124.147  0.00  0.00    +0.000 S 
ATOM      5  C   UNL     1      -7.685   1.075 123.528  0.00  0.00    +0.000 C 
ATOM      6  C   UNL     1      -7.535   2.379 122.778  0.00  0.00    +0.000 C 
ATOM      7  C   UNL     1      -6.362   3.297 123.200  0.00  0.00    +0.000 C 
ATOM      8  O   UNL     1      -6.090   4.292 122.522  0.00  0.00    +0.000 OA
ATOM      9  N   UNL     1      -5.650   2.997 124.347  0.00  0.00    +0.000 N 
ATOM     10  C   UNL     1      -5.906   1.864 125.217  0.00  0.00    +0.000 C 
ATOM     11  C   UNL     1      -7.421   2.102 125.893  0.00  0.00    +0.000 C 
ATOM     12  O   UNL     1      -8.507   2.363 125.283  0.00  0.00    +0.000 OA
ATOM     13  N   UNL     1      -7.553   1.871 127.163  0.00  0.00    +0.000 N 
ATOM     14  C   UNL     1      -6.487   1.778 128.040  0.00  0.00    +0.000 C 
ATOM     15  C   UNL     1      -5.813   0.231 127.831  0.00  0.00    +0.000 C 
ATOM     16  O   UNL     1      -5.372  -0.283 126.784  0.00  0.00    +0.000 OA
ATOM     17  N   UNL     1      -5.481  -0.541 128.777  0.00  0.00    +0.000 N 
ATOM     18  C   UNL     1      -5.865  -0.186 129.894  0.00  0.00    +0.000 C 
ATOM     19  C   UNL     1      -4.925   1.276 130.485  0.00  0.00    +0.000 C 
ATOM     20  O   UNL     1      -5.097   2.433 130.230  0.00  0.00    +0.000 OA
ATOM     21  N   UNL     1      -4.172   1.153 131.695  0.00  0.00    +0.000 N 
ATOM     22  C   UNL     1      -4.460  -0.441 132.983  0.00  0.00    +0.000 C 
ATOM     23  C   UNL     1      -6.629   0.174 133.138  0.00  0.00    +0.000 C 
ATOM     24  O   UNL     1      -7.604  -0.048 132.430  0.00  0.00    +0.000 OA
ATOM     25  N   UNL     1      -7.460  -0.930 133.697  0.00  0.00    +0.000 N 
ATOM     26  H   UNL     1      -4.845   3.568 124.628  0.00  0.00    +0.000 HD
ATOM     27  H   UNL     1      -8.502   1.958 127.454  0.00  0.00    +0.000 HD
ATOM     28  H   UNL     1      -5.077  -1.409 128.697  0.00  0.00    +0.000 HD
ATOM     29  H   UNL     1      -4.487   1.925 132.401  0.00  0.00    +0.000 HD
ATOM     30  H   UNL     1      -7.594  -1.413 134.788  0.00  0.00    +0.000 HD
ENDROOT
BRANCH   1  36
ATOM     31  C   UNL     1      -6.242  -2.236 137.417  0.00  0.00    +0.000 C 
ATOM     32  C   UNL     1      -7.352  -1.925 138.560  0.00  0.00    +0.000 C 
ATOM     33  C   UNL     1      -6.592  -1.344 139.664  0.00  0.00    +0.000 C 
ATOM     34  C   UNL     1      -5.402  -0.589 138.270  0.00  0.00    +0.000 C 
ATOM     35  N   UNL     1      -5.500  -1.120 136.121  0.00  0.00    +0.000 N 
ATOM     36  C   UNL     1      -6.157  -1.022 134.049  0.00  0.00    +0.000 C 
ATOM     37  O   UNL     1      -5.190  -0.190 134.924  0.00  0.00    +0.000 OA
BRANCH  31  39
ATOM     38  N   UNL     1      -6.088  -3.531 135.707  0.00  0.00    +0.000 N 
ATOM     39  C   UNL     1      -6.802  -2.669 136.284  0.00  0.00    +0.000 C 
ATOM     40  O   UNL     1      -7.910  -2.550 135.883  0.00  0.00    +0.000 OA
ATOM     41  H   UNL     1      -5.008  -3.992 135.992  0.00  0.00    +0.000 HD
BRANCH  38  42
ATOM     42  C   UNL     1      -6.448  -5.043 134.531  0.00  0.00    +0.000 C 
BRANCH  42  43
ATOM     43  C   UNL     1      -7.059  -5.868 135.874  0.00  0.00    +0.000 C 
ATOM     44  O   UNL     1      -6.408  -6.662 136.490  0.00  0.00    +0.000 OA
ATOM     45  N   UNL     1      -8.647  -5.914 135.636  0.00  0.00    +0.000 N 
ATOM     46  H   UNL     1      -9.013  -5.374 134.797  0.00  0.00    +0.000 HD
BRANCH  45  47
ATOM     47  C   UNL     1      -9.561  -6.372 136.564  0.00  0.00    +0.000 C 
BRANCH  47  48
ATOM     48  C   UNL     1      -9.990  -5.506 137.537  0.00  0.00    +0.000 C 
ATOM     49  N   UNL     1      -9.762  -6.422 138.276  0.00  0.00    +0.000 N 
ATOM     50  O   UNL     1      -9.883  -4.357 137.705  0.00  0.00    +0.000 OA
ATOM     51  H   UNL     1     -10.716  -7.567 138.552  0.00  0.00    +0.000 HD
ATOM     52  H   UNL     1      -9.233  -5.886 139.390  0.00  0.00    +0.000 HD
ENDBRANCH  47  48
ENDBRANCH  45  47
ENDBRANCH  42  43
BRANCH  42  53
ATOM     53  C   UNL     1      -4.726  -5.394 133.333  0.00  0.00    +0.000 C 
BRANCH  53  54
ATOM     54  C   UNL     1      -3.639  -5.826 134.058  0.00  0.00    +0.000 C 
BRANCH  54  55
ATOM     55  C   UNL     1      -2.716  -4.880 134.864  0.00  0.00    +0.000 C 
BRANCH  55  59
ATOM     56  N   UNL     1       0.602  -3.567 134.507  0.00  0.00    +0.000 NA
ATOM     57  C   UNL     1      -0.402  -4.207 135.004  0.00  0.00    +0.000 C 
ATOM     58  N   UNL     1      -0.482  -4.717 136.283  0.00  0.00    +0.000 N 
ATOM     59  N   UNL     1      -1.471  -4.548 134.082  0.00  0.00    +0.000 N 
ATOM     60  H   UNL     1       1.432  -3.597 135.092  0.00  0.00    +0.000 HD
ATOM     61  H   UNL     1       0.344  -4.766 136.863  0.00  0.00    +0.000 HD
ATOM     62  H   UNL     1      -1.316  -5.105 136.713  0.00  0.00    +0.000 HD
ATOM     63  H   UNL     1      -1.563  -3.633 133.458  0.00  0.00    +0.000 HD
ENDBRANCH  55  59
ENDBRANCH  54  55
ENDBRANCH  53  54
ENDBRANCH  42  53
ENDBRANCH  38  42
ENDBRANCH  31  39
ENDBRANCH   1  36
BRANCH  14  64
ATOM     64  C   UNL     1      -6.989   2.093 129.274  0.00  0.00    +0.000 C 
BRANCH  64  65
ATOM     65  C   UNL     1      -8.049   2.948 129.652  0.00  0.00    +0.000 A 
ATOM     66  C   UNL     1      -8.079   4.258 129.354  0.00  0.00    +0.000 A 
ATOM     67  C   UNL     1      -9.124   4.963 129.857  0.00  0.00    +0.000 A 
ATOM     68  C   UNL     1     -10.219   4.354 130.397  0.00  0.00    +0.000 A 
ATOM     69  C   UNL     1     -10.147   3.043 130.698  0.00  0.00    +0.000 A 
ATOM     70  C   UNL     1      -9.088   2.346 130.305  0.00  0.00    +0.000 A 
ENDBRANCH  64  65
ENDBRANCH  14  64
BRANCH  10  71
ATOM     71  C   UNL     1      -4.831   1.888 126.184  0.00  0.00    +0.000 C 
BRANCH  71  72
ATOM     72  C   UNL     1      -4.074   3.073 126.427  0.00  0.00    +0.000 A 
ATOM     73  C   UNL     1      -4.783   4.185 126.790  0.00  0.00    +0.000 A 
ATOM     74  C   UNL     1      -4.153   5.251 127.370  0.00  0.00    +0.000 A 
ATOM     75  C   UNL     1      -2.791   5.205 127.540  0.00  0.00    +0.000 A 
ATOM     76  C   UNL     1      -2.070   4.111 127.098  0.00  0.00    +0.000 A 
ATOM     77  C   UNL     1      -2.710   3.041 126.529  0.00  0.00    +0.000 A 
BRANCH  75  78
ATOM     78  O   UNL     1      -2.065   6.199 128.114  0.00  0.00    +0.000 OA
ATOM     79  H   UNL     1      -2.301   7.098 127.836  0.00  0.00    +0.000 HD
ENDBRANCH  75  78
ENDBRANCH  71  72
ENDBRANCH  10  71
BRANCH  18  80
ATOM     80  C   UNL     1      -5.642  -1.452 130.447  0.00  0.00    +0.000 C 
BRANCH  80  81
ATOM     81  C   UNL     1      -5.197  -3.169 129.503  0.00  0.00    +0.000 C 
BRANCH  81  82
ATOM     82  C   UNL     1      -3.375  -3.049 129.236  0.00  0.00    +0.000 C 
ATOM     83  N   UNL     1      -2.304  -1.869 129.944  0.00  0.00    +0.000 N 
ATOM     84  O   UNL     1      -2.801  -4.068 129.119  0.00  0.00    +0.000 OA
ATOM     85  H   UNL     1      -2.477  -1.226 130.650  0.00  0.00    +0.000 HD
ATOM     86  H   UNL     1      -1.539  -2.127 130.586  0.00  0.00    +0.000 HD
ENDBRANCH  81  82
ENDBRANCH  80  81
ENDBRANCH  18  80
BRANCH  22  87
ATOM     87  C   UNL     1      -3.571  -0.421 134.101  0.00  0.00    +0.000 C 
BRANCH  87  88
ATOM     88  C   UNL     1      -2.385  -1.100 133.855  0.00  0.00    +0.000 C 
ATOM     89  N   UNL     1      -1.445  -1.010 134.866  0.00  0.00    +0.000 N 
ATOM     90  O   UNL     1      -2.299  -1.795 132.881  0.00  0.00    +0.000 OA
ATOM     91  H   UNL     1      -1.524  -0.567 135.804  0.00  0.00    +0.000 HD
ATOM     92  H   UNL     1      -0.540  -1.410 134.706  0.00  0.00    +0.000 HD
ENDBRANCH  87  88
ENDBRANCH  22  87
TORSDOF 20
ENDMDL
MODEL 2
REMARK VINA RESULT:     -11.0      5.504     11.195
REMARK  Name = CHEMBL376685
REMARK  20 active torsions:
REMARK  status: ('A' for Active; 'I' for Inactive)
REMARK    1  A    between atoms: N_4  and  C_5
REMARK    2  A    between atoms: C_5  and  C_6
REMARK    3  A    between atoms: C_6  and  C_7
REMARK    4  A    between atoms: C_7  and  C_8
REMARK    5  A    between atoms: C_8  and  N_9
REMARK    6  A    between atoms: C_8  and  C_68
REMARK    7  A    between atoms: C_10  and  C_12
REMARK    8  A    between atoms: C_17  and  C_19
REMARK    9  A    between atoms: C_28  and  C_29
REMARK   10  A    between atoms: C_29  and  C_30
REMARK   11  A    between atoms: C_33  and  O_34
REMARK   12  A    between atoms: C_40  and  C_41
REMARK   13  A    between atoms: C_41  and  C_42
REMARK   14  A    between atoms: C_51  and  C_52
REMARK   15  A    between atoms: C_52  and  C_53
REMARK   16  A    between atoms: C_53  and  C_54
REMARK   17  A    between atoms: C_60  and  C_61
REMARK   18  A    between atoms: C_61  and  C_62
REMARK   19  A    between atoms: N_70  and  C_71
REMARK   20  A    between atoms: C_71  and  C_72
REMARK                            x       y       z     vdW  Elec       q    Type
REMARK                         _______ _______ _______ _____ _____    ______ ____
ROOT
ATOM      1  C   UNL     1      -7.435   2.204 132.908  0.00  0.00    +0.000 C 
ATOM      2  C   UNL     1      -8.279   4.134 134.328  0.00  0.00    +0.000 C 
ATOM      3  S   UNL     1      -7.956   6.045 136.415  0.00  0.00    +0.000 S 
ATOM      4  S   UNL     1      -7.261   7.656 138.710  0.00  0.00    +0.000 S 
ATOM      5  C   UNL     1      -5.358   8.260 138.894  0.00  0.00    +0.000 C 
ATOM      6  C   UNL     1      -4.243   8.507 139.884  0.00  0.00    +0.000 C 
ATOM      7  C   UNL     1      -2.795   8.328 139.365  0.00  0.00    +0.000 C 
ATOM      8  O   UNL     1      -1.845   8.672 140.074  0.00  0.00    +0.000 OA
ATOM      9  N   UNL     1      -2.591   7.763 138.120  0.00  0.00    +0.000 N 
ATOM     10  C   UNL     1      -3.640   7.312 137.224  0.00  0.00    +0.000 C 
ATOM     11  C   UNL     1      -4.407   6.029 137.981  0.00  0.00    +0.000 C 
ATOM     12  O   UNL     1      -4.880   5.999 139.162  0.00  0.00    +0.000 OA
ATOM     13  N   UNL     1      -4.678   4.984 137.261  0.00  0.00    +0.000 N 
ATOM     14  C   UNL     1      -4.089   4.723 136.036  0.00  0.00    +0.000 C 
ATOM     15  C   UNL     1      -4.871   5.710 134.895  0.00  0.00    +0.000 C 
ATOM     16  O   UNL     1      -4.989   6.951 134.900  0.00  0.00    +0.000 OA
ATOM     17  N   UNL     1      -5.271   5.317 133.761  0.00  0.00    +0.000 N 
ATOM     18  C   UNL     1      -5.242   4.095 133.596  0.00  0.00    +0.000 C 
ATOM     19  C   UNL     1      -3.517   3.490 133.425  0.00  0.00    +0.000 C 
ATOM     20  O   UNL     1      -2.721   3.237 134.282  0.00  0.00    +0.000 OA
ATOM     21  N   UNL     1      -3.149   2.828 132.211  0.00  0.00    +0.000 N 
ATOM     22  C   UNL     1      -4.580   2.169 130.869  0.00  0.00    +0.000 C 
ATOM     23  C   UNL     1      -5.460   0.922 132.536  0.00  0.00    +0.000 C 
ATOM     24  O   UNL     1      -6.239   1.186 133.444  0.00  0.00    +0.000 OA
ATOM     25  N   UNL     1      -6.844   0.483 132.202  0.00  0.00    +0.000 N 
ATOM     26  H   UNL     1      -1.644   7.668 137.737  0.00  0.00    +0.000 HD
ATOM     27  H   UNL     1      -5.206   4.312 137.775  0.00  0.00    +0.000 HD
ATOM     28  H   UNL     1      -5.695   5.850 133.083  0.00  0.00    +0.000 HD
ATOM     29  H   UNL     1      -2.749   1.838 132.442  0.00  0.00    +0.000 HD
ATOM     30  H   UNL     1      -7.312  -0.327 131.448  0.00  0.00    +0.000 HD
ENDROOT
BRANCH   1  36
ATOM     31  C   UNL     1      -6.918  -0.389 127.815  0.00  0.00    +0.000 C 
ATOM     32  C   UNL     1      -7.942  -1.581 127.401  0.00  0.00    +0.000 C 
ATOM     33  C   UNL     1      -7.127  -2.516 126.632  0.00  0.00    +0.000 C 
ATOM     34  C   UNL     1      -5.625  -1.962 127.801  0.00  0.00    +0.000 C 
ATOM     35  N   UNL     1      -5.714  -0.273 129.232  0.00  0.00    +0.000 N 
ATOM     36  C   UNL     1      -6.102   0.762 131.106  0.00  0.00    +0.000 C 
ATOM     37  O   UNL     1      -4.984  -0.176 130.594  0.00  0.00    +0.000 OA
BRANCH  31  39
ATOM     38  N   UNL     1      -7.339   1.680 128.224  0.00  0.00    +0.000 N 
ATOM     39  C   UNL     1      -7.492   0.498 128.632  0.00  0.00    +0.000 C 
ATOM     40  O   UNL     1      -8.280   0.341 129.503  0.00  0.00    +0.000 OA
ATOM     41  H   UNL     1      -6.756   2.121 127.261  0.00  0.00    +0.000 HD
BRANCH  38  42
ATOM     42  C   UNL     1      -8.361   3.330 128.390  0.00  0.00    +0.000 C 
BRANCH  42  43
ATOM     43  C   UNL     1      -7.086   4.129 127.621  0.00  0.00    +0.000 C 
ATOM     44  O   UNL     1      -6.328   4.844 128.210  0.00  0.00    +0.000 OA
ATOM     45  N   UNL     1      -7.571   4.299 126.099  0.00  0.00    +0.000 N 
ATOM     46  H   UNL     1      -8.488   3.828 125.841  0.00  0.00    +0.000 HD
BRANCH  45  47
ATOM     47  C   UNL     1      -6.774   4.774 125.076  0.00  0.00    +0.000 C 
BRANCH  47  48
ATOM     48  C   UNL     1      -5.623   4.092 124.776  0.00  0.00    +0.000 C 
ATOM     49  N   UNL     1      -5.946   4.297 123.640  0.00  0.00    +0.000 N 
ATOM     50  O   UNL     1      -4.563   4.037 125.260  0.00  0.00    +0.000 OA
ATOM     51  H   UNL     1      -6.925   3.448 122.855  0.00  0.00    +0.000 HD
ATOM     52  H   UNL     1      -4.813   4.568 122.968  0.00  0.00    +0.000 HD
ENDBRANCH  47  48
ENDBRANCH  45  47
ENDBRANCH  42  43
BRANCH  42  53
ATOM     53  C   UNL     1      -9.108   3.467 130.377  0.00  0.00    +0.000 C 
BRANCH  53  54
ATOM     54  C   UNL     1     -10.408   3.916 130.438  0.00  0.00    +0.000 C 
BRANCH  54  55
ATOM     55  C   UNL     1     -10.813   5.397 130.243  0.00  0.00    +0.000 C 
BRANCH  55  59
ATOM     56  N   UNL     1     -13.144   7.649 131.777  0.00  0.00    +0.000 NA
ATOM     57  C   UNL     1     -12.586   6.905 130.883  0.00  0.00    +0.000 C 
ATOM     58  N   UNL     1     -12.870   6.913 129.534  0.00  0.00    +0.000 N 
ATOM     59  N   UNL     1     -11.694   5.868 131.372  0.00  0.00    +0.000 N 
ATOM     60  H   UNL     1     -13.955   8.157 131.434  0.00  0.00    +0.000 HD
ATOM     61  H   UNL     1     -13.684   7.402 129.189  0.00  0.00    +0.000 HD
ATOM     62  H   UNL     1     -12.343   6.423 128.817  0.00  0.00    +0.000 HD
ATOM     63  H   UNL     1     -11.143   6.378 132.189  0.00  0.00    +0.000 HD
ENDBRANCH  55  59
ENDBRANCH  54  55
ENDBRANCH  53  54
ENDBRANCH  42  53
ENDBRANCH  38  42
ENDBRANCH  31  39
ENDBRANCH   1  36
BRANCH  14  64
ATOM     64  C   UNL     1      -4.165   3.366 135.866  0.00  0.00    +0.000 C 
BRANCH  64  65
ATOM     65  C   UNL     1      -4.135   2.311 136.806  0.00  0.00    +0.000 A 
ATOM     66  C   UNL     1      -4.907   1.216 136.705  0.00  0.00    +0.000 A 
ATOM     67  C   UNL     1      -4.824   0.329 137.729  0.00  0.00    +0.000 A 
ATOM     68  C   UNL     1      -3.835   0.391 138.667  0.00  0.00    +0.000 A 
ATOM     69  C   UNL     1      -3.092   1.512 138.749  0.00  0.00    +0.000 A 
ATOM     70  C   UNL     1      -3.223   2.445 137.814  0.00  0.00    +0.000 A 
ENDBRANCH  64  65
ENDBRANCH  14  64
BRANCH  10  71
ATOM     71  C   UNL     1      -2.954   6.939 136.006  0.00  0.00    +0.000 C 
BRANCH  71  72
ATOM     72  C   UNL     1      -1.923   7.756 135.453  0.00  0.00    +0.000 A 
ATOM     73  C   UNL     1      -0.751   7.126 135.136  0.00  0.00    +0.000 A 
ATOM     74  C   UNL     1       0.153   7.722 134.302  0.00  0.00    +0.000 A 
ATOM     75  C   UNL     1      -0.115   8.982 133.824  0.00  0.00    +0.000 A 
ATOM     76  C   UNL     1      -1.264   9.645 134.212  0.00  0.00    +0.000 A 
ATOM     77  C   UNL     1      -2.172   9.036 135.039  0.00  0.00    +0.000 A 
BRANCH  75  78
ATOM     78  O   UNL     1       0.705   9.663 132.981  0.00  0.00    +0.000 OA
ATOM     79  H   UNL     1       0.367   9.782 132.080  0.00  0.00    +0.000 HD
ENDBRANCH  75  78
ENDBRANCH  71  72
ENDBRANCH  10  71
BRANCH  18  80
ATOM     80  C   UNL     1      -6.093   4.156 132.487  0.00  0.00    +0.000 C 
BRANCH  80  81
ATOM     81  C   UNL     1      -6.452   5.713 131.269  0.00  0.00    +0.000 C 
BRANCH  81  82
ATOM     82  C   UNL     1      -4.762   6.340 130.871  0.00  0.00    +0.000 C 
ATOM     83  N   UNL     1      -4.094   6.565 129.277  0.00  0.00    +0.000 N 
ATOM     84  O   UNL     1      -4.337   7.170 131.587  0.00  0.00    +0.000 OA
ATOM     85  H   UNL     1      -4.535   6.526 128.414  0.00  0.00    +0.000 HD
ATOM     86  H   UNL     1      -3.818   7.490 128.915  0.00  0.00    +0.000 HD
ENDBRANCH  81  82
ENDBRANCH  80  81
ENDBRANCH  18  80
BRANCH  22  87
ATOM     87  C   UNL     1      -4.015   1.593 129.691  0.00  0.00    +0.000 C 
BRANCH  87  88
ATOM     88  C   UNL     1      -3.657   2.546 128.747  0.00  0.00    +0.000 C 
ATOM     89  N   UNL     1      -3.832   2.154 127.431  0.00  0.00    +0.000 N 
ATOM     90  O   UNL     1      -3.351   3.647 129.112  0.00  0.00    +0.000 OA
ATOM     91  H   UNL     1      -4.252   1.281 127.053  0.00  0.00    +0.000 HD
ATOM     92  H   UNL     1      -3.512   2.769 126.709  0.00  0.00    +0.000 HD
ENDBRANCH  87  88
ENDBRANCH  22  87
TORSDOF 20
ENDMDL
MODEL 3
REMARK VINA RESULT:     -10.9      3.626     11.095
REMARK  Name = CHEMBL376685
REMARK  20 active torsions:
REMARK  status: ('A' for Active; 'I' for Inactive)
REMARK    1  A    between atoms: N_4  and  C_5
REMARK    2  A    between atoms: C_5  and  C_6
REMARK    3  A    between atoms: C_6  and  C_7
REMARK    4  A    between atoms: C_7  and  C_8
REMARK    5  A    between atoms: C_8  and  N_9
REMARK    6  A    between atoms: C_8  and  C_68
REMARK    7  A    between atoms: C_10  and  C_12
REMARK    8  A    between atoms: C_17  and  C_19
REMARK    9  A    between atoms: C_28  and  C_29
REMARK   10  A    between atoms: C_29  and  C_30
REMARK   11  A    between atoms: C_33  and  O_34
REMARK   12  A    between atoms: C_40  and  C_41
REMARK   13  A    between atoms: C_41  and  C_42
REMARK   14  A    between atoms: C_51  and  C_52
REMARK   15  A    between atoms: C_52  and  C_53
REMARK   16  A    between atoms: C_53  and  C_54
REMARK   17  A    between atoms: C_60  and  C_61
REMARK   18  A    between atoms: C_61  and  C_62
REMARK   19  A    between atoms: N_70  and  C_71
REMARK   20  A    between atoms: C_71  and  C_72
REMARK                            x       y       z     vdW  Elec       q    Type
REMARK                         _______ _______ _______ _____ _____    ______ ____
ROOT
ATOM      1  C   UNL     1      -4.093   1.533 131.826  0.00  0.00    +0.000 C 
ATOM      2  C   UNL     1      -5.098  -0.793 131.630  0.00  0.00    +0.000 C 
ATOM      3  S   UNL     1      -5.712  -3.361 132.699  0.00  0.00    +0.000 S 
ATOM      4  S   UNL     1      -5.949  -5.863 134.122  0.00  0.00    +0.000 S 
ATOM      5  C   UNL     1      -6.312  -5.795 136.093  0.00  0.00    +0.000 C 
ATOM      6  C   UNL     1      -5.995  -6.447 137.418  0.00  0.00    +0.000 C 
ATOM      7  C   UNL     1      -6.043  -5.541 138.673  0.00  0.00    +0.000 C 
ATOM      8  O   UNL     1      -5.956  -6.047 139.795  0.00  0.00    +0.000 OA
ATOM      9  N   UNL     1      -6.161  -4.173 138.511  0.00  0.00    +0.000 N 
ATOM     10  C   UNL     1      -6.251  -3.487 137.236  0.00  0.00    +0.000 C 
ATOM     11  C   UNL     1      -4.791  -3.727 136.450  0.00  0.00    +0.000 C 
ATOM     12  O   UNL     1      -4.199  -4.834 136.242  0.00  0.00    +0.000 OA
ATOM     13  N   UNL     1      -4.250  -2.703 135.864  0.00  0.00    +0.000 N 
ATOM     14  C   UNL     1      -4.608  -1.392 136.128  0.00  0.00    +0.000 C 
ATOM     15  C   UNL     1      -6.059  -1.102 135.291  0.00  0.00    +0.000 C 
ATOM     16  O   UNL     1      -7.138  -1.719 135.381  0.00  0.00    +0.000 OA
ATOM     17  N   UNL     1      -6.293  -0.069 134.599  0.00  0.00    +0.000 N 
ATOM     18  C   UNL     1      -5.313   0.650 134.393  0.00  0.00    +0.000 C 
ATOM     19  C   UNL     1      -4.808   1.538 135.919  0.00  0.00    +0.000 C 
ATOM     20  O   UNL     1      -4.135   1.146 136.828  0.00  0.00    +0.000 OA
ATOM     21  N   UNL     1      -4.821   2.968 135.907  0.00  0.00    +0.000 N 
ATOM     22  C   UNL     1      -4.966   4.026 134.134  0.00  0.00    +0.000 C 
ATOM     23  C   UNL     1      -3.091   2.972 133.440  0.00  0.00    +0.000 C 
ATOM     24  O   UNL     1      -2.900   1.877 132.926  0.00  0.00    +0.000 OA
ATOM     25  N   UNL     1      -2.926   3.091 131.963  0.00  0.00    +0.000 N 
ATOM     26  H   UNL     1      -6.232  -3.554 139.326  0.00  0.00    +0.000 HD
ATOM     27  H   UNL     1      -3.433  -2.961 135.356  0.00  0.00    +0.000 HD
ATOM     28  H   UNL     1      -7.107   0.140 134.133  0.00  0.00    +0.000 HD
ATOM     29  H   UNL     1      -3.832   3.344 136.180  0.00  0.00    +0.000 HD
ATOM     30  H   UNL     1      -2.614   3.981 131.220  0.00  0.00    +0.000 HD
ENDROOT
BRANCH   1  36
ATOM     31  C   UNL     1      -4.573   7.181 130.933  0.00  0.00    +0.000 C 
ATOM     32  C   UNL     1      -3.921   7.853 129.605  0.00  0.00    +0.000 C 
ATOM     33  C   UNL     1      -3.448   9.162 130.050  0.00  0.00    +0.000 C 
ATOM     34  C   UNL     1      -3.106   8.296 131.799  0.00  0.00    +0.000 C 
ATOM     35  N   UNL     1      -3.768   6.249 132.332  0.00  0.00    +0.000 N 
ATOM     36  C   UNL     1      -3.683   4.081 132.489  0.00  0.00    +0.000 C 
ATOM     37  O   UNL     1      -3.035   5.253 133.262  0.00  0.00    +0.000 OA
BRANCH  31  39
ATOM     38  N   UNL     1      -6.202   5.787 130.771  0.00  0.00    +0.000 N 
ATOM     39  C   UNL     1      -4.950   5.918 130.716  0.00  0.00    +0.000 C 
ATOM     40  O   UNL     1      -4.345   5.003 130.271  0.00  0.00    +0.000 OA
ATOM     41  H   UNL     1      -7.078   6.586 131.004  0.00  0.00    +0.000 HD
BRANCH  38  42
ATOM     42  C   UNL     1      -7.491   4.582 129.943  0.00  0.00    +0.000 C 
BRANCH  42  43
ATOM     43  C   UNL     1      -8.639   5.145 131.048  0.00  0.00    +0.000 C 
ATOM     44  O   UNL     1      -8.392   5.293 132.211  0.00  0.00    +0.000 OA
ATOM     45  N   UNL     1     -10.053   4.716 130.419  0.00  0.00    +0.000 N 
ATOM     46  H   UNL     1     -10.026   4.281 129.450  0.00  0.00    +0.000 HD
BRANCH  45  47
ATOM     47  C   UNL     1     -11.279   5.103 130.924  0.00  0.00    +0.000 C 
BRANCH  47  48
ATOM     48  C   UNL     1     -11.689   6.396 130.720  0.00  0.00    +0.000 C 
ATOM     49  N   UNL     1     -11.906   6.018 129.603  0.00  0.00    +0.000 N 
ATOM     50  O   UNL     1     -12.253   7.180 131.374  0.00  0.00    +0.000 OA
ATOM     51  H   UNL     1     -10.867   5.933 128.504  0.00  0.00    +0.000 HD
ATOM     52  H   UNL     1     -13.046   6.618 129.216  0.00  0.00    +0.000 HD
ENDBRANCH  47  48
ENDBRANCH  45  47
ENDBRANCH  42  43
BRANCH  42  53
ATOM     53  C   UNL     1      -6.582   2.672 129.713  0.00  0.00    +0.000 C 
BRANCH  53  54
ATOM     54  C   UNL     1      -6.245   2.385 128.409  0.00  0.00    +0.000 C 
BRANCH  54  55
ATOM     55  C   UNL     1      -4.792   2.402 127.877  0.00  0.00    +0.000 C 
BRANCH  55  59
ATOM     56  N   UNL     1      -2.288   4.964 127.716  0.00  0.00    +0.000 NA
ATOM     57  C   UNL     1      -2.869   3.824 127.552  0.00  0.00    +0.000 C 
ATOM     58  N   UNL     1      -2.255   2.656 127.149  0.00  0.00    +0.000 N 
ATOM     59  N   UNL     1      -4.317   3.815 127.655  0.00  0.00    +0.000 N 
ATOM     60  H   UNL     1      -1.335   4.990 127.363  0.00  0.00    +0.000 HD
ATOM     61  H   UNL     1      -1.314   2.677 126.782  0.00  0.00    +0.000 HD
ATOM     62  H   UNL     1      -2.683   1.736 127.145  0.00  0.00    +0.000 HD
ATOM     63  H   UNL     1      -4.510   4.494 128.512  0.00  0.00    +0.000 HD
ENDBRANCH  55  59
ENDBRANCH  54  55
ENDBRANCH  53  54
ENDBRANCH  42  53
ENDBRANCH  38  42
ENDBRANCH  31  39
ENDBRANCH   1  36
BRANCH  14  64
ATOM     64  C   UNL     1      -3.517  -0.633 135.797  0.00  0.00    +0.000 C 
BRANCH  64  65
ATOM     65  C   UNL     1      -2.174  -0.998 135.551  0.00  0.00    +0.000 A 
ATOM     66  C   UNL     1      -1.336  -1.411 136.517  0.00  0.00    +0.000 A 
ATOM     67  C   UNL     1      -0.055  -1.647 136.137  0.00  0.00    +0.000 A 
ATOM     68  C   UNL     1       0.311  -1.730 134.826  0.00  0.00    +0.000 A 
ATOM     69  C   UNL     1      -0.549  -1.292 133.886  0.00  0.00    +0.000 A 
ATOM     70  C   UNL     1      -1.783  -0.958 134.243  0.00  0.00    +0.000 A 
ENDBRANCH  64  65
ENDBRANCH  14  64
BRANCH  10  71
ATOM     71  C   UNL     1      -6.505  -2.103 137.575  0.00  0.00    +0.000 C 
BRANCH  71  72
ATOM     72  C   UNL     1      -7.305  -1.748 138.702  0.00  0.00    +0.000 A 
ATOM     73  C   UNL     1      -6.689  -1.018 139.681  0.00  0.00    +0.000 A 
ATOM     74  C   UNL     1      -7.428  -0.343 140.612  0.00  0.00    +0.000 A 
ATOM     75  C   UNL     1      -8.798  -0.449 140.576  0.00  0.00    +0.000 A 
ATOM     76  C   UNL     1      -9.410  -1.253 139.633  0.00  0.00    +0.000 A 
ATOM     77  C   UNL     1      -8.663  -1.917 138.695  0.00  0.00    +0.000 A 
BRANCH  75  78
ATOM     78  O   UNL     1      -9.630   0.185 141.443  0.00  0.00    +0.000 OA
ATOM     79  H   UNL     1      -9.543  -0.082 142.371  0.00  0.00    +0.000 HD
ENDBRANCH  75  78
ENDBRANCH  71  72
ENDBRANCH  10  71
BRANCH  18  80
ATOM     80  C   UNL     1      -5.946   1.330 133.346  0.00  0.00    +0.000 C 
BRANCH  80  81
ATOM     81  C   UNL     1      -7.693   2.323 133.374  0.00  0.00    +0.000 C 
BRANCH  81  82
ATOM     82  C   UNL     1      -8.723   1.408 132.147  0.00  0.00    +0.000 C 
ATOM     83  N   UNL     1      -8.787  -0.322 131.938  0.00  0.00    +0.000 N 
ATOM     84  O   UNL     1      -9.782   1.862 131.920  0.00  0.00    +0.000 OA
ATOM     85  H   UNL     1      -8.418  -1.023 132.498  0.00  0.00    +0.000 HD
ATOM     86  H   UNL     1      -9.647  -0.869 132.097  0.00  0.00    +0.000 HD
ENDBRANCH  81  82
ENDBRANCH  80  81
ENDBRANCH  18  80
BRANCH  22  87
ATOM     87  C   UNL     1      -5.028   5.439 134.333  0.00  0.00    +0.000 C 
BRANCH  87  88
ATOM     88  C   UNL     1      -5.945   5.803 135.309  0.00  0.00    +0.000 C 
ATOM     89  N   UNL     1      -5.544   6.851 136.120  0.00  0.00    +0.000 N 
ATOM     90  O   UNL     1      -7.032   5.296 135.311  0.00  0.00    +0.000 OA
ATOM     91  H   UNL     1      -4.691   7.443 136.060  0.00  0.00    +0.000 HD
ATOM     92  H   UNL     1      -6.130   7.099 136.894  0.00  0.00    +0.000 HD
ENDBRANCH  87  88
ENDBRANCH  22  87
TORSDOF 20
ENDMDL
MODEL 4
REMARK VINA RESULT:     -10.8      1.489      3.735
REMARK  Name = CHEMBL376685
REMARK  20 active torsions:
REMARK  status: ('A' for Active; 'I' for Inactive)
REMARK    1  A    between atoms: N_4  and  C_5
REMARK    2  A    between atoms: C_5  and  C_6
REMARK    3  A    between atoms: C_6  and  C_7
REMARK    4  A    between atoms: C_7  and  C_8
REMARK    5  A    between atoms: C_8  and  N_9
REMARK    6  A    between atoms: C_8  and  C_68
REMARK    7  A    between atoms: C_10  and  C_12
REMARK    8  A    between atoms: C_17  and  C_19
REMARK    9  A    between atoms: C_28  and  C_29
REMARK   10  A    between atoms: C_29  and  C_30
REMARK   11  A    between atoms: C_33  and  O_34
REMARK   12  A    between atoms: C_40  and  C_41
REMARK   13  A    between atoms: C_41  and  C_42
REMARK   14  A    between atoms: C_51  and  C_52
REMARK   15  A    between atoms: C_52  and  C_53
REMARK   16  A    between atoms: C_53  and  C_54
REMARK   17  A    between atoms: C_60  and  C_61
REMARK   18  A    between atoms: C_61  and  C_62
REMARK   19  A    between atoms: N_70  and  C_71
REMARK   20  A    between atoms: C_71  and  C_72
REMARK                            x       y       z     vdW  Elec       q    Type
REMARK                         _______ _______ _______ _____ _____    ______ ____
ROOT
ATOM      1  C   UNL     1      -6.998  -1.992 133.024  0.00  0.00    +0.000 C 
ATOM      2  C   UNL     1      -7.573  -2.913 130.727  0.00  0.00    +0.000 C 
ATOM      3  S   UNL     1      -8.101  -2.580 127.947  0.00  0.00    +0.000 S 
ATOM      4  S   UNL     1      -8.746  -1.746 125.258  0.00  0.00    +0.000 S 
ATOM      5  C   UNL     1      -7.699  -0.230 124.467  0.00  0.00    +0.000 C 
ATOM      6  C   UNL     1      -7.796   0.997 123.589  0.00  0.00    +0.000 C 
ATOM      7  C   UNL     1      -6.800   2.146 123.883  0.00  0.00    +0.000 C 
ATOM      8  O   UNL     1      -6.720   3.099 123.102  0.00  0.00    +0.000 OA
ATOM      9  N   UNL     1      -6.031   2.094 125.031  0.00  0.00    +0.000 N 
ATOM     10  C   UNL     1      -6.068   1.029 126.014  0.00  0.00    +0.000 C 
ATOM     11  C   UNL     1      -7.592   1.062 126.711  0.00  0.00    +0.000 C 
ATOM     12  O   UNL     1      -8.715   1.063 126.112  0.00  0.00    +0.000 OA
ATOM     13  N   UNL     1      -7.663   0.941 128.001  0.00  0.00    +0.000 N 
ATOM     14  C   UNL     1      -6.586   1.128 128.850  0.00  0.00    +0.000 C 
ATOM     15  C   UNL     1      -5.649  -0.288 128.771  0.00  0.00    +0.000 C 
ATOM     16  O   UNL     1      -5.137  -0.820 127.766  0.00  0.00    +0.000 OA
ATOM     17  N   UNL     1      -5.172  -0.889 129.777  0.00  0.00    +0.000 N 
ATOM     18  C   UNL     1      -5.598  -0.497 130.865  0.00  0.00    +0.000 C 
ATOM     19  C   UNL     1      -4.928   1.161 131.281  0.00  0.00    +0.000 C 
ATOM     20  O   UNL     1      -5.307   2.238 130.920  0.00  0.00    +0.000 OA
ATOM     21  N   UNL     1      -4.149   1.297 132.473  0.00  0.00    +0.000 N 
ATOM     22  C   UNL     1      -4.129  -0.184 133.919  0.00  0.00    +0.000 C 
ATOM     23  C   UNL     1      -6.371   0.050 134.081  0.00  0.00    +0.000 C 
ATOM     24  O   UNL     1      -7.300  -0.412 133.430  0.00  0.00    +0.000 OA
ATOM     25  N   UNL     1      -6.983  -1.121 134.771  0.00  0.00    +0.000 N 
ATOM     26  H   UNL     1      -5.338   2.824 125.229  0.00  0.00    +0.000 HD
ATOM     27  H   UNL     1      -8.609   0.888 128.312  0.00  0.00    +0.000 HD
ATOM     28  H   UNL     1      -4.620  -1.676 129.769  0.00  0.00    +0.000 HD
ATOM     29  H   UNL     1      -4.588   2.068 133.110  0.00  0.00    +0.000 HD
ATOM     30  H   UNL     1      -7.014  -1.507 135.907  0.00  0.00    +0.000 HD
ENDROOT
BRANCH   1  36
ATOM     31  C   UNL     1      -4.432  -2.333 138.145  0.00  0.00    +0.000 C 
ATOM     32  C   UNL     1      -5.282  -2.791 139.452  0.00  0.00    +0.000 C 
ATOM     33  C   UNL     1      -4.726  -2.001 140.547  0.00  0.00    +0.000 C 
ATOM     34  C   UNL     1      -4.414  -0.587 139.193  0.00  0.00    +0.000 C 
ATOM     35  N   UNL     1      -4.660  -0.872 137.010  0.00  0.00    +0.000 N 
ATOM     36  C   UNL     1      -5.680  -0.945 135.089  0.00  0.00    +0.000 C 
ATOM     37  O   UNL     1      -5.129   0.189 135.986  0.00  0.00    +0.000 OA
BRANCH  31  39
ATOM     38  N   UNL     1      -4.026  -3.566 136.430  0.00  0.00    +0.000 N 
ATOM     39  C   UNL     1      -4.905  -2.887 137.026  0.00  0.00    +0.000 C 
ATOM     40  O   UNL     1      -6.020  -3.028 136.652  0.00  0.00    +0.000 OA
ATOM     41  H   UNL     1      -2.862  -3.765 136.689  0.00  0.00    +0.000 HD
BRANCH  38  42
ATOM     42  C   UNL     1      -4.057  -5.124 135.261  0.00  0.00    +0.000 C 
BRANCH  42  43
ATOM     43  C   UNL     1      -2.557  -4.630 134.659  0.00  0.00    +0.000 C 
ATOM     44  O   UNL     1      -2.367  -4.429 133.494  0.00  0.00    +0.000 OA
ATOM     45  N   UNL     1      -1.488  -5.193 135.718  0.00  0.00    +0.000 N 
ATOM     46  H   UNL     1      -1.885  -5.652 136.590  0.00  0.00    +0.000 HD
BRANCH  45  47
ATOM     47  C   UNL     1      -0.140  -4.898 135.695  0.00  0.00    +0.000 C 
BRANCH  47  48
ATOM     48  C   UNL     1       0.244  -3.635 135.320  0.00  0.00    +0.000 C 
ATOM     49  N   UNL     1       0.677  -3.571 136.436  0.00  0.00    +0.000 N 
ATOM     50  O   UNL     1       0.645  -3.171 134.328  0.00  0.00    +0.000 OA
ATOM     51  H   UNL     1      -0.140  -3.206 137.658  0.00  0.00    +0.000 HD
ATOM     52  H   UNL     1       1.842  -2.903 136.351  0.00  0.00    +0.000 HD
ENDBRANCH  47  48
ENDBRANCH  45  47
ENDBRANCH  42  43
BRANCH  42  53
ATOM     53  C   UNL     1      -5.970  -5.242 134.338  0.00  0.00    +0.000 C 
BRANCH  53  54
ATOM     54  C   UNL     1      -6.803  -6.164 134.931  0.00  0.00    +0.000 C 
BRANCH  54  55
ATOM     55  C   UNL     1      -7.846  -5.804 136.015  0.00  0.00    +0.000 C 
BRANCH  55  59
ATOM     56  N   UNL     1      -9.799  -2.927 136.893  0.00  0.00    +0.000 NA
ATOM     57  C   UNL     1      -8.953  -3.895 136.995  0.00  0.00    +0.000 C 
ATOM     58  N   UNL     1      -8.380  -4.347 138.166  0.00  0.00    +0.000 N 
ATOM     59  N   UNL     1      -8.451  -4.448 135.750  0.00  0.00    +0.000 N 
ATOM     60  H   UNL     1      -9.906  -2.389 137.749  0.00  0.00    +0.000 HD
ATOM     61  H   UNL     1      -8.469  -3.808 139.016  0.00  0.00    +0.000 HD
ATOM     62  H   UNL     1      -7.818  -5.187 138.261  0.00  0.00    +0.000 HD
ATOM     63  H   UNL     1      -9.356  -4.478 135.108  0.00  0.00    +0.000 HD
ENDBRANCH  55  59
ENDBRANCH  54  55
ENDBRANCH  53  54
ENDBRANCH  42  53
ENDBRANCH  38  42
ENDBRANCH  31  39
ENDBRANCH   1  36
BRANCH  14  64
ATOM     64  C   UNL     1      -7.121   1.473 130.062  0.00  0.00    +0.000 C 
BRANCH  64  65
ATOM     65  C   UNL     1      -8.298   2.184 130.387  0.00  0.00    +0.000 A 
ATOM     66  C   UNL     1      -8.634   3.351 129.812  0.00  0.00    +0.000 A 
ATOM     67  C   UNL     1      -9.752   3.953 130.288  0.00  0.00    +0.000 A 
ATOM     68  C   UNL     1     -10.637   3.307 131.101  0.00  0.00    +0.000 A 
ATOM     69  C   UNL     1     -10.259   2.146 131.673  0.00  0.00    +0.000 A 
ATOM     70  C   UNL     1      -9.118   1.582 131.298  0.00  0.00    +0.000 A 
ENDBRANCH  64  65
ENDBRANCH  14  64
BRANCH  10  71
ATOM     71  C   UNL     1      -5.002   1.340 126.941  0.00  0.00    +0.000 C 
BRANCH  71  72
ATOM     72  C   UNL     1      -4.322   2.594 126.899  0.00  0.00    +0.000 A 
ATOM     73  C   UNL     1      -4.995   3.670 127.409  0.00  0.00    +0.000 A 
ATOM     74  C   UNL     1      -4.326   4.818 127.730  0.00  0.00    +0.000 A 
ATOM     75  C   UNL     1      -2.975   4.889 127.490  0.00  0.00    +0.000 A 
ATOM     76  C   UNL     1      -2.316   3.827 126.900  0.00  0.00    +0.000 A 
ATOM     77  C   UNL     1      -2.991   2.674 126.591  0.00  0.00    +0.000 A 
BRANCH  75  78
ATOM     78  O   UNL     1      -2.210   5.973 127.780  0.00  0.00    +0.000 OA
ATOM     79  H   UNL     1      -1.751   5.941 128.634  0.00  0.00    +0.000 HD
ENDBRANCH  75  78
ENDBRANCH  71  72
ENDBRANCH  10  71
BRANCH  18  80
ATOM     80  C   UNL     1      -5.144  -1.641 131.532  0.00  0.00    +0.000 C 
BRANCH  80  81
ATOM     81  C   UNL     1      -3.377  -2.578 131.347  0.00  0.00    +0.000 C 
BRANCH  81  82
ATOM     82  C   UNL     1      -3.511  -3.423 129.712  0.00  0.00    +0.000 C 
ATOM     83  N   UNL     1      -2.220  -4.217 128.852  0.00  0.00    +0.000 N 
ATOM     84  O   UNL     1      -4.518  -3.992 129.505  0.00  0.00    +0.000 OA
ATOM     85  H   UNL     1      -1.325  -4.439 129.154  0.00  0.00    +0.000 HD
ATOM     86  H   UNL     1      -2.228  -5.228 128.646  0.00  0.00    +0.000 HD
ENDBRANCH  81  82
ENDBRANCH  80  81
ENDBRANCH  18  80
BRANCH  22  87
ATOM     87  C   UNL     1      -3.243   0.107 135.001  0.00  0.00    +0.000 C 
BRANCH  87  88
ATOM     88  C   UNL     1      -2.135  -0.729 135.026  0.00  0.00    +0.000 C 
ATOM     89  N   UNL     1      -1.342  -0.675 133.893  0.00  0.00    +0.000 N 
ATOM     90  O   UNL     1      -1.874  -1.327 136.033  0.00  0.00    +0.000 OA
ATOM     91  H   UNL     1      -1.418  -0.054 133.063  0.00  0.00    +0.000 HD
ATOM     92  H   UNL     1      -0.577  -1.318 133.822  0.00  0.00    +0.000 HD
ENDBRANCH  87  88
ENDBRANCH  22  87
TORSDOF 20
ENDMDL
MODEL 5
REMARK VINA RESULT:     -10.8      3.626     10.423
REMARK  Name = CHEMBL376685
REMARK  20 active torsions:
REMARK  status: ('A' for Active; 'I' for Inactive)
REMARK    1  A    between atoms: N_4  and  C_5
REMARK    2  A    between atoms: C_5  and  C_6
REMARK    3  A    between atoms: C_6  and  C_7
REMARK    4  A    between atoms: C_7  and  C_8
REMARK    5  A    between atoms: C_8  and  N_9
REMARK    6  A    between atoms: C_8  and  C_68
REMARK    7  A    between atoms: C_10  and  C_12
REMARK    8  A    between atoms: C_17  and  C_19
REMARK    9  A    between atoms: C_28  and  C_29
REMARK   10  A    between atoms: C_29  and  C_30
REMARK   11  A    between atoms: C_33  and  O_34
REMARK   12  A    between atoms: C_40  and  C_41
REMARK   13  A    between atoms: C_41  and  C_42
REMARK   14  A    between atoms: C_51  and  C_52
REMARK   15  A    between atoms: C_52  and  C_53
REMARK   16  A    between atoms: C_53  and  C_54
REMARK   17  A    between atoms: C_60  and  C_61
REMARK   18  A    between atoms: C_61  and  C_62
REMARK   19  A    between atoms: N_70  and  C_71
REMARK   20  A    between atoms: C_71  and  C_72
REMARK                            x       y       z     vdW  Elec       q    Type
REMARK                         _______ _______ _______ _____ _____    ______ ____
ROOT
ATOM      1  C   UNL     1      -5.720   1.989 129.328  0.00  0.00    +0.000 C 
ATOM      2  C   UNL     1      -4.205   3.605 130.573  0.00  0.00    +0.000 C 
ATOM      3  S   UNL     1      -3.416   5.000 132.928  0.00  0.00    +0.000 S 
ATOM      4  S   UNL     1      -3.105   6.323 135.477  0.00  0.00    +0.000 S 
ATOM      5  C   UNL     1      -3.453   5.257 137.139  0.00  0.00    +0.000 C 
ATOM      6  C   UNL     1      -4.039   5.317 138.531  0.00  0.00    +0.000 C 
ATOM      7  C   UNL     1      -4.624   4.002 139.100  0.00  0.00    +0.000 C 
ATOM      8  O   UNL     1      -4.966   3.947 140.285  0.00  0.00    +0.000 OA
ATOM      9  N   UNL     1      -4.775   2.913 138.260  0.00  0.00    +0.000 N 
ATOM     10  C   UNL     1      -4.421   2.886 136.854  0.00  0.00    +0.000 C 
ATOM     11  C   UNL     1      -5.435   3.970 136.076  0.00  0.00    +0.000 C 
ATOM     12  O   UNL     1      -5.653   5.184 136.388  0.00  0.00    +0.000 OA
ATOM     13  N   UNL     1      -5.967   3.593 134.954  0.00  0.00    +0.000 N 
ATOM     14  C   UNL     1      -6.028   2.274 134.539  0.00  0.00    +0.000 C 
ATOM     15  C   UNL     1      -4.488   1.875 133.942  0.00  0.00    +0.000 C 
ATOM     16  O   UNL     1      -3.390   1.942 134.530  0.00  0.00    +0.000 OA
ATOM     17  N   UNL     1      -4.277   1.254 132.860  0.00  0.00    +0.000 N 
ATOM     18  C   UNL     1      -5.268   1.119 132.138  0.00  0.00    +0.000 C 
ATOM     19  C   UNL     1      -6.445  -0.098 132.847  0.00  0.00    +0.000 C 
ATOM     20  O   UNL     1      -7.277   0.065 133.693  0.00  0.00    +0.000 OA
ATOM     21  N   UNL     1      -6.757  -1.265 132.081  0.00  0.00    +0.000 N 
ATOM     22  C   UNL     1      -6.270  -1.394 130.073  0.00  0.00    +0.000 C 
ATOM     23  C   UNL     1      -7.508   0.466 129.731  0.00  0.00    +0.000 C 
ATOM     24  O   UNL     1      -7.259   1.659 129.853  0.00  0.00    +0.000 OA
ATOM     25  N   UNL     1      -7.189   1.086 128.414  0.00  0.00    +0.000 N 
ATOM     26  H   UNL     1      -5.126   2.019 138.621  0.00  0.00    +0.000 HD
ATOM     27  H   UNL     1      -6.483   4.332 134.527  0.00  0.00    +0.000 HD
ATOM     28  H   UNL     1      -3.424   0.991 132.504  0.00  0.00    +0.000 HD
ATOM     29  H   UNL     1      -7.838  -1.330 131.937  0.00  0.00    +0.000 HD
ATOM     30  H   UNL     1      -7.428   0.805 127.271  0.00  0.00    +0.000 HD
ENDROOT
BRANCH   1  36
ATOM     31  C   UNL     1      -6.662  -2.087 125.402  0.00  0.00    +0.000 C 
ATOM     32  C   UNL     1      -7.266  -1.691 123.946  0.00  0.00    +0.000 C 
ATOM     33  C   UNL     1      -8.137  -2.809 123.593  0.00  0.00    +0.000 C 
ATOM     34  C   UNL     1      -8.490  -2.976 125.536  0.00  0.00    +0.000 C 
ATOM     35  N   UNL     1      -7.385  -1.870 127.106  0.00  0.00    +0.000 N 
ATOM     36  C   UNL     1      -6.900  -0.235 128.457  0.00  0.00    +0.000 C 
ATOM     37  O   UNL     1      -7.951  -1.370 128.457  0.00  0.00    +0.000 OA
BRANCH  31  39
ATOM     38  N   UNL     1      -6.059  -0.027 125.272  0.00  0.00    +0.000 N 
ATOM     39  C   UNL     1      -5.929  -1.100 125.921  0.00  0.00    +0.000 C 
ATOM     40  O   UNL     1      -5.391  -1.015 126.973  0.00  0.00    +0.000 OA
ATOM     41  H   UNL     1      -6.698   0.231 124.279  0.00  0.00    +0.000 HD
BRANCH  38  42
ATOM     42  C   UNL     1      -5.943   1.866 125.717  0.00  0.00    +0.000 C 
BRANCH  42  43
ATOM     43  C   UNL     1      -6.740   2.197 124.264  0.00  0.00    +0.000 C 
ATOM     44  O   UNL     1      -6.260   2.886 123.411  0.00  0.00    +0.000 OA
ATOM     45  N   UNL     1      -8.302   2.063 124.617  0.00  0.00    +0.000 N 
ATOM     46  H   UNL     1      -8.536   1.719 125.595  0.00  0.00    +0.000 HD
BRANCH  45  47
ATOM     47  C   UNL     1      -9.318   2.110 123.684  0.00  0.00    +0.000 C 
BRANCH  47  48
ATOM     48  C   UNL     1     -10.047   0.971 123.456  0.00  0.00    +0.000 C 
ATOM     49  N   UNL     1     -10.057   0.888 124.652  0.00  0.00    +0.000 N 
ATOM     50  O   UNL     1     -10.857   0.670 122.673  0.00  0.00    +0.000 OA
ATOM     51  H   UNL     1      -8.944   0.284 125.484  0.00  0.00    +0.000 HD
ATOM     52  H   UNL     1     -11.280   0.443 124.990  0.00  0.00    +0.000 HD
ENDBRANCH  47  48
ENDBRANCH  45  47
ENDBRANCH  42  43
BRANCH  42  53
ATOM     53  C   UNL     1      -3.959   2.291 126.357  0.00  0.00    +0.000 C 
BRANCH  53  54
ATOM     54  C   UNL     1      -3.597   3.606 126.165  0.00  0.00    +0.000 C 
BRANCH  54  55
ATOM     55  C   UNL     1      -3.100   4.531 127.302  0.00  0.00    +0.000 C 
BRANCH  55  59
ATOM     56  N   UNL     1      -4.102   7.638 128.785  0.00  0.00    +0.000 NA
ATOM     57  C   UNL     1      -3.353   6.742 128.237  0.00  0.00    +0.000 C 
ATOM     58  N   UNL     1      -1.976   6.769 128.175  0.00  0.00    +0.000 N 
ATOM     59  N   UNL     1      -4.035   5.698 127.493  0.00  0.00    +0.000 N 
ATOM     60  H   UNL     1      -3.600   8.484 129.044  0.00  0.00    +0.000 HD
ATOM     61  H   UNL     1      -1.472   7.611 128.415  0.00  0.00    +0.000 HD
ATOM     62  H   UNL     1      -1.384   6.005 127.861  0.00  0.00    +0.000 HD
ATOM     63  H   UNL     1      -4.914   5.469 128.132  0.00  0.00    +0.000 HD
ENDBRANCH  55  59
ENDBRANCH  54  55
ENDBRANCH  53  54
ENDBRANCH  42  53
ENDBRANCH  38  42
ENDBRANCH  31  39
ENDBRANCH   1  36
BRANCH  14  64
ATOM     64  C   UNL     1      -7.087   2.204 133.674  0.00  0.00    +0.000 C 
BRANCH  64  65
ATOM     65  C   UNL     1      -7.943   3.210 133.172  0.00  0.00    +0.000 A 
ATOM     66  C   UNL     1      -9.138   3.497 133.718  0.00  0.00    +0.000 A 
ATOM     67  C   UNL     1      -9.880   4.433 133.074  0.00  0.00    +0.000 A 
ATOM     68  C   UNL     1      -9.357   5.233 132.101  0.00  0.00    +0.000 A 
ATOM     69  C   UNL     1      -8.164   4.905 131.566  0.00  0.00    +0.000 A 
ATOM     70  C   UNL     1      -7.457   3.924 132.115  0.00  0.00    +0.000 A 
ENDBRANCH  64  65
ENDBRANCH  14  64
BRANCH  10  71
ATOM     71  C   UNL     1      -4.620   1.513 136.446  0.00  0.00    +0.000 C 
BRANCH  71  72
ATOM     72  C   UNL     1      -4.381   0.428 137.342  0.00  0.00    +0.000 A 
ATOM     73  C   UNL     1      -5.400  -0.469 137.497  0.00  0.00    +0.000 A 
ATOM     74  C   UNL     1      -5.164  -1.700 138.043  0.00  0.00    +0.000 A 
ATOM     75  C   UNL     1      -3.895  -2.002 138.476  0.00  0.00    +0.000 A 
ATOM     76  C   UNL     1      -2.887  -1.060 138.389  0.00  0.00    +0.000 A 
ATOM     77  C   UNL     1      -3.129   0.167 137.828  0.00  0.00    +0.000 A 
BRANCH  75  78
ATOM     78  O   UNL     1      -3.544  -3.195 139.022  0.00  0.00    +0.000 OA
ATOM     79  H   UNL     1      -4.274  -3.820 139.157  0.00  0.00    +0.000 HD
ENDBRANCH  75  78
ENDBRANCH  71  72
ENDBRANCH  10  71
BRANCH  18  80
ATOM     80  C   UNL     1      -4.492   0.797 131.019  0.00  0.00    +0.000 C 
BRANCH  80  81
ATOM     81  C   UNL     1      -3.160  -0.692 130.805  0.00  0.00    +0.000 C 
BRANCH  81  82
ATOM     82  C   UNL     1      -3.384  -1.687 132.343  0.00  0.00    +0.000 C 
ATOM     83  N   UNL     1      -3.461  -3.426 132.445  0.00  0.00    +0.000 N 
ATOM     84  O   UNL     1      -2.865  -1.268 133.311  0.00  0.00    +0.000 OA
ATOM     85  H   UNL     1      -3.270  -4.091 131.765  0.00  0.00    +0.000 HD
ATOM     86  H   UNL     1      -2.763  -3.985 132.960  0.00  0.00    +0.000 HD
ENDBRANCH  81  82
ENDBRANCH  80  81
ENDBRANCH  18  80
BRANCH  22  87
ATOM     87  C   UNL     1      -6.603  -2.659 129.500  0.00  0.00    +0.000 C 
BRANCH  87  88
ATOM     88  C   UNL     1      -5.564  -3.576 129.583  0.00  0.00    +0.000 C 
ATOM     89  N   UNL     1      -4.461  -3.276 128.803  0.00  0.00    +0.000 N 
ATOM     90  O   UNL     1      -5.630  -4.466 130.385  0.00  0.00    +0.000 OA
ATOM     91  H   UNL     1      -4.274  -2.435 128.221  0.00  0.00    +0.000 HD
ATOM     92  H   UNL     1      -3.717  -3.945 128.760  0.00  0.00    +0.000 HD
ENDBRANCH  87  88
ENDBRANCH  22  87
TORSDOF 20
ENDMDL
MODEL 6
REMARK VINA RESULT:     -10.7      4.897      8.766
REMARK  Name = CHEMBL376685
REMARK  20 active torsions:
REMARK  status: ('A' for Active; 'I' for Inactive)
REMARK    1  A    between atoms: N_4  and  C_5
REMARK    2  A    between atoms: C_5  and  C_6
REMARK    3  A    between atoms: C_6  and  C_7
REMARK    4  A    between atoms: C_7  and  C_8
REMARK    5  A    between atoms: C_8  and  N_9
REMARK    6  A    between atoms: C_8  and  C_68
REMARK    7  A    between atoms: C_10  and  C_12
REMARK    8  A    between atoms: C_17  and  C_19
REMARK    9  A    between atoms: C_28  and  C_29
REMARK   10  A    between atoms: C_29  and  C_30
REMARK   11  A    between atoms: C_33  and  O_34
REMARK   12  A    between atoms: C_40  and  C_41
REMARK   13  A    between atoms: C_41  and  C_42
REMARK   14  A    between atoms: C_51  and  C_52
REMARK   15  A    between atoms: C_52  and  C_53
REMARK   16  A    between atoms: C_53  and  C_54
REMARK   17  A    between atoms: C_60  and  C_61
REMARK   18  A    between atoms: C_61  and  C_62
REMARK   19  A    between atoms: N_70  and  C_71
REMARK   20  A    between atoms: C_71  and  C_72
REMARK                            x       y       z     vdW  Elec       q    Type
REMARK                         _______ _______ _______ _____ _____    ______ ____
ROOT
ATOM      1  C   UNL     1      -5.500   5.388 131.784  0.00  0.00    +0.000 C 
ATOM      2  C   UNL     1      -7.201   5.019 129.932  0.00  0.00    +0.000 C 
ATOM      3  S   UNL     1      -8.127   3.659 127.607  0.00  0.00    +0.000 S 
ATOM      4  S   UNL     1      -8.565   2.141 125.189  0.00  0.00    +0.000 S 
ATOM      5  C   UNL     1      -8.033   0.208 125.182  0.00  0.00    +0.000 C 
ATOM      6  C   UNL     1      -7.430  -0.892 124.339  0.00  0.00    +0.000 C 
ATOM      7  C   UNL     1      -6.651  -2.000 125.089  0.00  0.00    +0.000 C 
ATOM      8  O   UNL     1      -6.279  -3.006 124.478  0.00  0.00    +0.000 OA
ATOM      9  N   UNL     1      -6.366  -1.833 126.432  0.00  0.00    +0.000 N 
ATOM     10  C   UNL     1      -6.745  -0.681 127.229  0.00  0.00    +0.000 C 
ATOM     11  C   UNL     1      -5.912   0.634 126.610  0.00  0.00    +0.000 C 
ATOM     12  O   UNL     1      -5.861   1.015 125.396  0.00  0.00    +0.000 OA
ATOM     13  N   UNL     1      -5.358   1.446 127.457  0.00  0.00    +0.000 N 
ATOM     14  C   UNL     1      -5.119   1.125 128.782  0.00  0.00    +0.000 C 
ATOM     15  C   UNL     1      -6.600   1.284 129.600  0.00  0.00    +0.000 C 
ATOM     16  O   UNL     1      -7.682   0.716 129.356  0.00  0.00    +0.000 OA
ATOM     17  N   UNL     1      -6.744   1.866 130.715  0.00  0.00    +0.000 N 
ATOM     18  C   UNL     1      -5.761   2.503 131.098  0.00  0.00    +0.000 C 
ATOM     19  C   UNL     1      -4.407   1.382 131.627  0.00  0.00    +0.000 C 
ATOM     20  O   UNL     1      -3.589   0.823 130.955  0.00  0.00    +0.000 OA
ATOM     21  N   UNL     1      -3.951   1.462 132.980  0.00  0.00    +0.000 N 
ATOM     22  C   UNL     1      -4.459   3.061 134.193  0.00  0.00    +0.000 C 
ATOM     23  C   UNL     1      -3.506   4.426 132.665  0.00  0.00    +0.000 C 
ATOM     24  O   UNL     1      -3.919   4.914 131.620  0.00  0.00    +0.000 OA
ATOM     25  N   UNL     1      -3.939   5.838 132.865  0.00  0.00    +0.000 N 
ATOM     26  H   UNL     1      -5.884  -2.568 126.960  0.00  0.00    +0.000 HD
ATOM     27  H   UNL     1      -4.961   2.238 127.000  0.00  0.00    +0.000 HD
ATOM     28  H   UNL     1      -7.559   1.954 131.217  0.00  0.00    +0.000 HD
ATOM     29  H   UNL     1      -2.875   1.653 132.992  0.00  0.00    +0.000 HD
ATOM     30  H   UNL     1      -3.688   6.689 133.674  0.00  0.00    +0.000 HD
ENDROOT
BRANCH   1  36
ATOM     31  C   UNL     1      -3.973   6.822 137.126  0.00  0.00    +0.000 C 
ATOM     32  C   UNL     1      -3.389   8.306 137.434  0.00  0.00    +0.000 C 
ATOM     33  C   UNL     1      -2.379   8.097 138.468  0.00  0.00    +0.000 C 
ATOM     34  C   UNL     1      -2.054   6.341 137.608  0.00  0.00    +0.000 C 
ATOM     35  N   UNL     1      -3.323   5.478 136.009  0.00  0.00    +0.000 N 
ATOM     36  C   UNL     1      -4.036   5.094 133.991  0.00  0.00    +0.000 C 
ATOM     37  O   UNL     1      -2.854   4.575 134.843  0.00  0.00    +0.000 OA
BRANCH  31  39
ATOM     38  N   UNL     1      -5.998   6.514 136.471  0.00  0.00    +0.000 N 
ATOM     39  C   UNL     1      -4.834   6.830 136.105  0.00  0.00    +0.000 C 
ATOM     40  O   UNL     1      -4.732   7.290 135.019  0.00  0.00    +0.000 OA
ATOM     41  H   UNL     1      -6.435   6.193 137.551  0.00  0.00    +0.000 HD
BRANCH  38  42
ATOM     42  C   UNL     1      -7.794   6.941 135.847  0.00  0.00    +0.000 C 
BRANCH  42  43
ATOM     43  C   UNL     1      -8.225   7.216 137.457  0.00  0.00    +0.000 C 
ATOM     44  O   UNL     1      -8.219   6.347 138.281  0.00  0.00    +0.000 OA
ATOM     45  N   UNL     1      -9.224   8.473 137.402  0.00  0.00    +0.000 N 
ATOM     46  H   UNL     1      -9.348   8.935 136.454  0.00  0.00    +0.000 HD
BRANCH  45  47
ATOM     47  C   UNL     1      -9.710   9.131 138.515  0.00  0.00    +0.000 C 
BRANCH  47  48
ATOM     48  C   UNL     1      -8.825   9.826 139.299  0.00  0.00    +0.000 C 
ATOM     49  N   UNL     1      -9.732  10.600 139.418  0.00  0.00    +0.000 N 
ATOM     50  O   UNL     1      -7.996   9.513 140.057  0.00  0.00    +0.000 OA
ATOM     51  H   UNL     1     -10.066  11.696 138.427  0.00  0.00    +0.000 HD
ATOM     52  H   UNL     1      -9.702  11.024 140.695  0.00  0.00    +0.000 HD
ENDBRANCH  47  48
ENDBRANCH  45  47
ENDBRANCH  42  43
BRANCH  42  53
ATOM     53  C   UNL     1      -8.406   5.443 134.466  0.00  0.00    +0.000 C 
BRANCH  53  54
ATOM     54  C   UNL     1      -8.811   5.955 133.254  0.00  0.00    +0.000 C 
BRANCH  54  55
ATOM     55  C   UNL     1     -10.190   5.657 132.617  0.00  0.00    +0.000 C 
BRANCH  55  59
ATOM     56  N   UNL     1     -10.597   6.065 129.077  0.00  0.00    +0.000 NA
ATOM     57  C   UNL     1     -10.739   5.587 130.267  0.00  0.00    +0.000 C 
ATOM     58  N   UNL     1     -11.320   4.378 130.587  0.00  0.00    +0.000 N 
ATOM     59  N   UNL     1     -10.391   6.472 131.365  0.00  0.00    +0.000 N 
ATOM     60  H   UNL     1     -11.104   5.544 128.367  0.00  0.00    +0.000 HD
ATOM     61  H   UNL     1     -11.840   3.864 129.890  0.00  0.00    +0.000 HD
ATOM     62  H   UNL     1     -11.315   3.946 131.506  0.00  0.00    +0.000 HD
ATOM     63  H   UNL     1      -9.468   6.971 131.001  0.00  0.00    +0.000 HD
ENDBRANCH  55  59
ENDBRANCH  54  55
ENDBRANCH  53  54
ENDBRANCH  42  53
ENDBRANCH  38  42
ENDBRANCH  31  39
ENDBRANCH   1  36
BRANCH  14  64
ATOM     64  C   UNL     1      -4.080   1.924 129.179  0.00  0.00    +0.000 C 
BRANCH  64  65
ATOM     65  C   UNL     1      -3.383   2.946 128.495  0.00  0.00    +0.000 A 
ATOM     66  C   UNL     1      -2.537   2.704 127.479  0.00  0.00    +0.000 A 
ATOM     67  C   UNL     1      -1.881   3.781 126.978  0.00  0.00    +0.000 A 
ATOM     68  C   UNL     1      -2.242   5.060 127.285  0.00  0.00    +0.000 A 
ATOM     69  C   UNL     1      -3.079   5.265 128.321  0.00  0.00    +0.000 A 
ATOM     70  C   UNL     1      -3.662   4.221 128.897  0.00  0.00    +0.000 A 
ENDBRANCH  64  65
ENDBRANCH  14  64
BRANCH  10  71
ATOM     71  C   UNL     1      -6.362  -1.023 128.582  0.00  0.00    +0.000 C 
BRANCH  71  72
ATOM     72  C   UNL     1      -6.150  -2.378 128.975  0.00  0.00    +0.000 A 
ATOM     73  C   UNL     1      -4.852  -2.759 129.174  0.00  0.00    +0.000 A 
ATOM     74  C   UNL     1      -4.562  -3.900 129.870  0.00  0.00    +0.000 A 
ATOM     75  C   UNL     1      -5.597  -4.680 130.326  0.00  0.00    +0.000 A 
ATOM     76  C   UNL     1      -6.906  -4.331 130.052  0.00  0.00    +0.000 A 
ATOM     77  C   UNL     1      -7.189  -3.179 129.365  0.00  0.00    +0.000 A 
BRANCH  75  78
ATOM     78  O   UNL     1      -5.426  -5.825 131.037  0.00  0.00    +0.000 OA
ATOM     79  H   UNL     1      -4.541  -6.219 130.982  0.00  0.00    +0.000 HD
ENDBRANCH  75  78
ENDBRANCH  71  72
ENDBRANCH  10  71
BRANCH  18  80
ATOM     80  C   UNL     1      -6.508   3.219 132.041  0.00  0.00    +0.000 C 
BRANCH  80  81
ATOM     81  C   UNL     1      -7.825   2.518 133.387  0.00  0.00    +0.000 C 
BRANCH  81  82
ATOM     82  C   UNL     1      -9.153   1.780 132.339  0.00  0.00    +0.000 C 
ATOM     83  N   UNL     1      -9.280   0.109 131.859  0.00  0.00    +0.000 N 
ATOM     84  O   UNL     1     -10.232   2.221 132.486  0.00  0.00    +0.000 OA
ATOM     85  H   UNL     1      -8.777  -0.660 132.170  0.00  0.00    +0.000 HD
ATOM     86  H   UNL     1     -10.068  -0.493 132.144  0.00  0.00    +0.000 HD
ENDBRANCH  81  82
ENDBRANCH  80  81
ENDBRANCH  18  80
BRANCH  22  87
ATOM     87  C   UNL     1      -3.963   2.928 135.526  0.00  0.00    +0.000 C 
BRANCH  87  88
ATOM     88  C   UNL     1      -4.210   1.674 136.067  0.00  0.00    +0.000 C 
ATOM     89  N   UNL     1      -3.314   1.278 137.045  0.00  0.00    +0.000 N 
ATOM     90  O   UNL     1      -5.212   1.090 135.760  0.00  0.00    +0.000 OA
ATOM     91  H   UNL     1      -2.530   1.807 137.476  0.00  0.00    +0.000 HD
ATOM     92  H   UNL     1      -3.395   0.348 137.410  0.00  0.00    +0.000 HD
ENDBRANCH  87  88
ENDBRANCH  22  87
TORSDOF 20
ENDMDL
MODEL 7
REMARK VINA RESULT:     -10.5      3.432      6.088
REMARK  Name = CHEMBL376685
REMARK  20 active torsions:
REMARK  status: ('A' for Active; 'I' for Inactive)
REMARK    1  A    between atoms: N_4  and  C_5
REMARK    2  A    between atoms: C_5  and  C_6
REMARK    3  A    between atoms: C_6  and  C_7
REMARK    4  A    between atoms: C_7  and  C_8
REMARK    5  A    between atoms: C_8  and  N_9
REMARK    6  A    between atoms: C_8  and  C_68
REMARK    7  A    between atoms: C_10  and  C_12
REMARK    8  A    between atoms: C_17  and  C_19
REMARK    9  A    between atoms: C_28  and  C_29
REMARK   10  A    between atoms: C_29  and  C_30
REMARK   11  A    between atoms: C_33  and  O_34
REMARK   12  A    between atoms: C_40  and  C_41
REMARK   13  A    between atoms: C_41  and  C_42
REMARK   14  A    between atoms: C_51  and  C_52
REMARK   15  A    between atoms: C_52  and  C_53
REMARK   16  A    between atoms: C_53  and  C_54
REMARK   17  A    between atoms: C_60  and  C_61
REMARK   18  A    between atoms: C_61  and  C_62
REMARK   19  A    between atoms: N_70  and  C_71
REMARK   20  A    between atoms: C_71  and  C_72
REMARK                            x       y       z     vdW  Elec       q    Type
REMARK                         _______ _______ _______ _____ _____    ______ ____
ROOT
ATOM      1  C   UNL     1      -5.761  -1.252 132.184  0.00  0.00    +0.000 C 
ATOM      2  C   UNL     1      -4.420  -0.178 130.312  0.00  0.00    +0.000 C 
ATOM      3  S   UNL     1      -3.595   2.086 128.793  0.00  0.00    +0.000 S 
ATOM      4  S   UNL     1      -3.198   4.604 127.435  0.00  0.00    +0.000 S 
ATOM      5  C   UNL     1      -3.115   6.271 128.547  0.00  0.00    +0.000 C 
ATOM      6  C   UNL     1      -3.510   7.729 128.598  0.00  0.00    +0.000 C 
ATOM      7  C   UNL     1      -3.759   8.337 130.000  0.00  0.00    +0.000 C 
ATOM      8  O   UNL     1      -3.923   9.555 130.117  0.00  0.00    +0.000 OA
ATOM      9  N   UNL     1      -3.816   7.498 131.098  0.00  0.00    +0.000 N 
ATOM     10  C   UNL     1      -3.654   6.057 131.058  0.00  0.00    +0.000 C 
ATOM     11  C   UNL     1      -4.948   5.447 130.184  0.00  0.00    +0.000 C 
ATOM     12  O   UNL     1      -5.344   5.815 129.032  0.00  0.00    +0.000 OA
ATOM     13  N   UNL     1      -5.545   4.395 130.654  0.00  0.00    +0.000 N 
ATOM     14  C   UNL     1      -5.416   3.959 131.961  0.00  0.00    +0.000 C 
ATOM     15  C   UNL     1      -3.922   3.154 132.064  0.00  0.00    +0.000 C 
ATOM     16  O   UNL     1      -2.787   3.594 131.792  0.00  0.00    +0.000 OA
ATOM     17  N   UNL     1      -3.746   2.039 132.635  0.00  0.00    +0.000 N 
ATOM     18  C   UNL     1      -4.782   1.451 132.954  0.00  0.00    +0.000 C 
ATOM     19  C   UNL     1      -5.607   2.278 134.370  0.00  0.00    +0.000 C 
ATOM     20  O   UNL     1      -6.333   3.230 134.366  0.00  0.00    +0.000 OA
ATOM     21  N   UNL     1      -5.796   1.531 135.575  0.00  0.00    +0.000 N 
ATOM     22  C   UNL     1      -5.567  -0.526 135.610  0.00  0.00    +0.000 C 
ATOM     23  C   UNL     1      -7.163  -0.655 134.016  0.00  0.00    +0.000 C 
ATOM     24  O   UNL     1      -7.127  -0.538 132.797  0.00  0.00    +0.000 OA
ATOM     25  N   UNL     1      -7.145  -1.987 133.347  0.00  0.00    +0.000 N 
ATOM     26  H   UNL     1      -3.943   7.879 132.042  0.00  0.00    +0.000 HD
ATOM     27  H   UNL     1      -6.243   4.059 130.026  0.00  0.00    +0.000 HD
ATOM     28  H   UNL     1      -2.915   1.567 132.734  0.00  0.00    +0.000 HD
ATOM     29  H   UNL     1      -6.855   1.529 135.841  0.00  0.00    +0.000 HD
ATOM     30  H   UNL     1      -7.478  -3.095 133.668  0.00  0.00    +0.000 HD
ENDROOT
BRANCH   1  36
ATOM     31  C   UNL     1      -6.925  -5.216 136.166  0.00  0.00    +0.000 C 
ATOM     32  C   UNL     1      -8.027  -6.372 135.866  0.00  0.00    +0.000 C 
ATOM     33  C   UNL     1      -8.685  -6.595 137.151  0.00  0.00    +0.000 C 
ATOM     34  C   UNL     1      -8.365  -4.670 137.499  0.00  0.00    +0.000 C 
ATOM     35  N   UNL     1      -7.108  -3.362 136.226  0.00  0.00    +0.000 N 
ATOM     36  C   UNL     1      -6.613  -2.016 134.591  0.00  0.00    +0.000 C 
ATOM     37  O   UNL     1      -7.322  -1.854 135.956  0.00  0.00    +0.000 OA
BRANCH  31  39
ATOM     38  N   UNL     1      -5.066  -4.716 135.208  0.00  0.00    +0.000 N 
ATOM     39  C   UNL     1      -6.312  -4.813 135.050  0.00  0.00    +0.000 C 
ATOM     40  O   UNL     1      -6.705  -4.764 133.934  0.00  0.00    +0.000 OA
ATOM     41  H   UNL     1      -4.369  -4.898 136.179  0.00  0.00    +0.000 HD
BRANCH  38  42
ATOM     42  C   UNL     1      -3.519  -4.887 134.037  0.00  0.00    +0.000 C 
BRANCH  42  43
ATOM     43  C   UNL     1      -2.556  -4.380 135.330  0.00  0.00    +0.000 C 
ATOM     44  O   UNL     1      -2.862  -3.464 136.037  0.00  0.00    +0.000 OA
ATOM     45  N   UNL     1      -1.064  -4.816 134.922  0.00  0.00    +0.000 N 
ATOM     46  H   UNL     1      -0.967  -5.388 134.032  0.00  0.00    +0.000 HD
BRANCH  45  47
ATOM     47  C   UNL     1       0.030  -4.724 135.759  0.00  0.00    +0.000 C 
BRANCH  47  48
ATOM     48  C   UNL     1       0.611  -3.495 135.939  0.00  0.00    +0.000 C 
ATOM     49  N   UNL     1       1.106  -3.711 134.869  0.00  0.00    +0.000 N 
ATOM     50  O   UNL     1       0.255  -2.492 136.415  0.00  0.00    +0.000 OA
ATOM     51  H   UNL     1       2.364  -4.528 134.650  0.00  0.00    +0.000 HD
ATOM     52  H   UNL     1       1.107  -2.540 134.208  0.00  0.00    +0.000 HD
ENDBRANCH  47  48
ENDBRANCH  45  47
ENDBRANCH  42  43
BRANCH  42  53
ATOM     53  C   UNL     1      -3.971  -3.960 132.176  0.00  0.00    +0.000 C 
BRANCH  53  54
ATOM     54  C   UNL     1      -4.605  -4.802 131.290  0.00  0.00    +0.000 C 
BRANCH  54  55
ATOM     55  C   UNL     1      -5.904  -4.430 130.536  0.00  0.00    +0.000 C 
BRANCH  55  59
ATOM     56  N   UNL     1      -6.836  -2.347 127.769  0.00  0.00    +0.000 NA
ATOM     57  C   UNL     1      -6.875  -2.914 128.927  0.00  0.00    +0.000 C 
ATOM     58  N   UNL     1      -7.958  -2.930 129.782  0.00  0.00    +0.000 N 
ATOM     59  N   UNL     1      -5.621  -3.447 129.429  0.00  0.00    +0.000 N 
ATOM     60  H   UNL     1      -7.637  -1.751 127.582  0.00  0.00    +0.000 HD
ATOM     61  H   UNL     1      -8.750  -2.327 129.610  0.00  0.00    +0.000 HD
ATOM     62  H   UNL     1      -8.031  -3.483 130.631  0.00  0.00    +0.000 HD
ATOM     63  H   UNL     1      -5.166  -3.907 128.526  0.00  0.00    +0.000 HD
ENDBRANCH  55  59
ENDBRANCH  54  55
ENDBRANCH  53  54
ENDBRANCH  42  53
ENDBRANCH  38  42
ENDBRANCH  31  39
ENDBRANCH   1  36
BRANCH  14  64
ATOM     64  C   UNL     1      -6.549   3.239 132.229  0.00  0.00    +0.000 C 
BRANCH  64  65
ATOM     65  C   UNL     1      -7.794   3.187 131.562  0.00  0.00    +0.000 A 
ATOM     66  C   UNL     1      -8.132   2.199 130.715  0.00  0.00    +0.000 A 
ATOM     67  C   UNL     1      -9.328   2.332 130.089  0.00  0.00    +0.000 A 
ATOM     68  C   UNL     1     -10.256   3.251 130.481  0.00  0.00    +0.000 A 
ATOM     69  C   UNL     1      -9.876   4.236 131.318  0.00  0.00    +0.000 A 
ATOM     70  C   UNL     1      -8.671   4.186 131.871  0.00  0.00    +0.000 A 
ENDBRANCH  64  65
ENDBRANCH  14  64
BRANCH  10  71
ATOM     71  C   UNL     1      -3.647   5.644 132.444  0.00  0.00    +0.000 C 
BRANCH  71  72
ATOM     72  C   UNL     1      -2.959   6.398 133.442  0.00  0.00    +0.000 A 
ATOM     73  C   UNL     1      -3.697   6.794 134.523  0.00  0.00    +0.000 A 
ATOM     74  C   UNL     1      -3.079   7.207 135.670  0.00  0.00    +0.000 A 
ATOM     75  C   UNL     1      -1.706   7.262 135.703  0.00  0.00    +0.000 A 
ATOM     76  C   UNL     1      -0.970   6.936 134.579  0.00  0.00    +0.000 A 
ATOM     77  C   UNL     1      -1.596   6.511 133.436  0.00  0.00    +0.000 A 
BRANCH  75  78
ATOM     78  O   UNL     1      -0.989   7.645 136.790  0.00  0.00    +0.000 OA
ATOM     79  H   UNL     1      -1.033   8.590 137.005  0.00  0.00    +0.000 HD
ENDBRANCH  75  78
ENDBRANCH  71  72
ENDBRANCH  10  71
BRANCH  18  80
ATOM     80  C   UNL     1      -4.117   0.231 133.125  0.00  0.00    +0.000 C 
BRANCH  80  81
ATOM     81  C   UNL     1      -2.891  -0.327 134.615  0.00  0.00    +0.000 C 
BRANCH  81  82
ATOM     82  C   UNL     1      -1.396  -0.946 133.727  0.00  0.00    +0.000 C 
ATOM     83  N   UNL     1       0.261  -0.549 134.095  0.00  0.00    +0.000 N 
ATOM     84  O   UNL     1      -1.449  -2.053 133.335  0.00  0.00    +0.000 OA
ATOM     85  H   UNL     1       0.626  -0.082 134.863  0.00  0.00    +0.000 HD
ATOM     86  H   UNL     1       0.947  -1.256 134.401  0.00  0.00    +0.000 HD
ENDBRANCH  81  82
ENDBRANCH  80  81
ENDBRANCH  18  80
BRANCH  22  87
ATOM     87  C   UNL     1      -5.733  -1.082 136.916  0.00  0.00    +0.000 C 
BRANCH  87  88
ATOM     88  C   UNL     1      -4.688  -0.763 137.771  0.00  0.00    +0.000 C 
ATOM     89  N   UNL     1      -3.875  -1.828 138.118  0.00  0.00    +0.000 N 
ATOM     90  O   UNL     1      -4.485   0.387 138.046  0.00  0.00    +0.000 OA
ATOM     91  H   UNL     1      -3.895  -2.811 137.779  0.00  0.00    +0.000 HD
ATOM     92  H   UNL     1      -3.157  -1.672 138.798  0.00  0.00    +0.000 HD
ENDBRANCH  87  88
ENDBRANCH  22  87
TORSDOF 20
ENDMDL
MODEL 8
REMARK VINA RESULT:     -10.5      3.339     11.670
REMARK  Name = CHEMBL376685
REMARK  20 active torsions:
REMARK  status: ('A' for Active; 'I' for Inactive)
REMARK    1  A    between atoms: N_4  and  C_5
REMARK    2  A    between atoms: C_5  and  C_6
REMARK    3  A    between atoms: C_6  and  C_7
REMARK    4  A    between atoms: C_7  and  C_8
REMARK    5  A    between atoms: C_8  and  N_9
REMARK    6  A    between atoms: C_8  and  C_68
REMARK    7  A    between atoms: C_10  and  C_12
REMARK    8  A    between atoms: C_17  and  C_19
REMARK    9  A    between atoms: C_28  and  C_29
REMARK   10  A    between atoms: C_29  and  C_30
REMARK   11  A    between atoms: C_33  and  O_34
REMARK   12  A    between atoms: C_40  and  C_41
REMARK   13  A    between atoms: C_41  and  C_42
REMARK   14  A    between atoms: C_51  and  C_52
REMARK   15  A    between atoms: C_52  and  C_53
REMARK   16  A    between atoms: C_53  and  C_54
REMARK   17  A    between atoms: C_60  and  C_61
REMARK   18  A    between atoms: C_61  and  C_62
REMARK   19  A    between atoms: N_70  and  C_71
REMARK   20  A    between atoms: C_71  and  C_72
REMARK                            x       y       z     vdW  Elec       q    Type
REMARK                         _______ _______ _______ _____ _____    ______ ____
ROOT
ATOM      1  C   UNL     1      -4.045   0.953 131.837  0.00  0.00    +0.000 C 
ATOM      2  C   UNL     1      -4.838  -1.461 131.805  0.00  0.00    +0.000 C 
ATOM      3  S   UNL     1      -5.335  -3.958 133.082  0.00  0.00    +0.000 S 
ATOM      4  S   UNL     1      -5.494  -6.323 134.733  0.00  0.00    +0.000 S 
ATOM      5  C   UNL     1      -6.032  -6.097 136.652  0.00  0.00    +0.000 C 
ATOM      6  C   UNL     1      -5.780  -6.589 138.059  0.00  0.00    +0.000 C 
ATOM      7  C   UNL     1      -6.010  -5.573 139.205  0.00  0.00    +0.000 C 
ATOM      8  O   UNL     1      -5.980  -5.959 140.377  0.00  0.00    +0.000 OA
ATOM      9  N   UNL     1      -6.223  -4.243 138.894  0.00  0.00    +0.000 N 
ATOM     10  C   UNL     1      -6.256  -3.693 137.552  0.00  0.00    +0.000 C 
ATOM     11  C   UNL     1      -4.719  -3.878 136.912  0.00  0.00    +0.000 C 
ATOM     12  O   UNL     1      -4.023  -4.943 136.867  0.00  0.00    +0.000 OA
ATOM     13  N   UNL     1      -4.213  -2.871 136.268  0.00  0.00    +0.000 N 
ATOM     14  C   UNL     1      -4.696  -1.578 136.365  0.00  0.00    +0.000 C 
ATOM     15  C   UNL     1      -6.087  -1.499 135.392  0.00  0.00    +0.000 C 
ATOM     16  O   UNL     1      -7.117  -2.199 135.459  0.00  0.00    +0.000 OA
ATOM     17  N   UNL     1      -6.342  -0.563 134.580  0.00  0.00    +0.000 N 
ATOM     18  C   UNL     1      -5.409   0.217 134.379  0.00  0.00    +0.000 C 
ATOM     19  C   UNL     1      -5.112   1.288 135.840  0.00  0.00    +0.000 C 
ATOM     20  O   UNL     1      -4.491   1.048 136.834  0.00  0.00    +0.000 OA
ATOM     21  N   UNL     1      -5.238   2.704 135.678  0.00  0.00    +0.000 N 
ATOM     22  C   UNL     1      -5.312   3.570 133.799  0.00  0.00    +0.000 C 
ATOM     23  C   UNL     1      -3.306   2.624 133.368  0.00  0.00    +0.000 C 
ATOM     24  O   UNL     1      -2.983   1.505 132.987  0.00  0.00    +0.000 OA
ATOM     25  N   UNL     1      -3.022   2.614 131.904  0.00  0.00    +0.000 N 
ATOM     26  H   UNL     1      -6.414  -3.557 139.632  0.00  0.00    +0.000 HD
ATOM     27  H   UNL     1      -3.336  -3.104 135.855  0.00  0.00    +0.000 HD
ATOM     28  H   UNL     1      -7.127  -0.473 134.032  0.00  0.00    +0.000 HD
ATOM     29  H   UNL     1      -4.310   3.191 135.988  0.00  0.00    +0.000 HD
ATOM     30  H   UNL     1      -2.719   3.452 131.100  0.00  0.00    +0.000 HD
ENDROOT
BRANCH   1  36
ATOM     31  C   UNL     1      -4.838   6.424 130.303  0.00  0.00    +0.000 C 
ATOM     32  C   UNL     1      -4.094   7.016 128.985  0.00  0.00    +0.000 C 
ATOM     33  C   UNL     1      -3.772   8.397 129.333  0.00  0.00    +0.000 C 
ATOM     34  C   UNL     1      -3.562   7.739 131.191  0.00  0.00    +0.000 C 
ATOM     35  N   UNL     1      -4.126   5.706 131.869  0.00  0.00    +0.000 N 
ATOM     36  C   UNL     1      -3.900   3.579 132.264  0.00  0.00    +0.000 C 
ATOM     37  O   UNL     1      -3.429   4.872 132.970  0.00  0.00    +0.000 OA
BRANCH  31  39
ATOM     38  N   UNL     1      -6.308   4.858 130.404  0.00  0.00    +0.000 N 
ATOM     39  C   UNL     1      -5.095   5.119 130.184  0.00  0.00    +0.000 C 
ATOM     40  O   UNL     1      -4.449   4.251 129.701  0.00  0.00    +0.000 OA
ATOM     41  H   UNL     1      -7.233   5.570 130.717  0.00  0.00    +0.000 HD
BRANCH  38  42
ATOM     42  C   UNL     1      -7.545   3.481 129.794  0.00  0.00    +0.000 C 
BRANCH  42  43
ATOM     43  C   UNL     1      -7.483   4.187 128.260  0.00  0.00    +0.000 C 
ATOM     44  O   UNL     1      -8.373   4.863 127.828  0.00  0.00    +0.000 OA
ATOM     45  N   UNL     1      -6.511   3.231 127.410  0.00  0.00    +0.000 N 
ATOM     46  H   UNL     1      -6.037   2.445 127.946  0.00  0.00    +0.000 HD
BRANCH  45  47
ATOM     47  C   UNL     1      -6.063   3.511 126.135  0.00  0.00    +0.000 C 
BRANCH  47  48
ATOM     48  C   UNL     1      -5.592   4.773 125.873  0.00  0.00    +0.000 C 
ATOM     49  N   UNL     1      -4.541   4.214 125.728  0.00  0.00    +0.000 N 
ATOM     50  O   UNL     1      -6.031   5.705 125.328  0.00  0.00    +0.000 OA
ATOM     51  H   UNL     1      -3.596   3.847 126.855  0.00  0.00    +0.000 HD
ATOM     52  H   UNL     1      -3.931   4.819 124.694  0.00  0.00    +0.000 HD
ENDBRANCH  47  48
ENDBRANCH  45  47
ENDBRANCH  42  43
BRANCH  42  53
ATOM     53  C   UNL     1      -9.130   3.322 131.204  0.00  0.00    +0.000 C 
BRANCH  53  54
ATOM     54  C   UNL     1     -10.322   3.832 130.740  0.00  0.00    +0.000 C 
BRANCH  54  55
ATOM     55  C   UNL     1     -10.749   5.308 130.920  0.00  0.00    +0.000 C 
BRANCH  55  59
ATOM     56  N   UNL     1      -9.936   8.126 128.856  0.00  0.00    +0.000 NA
ATOM     57  C   UNL     1      -9.820   7.206 129.753  0.00  0.00    +0.000 C 
ATOM     58  N   UNL     1      -8.857   7.158 130.739  0.00  0.00    +0.000 N 
ATOM     59  N   UNL     1     -10.687   6.050 129.609  0.00  0.00    +0.000 N 
ATOM     60  H   UNL     1      -9.144   8.762 128.821  0.00  0.00    +0.000 HD
ATOM     61  H   UNL     1      -8.059   7.776 130.701  0.00  0.00    +0.000 HD
ATOM     62  H   UNL     1      -8.844   6.507 131.519  0.00  0.00    +0.000 HD
ATOM     63  H   UNL     1     -11.654   6.501 129.301  0.00  0.00    +0.000 HD
ENDBRANCH  55  59
ENDBRANCH  54  55
ENDBRANCH  53  54
ENDBRANCH  42  53
ENDBRANCH  38  42
ENDBRANCH  31  39
ENDBRANCH   1  36
BRANCH  14  64
ATOM     64  C   UNL     1      -3.645  -0.761 136.045  0.00  0.00    +0.000 C 
BRANCH  64  65
ATOM     65  C   UNL     1      -2.295  -1.059 135.749  0.00  0.00    +0.000 A 
ATOM     66  C   UNL     1      -1.391  -1.380 136.690  0.00  0.00    +0.000 A 
ATOM     67  C   UNL     1      -0.117  -1.560 136.259  0.00  0.00    +0.000 A 
ATOM     68  C   UNL     1       0.193  -1.680 134.936  0.00  0.00    +0.000 A 
ATOM     69  C   UNL     1      -0.734  -1.334 134.021  0.00  0.00    +0.000 A 
ATOM     70  C   UNL     1      -1.968  -1.055 134.423  0.00  0.00    +0.000 A 
ENDBRANCH  64  65
ENDBRANCH  14  64
BRANCH  10  71
ATOM     71  C   UNL     1      -6.648  -2.312 137.725  0.00  0.00    +0.000 C 
BRANCH  71  72
ATOM     72  C   UNL     1      -7.410  -1.891 138.856  0.00  0.00    +0.000 A 
ATOM     73  C   UNL     1      -6.784  -1.049 139.733  0.00  0.00    +0.000 A 
ATOM     74  C   UNL     1      -7.509  -0.325 140.638  0.00  0.00    +0.000 A 
ATOM     75  C   UNL     1      -8.873  -0.492 140.682  0.00  0.00    +0.000 A 
ATOM     76  C   UNL     1      -9.490  -1.405 139.847  0.00  0.00    +0.000 A 
ATOM     77  C   UNL     1      -8.757  -2.118 138.933  0.00  0.00    +0.000 A 
BRANCH  75  78
ATOM     78  O   UNL     1      -9.691   0.181 141.531  0.00  0.00    +0.000 OA
ATOM     79  H   UNL     1      -9.501   0.059 142.474  0.00  0.00    +0.000 HD
ENDBRANCH  75  78
ENDBRANCH  71  72
ENDBRANCH  10  71
BRANCH  18  80
ATOM     80  C   UNL     1      -6.001   0.733 133.220  0.00  0.00    +0.000 C 
BRANCH  80  81
ATOM     81  C   UNL     1      -7.916   0.598 132.627  0.00  0.00    +0.000 C 
BRANCH  81  82
ATOM     82  C   UNL     1      -7.805  -0.340 131.041  0.00  0.00    +0.000 C 
ATOM     83  N   UNL     1      -7.958  -2.066 130.850  0.00  0.00    +0.000 N 
ATOM     84  O   UNL     1      -8.250   0.193 130.093  0.00  0.00    +0.000 OA
ATOM     85  H   UNL     1      -8.245  -2.733 131.493  0.00  0.00    +0.000 HD
ATOM     86  H   UNL     1      -8.717  -2.499 130.302  0.00  0.00    +0.000 HD
ENDBRANCH  81  82
ENDBRANCH  80  81
ENDBRANCH  18  80
BRANCH  22  87
ATOM     87  C   UNL     1      -5.505   4.984 133.846  0.00  0.00    +0.000 C 
BRANCH  87  88
ATOM     88  C   UNL     1      -6.843   5.340 133.946  0.00  0.00    +0.000 C 
ATOM     89  N   UNL     1      -7.345   5.349 135.235  0.00  0.00    +0.000 N 
ATOM     90  O   UNL     1      -7.423   5.722 132.968  0.00  0.00    +0.000 OA
ATOM     91  H   UNL     1      -6.852   5.196 136.138  0.00  0.00    +0.000 HD
ATOM     92  H   UNL     1      -8.325   5.517 135.358  0.00  0.00    +0.000 HD
ENDBRANCH  87  88
ENDBRANCH  22  87
TORSDOF 20
ENDMDL
MODEL 9
REMARK VINA RESULT:     -10.5      5.249     10.757
REMARK  Name = CHEMBL376685
REMARK  20 active torsions:
REMARK  status: ('A' for Active; 'I' for Inactive)
REMARK    1  A    between atoms: N_4  and  C_5
REMARK    2  A    between atoms: C_5  and  C_6
REMARK    3  A    between atoms: C_6  and  C_7
REMARK    4  A    between atoms: C_7  and  C_8
REMARK    5  A    between atoms: C_8  and  N_9
REMARK    6  A    between atoms: C_8  and  C_68
REMARK    7  A    between atoms: C_10  and  C_12
REMARK    8  A    between atoms: C_17  and  C_19
REMARK    9  A    between atoms: C_28  and  C_29
REMARK   10  A    between atoms: C_29  and  C_30
REMARK   11  A    between atoms: C_33  and  O_34
REMARK   12  A    between atoms: C_40  and  C_41
REMARK   13  A    between atoms: C_41  and  C_42
REMARK   14  A    between atoms: C_51  and  C_52
REMARK   15  A    between atoms: C_52  and  C_53
REMARK   16  A    between atoms: C_53  and  C_54
REMARK   17  A    between atoms: C_60  and  C_61
REMARK   18  A    between atoms: C_61  and  C_62
REMARK   19  A    between atoms: N_70  and  C_71
REMARK   20  A    between atoms: C_71  and  C_72
REMARK                            x       y       z     vdW  Elec       q    Type
REMARK                         _______ _______ _______ _____ _____    ______ ____
ROOT
ATOM      1  C   UNL     1      -4.676   2.290 130.896  0.00  0.00    +0.000 C 
ATOM      2  C   UNL     1      -4.191   1.128 133.103  0.00  0.00    +0.000 C 
ATOM      3  S   UNL     1      -3.547   1.175 135.877  0.00  0.00    +0.000 S 
ATOM      4  S   UNL     1      -2.714   1.704 138.592  0.00  0.00    +0.000 S 
ATOM      5  C   UNL     1      -3.495   3.300 139.522  0.00  0.00    +0.000 C 
ATOM      6  C   UNL     1      -3.188   4.431 140.476  0.00  0.00    +0.000 C 
ATOM      7  C   UNL     1      -4.002   5.736 140.298  0.00  0.00    +0.000 C 
ATOM      8  O   UNL     1      -3.915   6.631 141.144  0.00  0.00    +0.000 OA
ATOM      9  N   UNL     1      -4.799   5.885 139.178  0.00  0.00    +0.000 N 
ATOM     10  C   UNL     1      -4.952   4.900 138.123  0.00  0.00    +0.000 C 
ATOM     11  C   UNL     1      -3.459   4.753 137.376  0.00  0.00    +0.000 C 
ATOM     12  O   UNL     1      -2.334   4.540 137.932  0.00  0.00    +0.000 OA
ATOM     13  N   UNL     1      -3.440   4.716 136.079  0.00  0.00    +0.000 N 
ATOM     14  C   UNL     1      -4.497   5.125 135.284  0.00  0.00    +0.000 C 
ATOM     15  C   UNL     1      -5.639   3.866 135.301  0.00  0.00    +0.000 C 
ATOM     16  O   UNL     1      -6.201   3.346 136.285  0.00  0.00    +0.000 OA
ATOM     17  N   UNL     1      -6.228   3.418 134.275  0.00  0.00    +0.000 N 
ATOM     18  C   UNL     1      -5.774   3.820 133.201  0.00  0.00    +0.000 C 
ATOM     19  C   UNL     1      -6.192   5.586 132.922  0.00  0.00    +0.000 C 
ATOM     20  O   UNL     1      -5.643   6.563 133.342  0.00  0.00    +0.000 OA
ATOM     21  N   UNL     1      -6.971   5.924 131.771  0.00  0.00    +0.000 N 
ATOM     22  C   UNL     1      -7.255   4.573 130.230  0.00  0.00    +0.000 C 
ATOM     23  C   UNL     1      -5.009   4.475 130.003  0.00  0.00    +0.000 C 
ATOM     24  O   UNL     1      -4.146   3.832 130.588  0.00  0.00    +0.000 OA
ATOM     25  N   UNL     1      -4.602   3.278 129.214  0.00  0.00    +0.000 N 
ATOM     26  H   UNL     1      -5.377   6.724 139.054  0.00  0.00    +0.000 HD
ATOM     27  H   UNL     1      -2.522   4.543 135.731  0.00  0.00    +0.000 HD
ATOM     28  H   UNL     1      -6.894   2.726 134.249  0.00  0.00    +0.000 HD
ATOM     29  H   UNL     1      -6.435   6.664 131.173  0.00  0.00    +0.000 HD
ATOM     30  H   UNL     1      -4.659   2.975 128.053  0.00  0.00    +0.000 HD
ENDROOT
BRANCH   1  36
ATOM     31  C   UNL     1      -6.933   2.813 125.646  0.00  0.00    +0.000 C 
ATOM     32  C   UNL     1      -6.006   2.567 124.334  0.00  0.00    +0.000 C 
ATOM     33  C   UNL     1      -6.497   3.530 123.352  0.00  0.00    +0.000 C 
ATOM     34  C   UNL     1      -6.889   4.706 124.898  0.00  0.00    +0.000 C 
ATOM     35  N   UNL     1      -6.774   4.066 127.016  0.00  0.00    +0.000 N 
ATOM     36  C   UNL     1      -5.870   3.672 128.955  0.00  0.00    +0.000 C 
ATOM     37  O   UNL     1      -6.368   4.942 128.226  0.00  0.00    +0.000 OA
BRANCH  31  39
ATOM     38  N   UNL     1      -7.417   1.275 127.069  0.00  0.00    +0.000 N 
ATOM     39  C   UNL     1      -6.527   2.079 126.685  0.00  0.00    +0.000 C 
ATOM     40  O   UNL     1      -5.440   1.909 127.126  0.00  0.00    +0.000 OA
ATOM     41  H   UNL     1      -8.545   1.088 126.676  0.00  0.00    +0.000 HD
BRANCH  38  42
ATOM     42  C   UNL     1      -7.407  -0.470 127.937  0.00  0.00    +0.000 C 
BRANCH  42  43
ATOM     43  C   UNL     1      -8.284  -1.065 126.621  0.00  0.00    +0.000 C 
ATOM     44  O   UNL     1      -9.253  -0.508 126.190  0.00  0.00    +0.000 OA
ATOM     45  N   UNL     1      -8.024  -2.650 126.643  0.00  0.00    +0.000 N 
ATOM     46  H   UNL     1      -7.324  -3.003 127.360  0.00  0.00    +0.000 HD
BRANCH  45  47
ATOM     47  C   UNL     1      -8.437  -3.521 125.654  0.00  0.00    +0.000 C 
BRANCH  47  48
ATOM     48  C   UNL     1      -7.779  -3.500 124.451  0.00  0.00    +0.000 C 
ATOM     49  N   UNL     1      -8.882  -3.406 123.991  0.00  0.00    +0.000 N 
ATOM     50  O   UNL     1      -6.769  -3.043 124.088  0.00  0.00    +0.000 OA
ATOM     51  H   UNL     1      -9.807  -4.577 123.724  0.00  0.00    +0.000 HD
ATOM     52  H   UNL     1      -8.789  -2.550 122.958  0.00  0.00    +0.000 HD
ENDBRANCH  47  48
ENDBRANCH  45  47
ENDBRANCH  42  43
BRANCH  42  53
ATOM     53  C   UNL     1      -7.942  -0.213 129.980  0.00  0.00    +0.000 C 
BRANCH  53  54
ATOM     54  C   UNL     1      -7.549  -1.262 130.780  0.00  0.00    +0.000 C 
BRANCH  54  55
ATOM     55  C   UNL     1      -6.098  -1.456 131.285  0.00  0.00    +0.000 C 
BRANCH  55  59
ATOM     56  N   UNL     1      -4.255  -3.206 128.754  0.00  0.00    +0.000 NA
ATOM     57  C   UNL     1      -4.585  -2.286 129.597  0.00  0.00    +0.000 C 
ATOM     58  N   UNL     1      -4.057  -1.013 129.650  0.00  0.00    +0.000 N 
ATOM     59  N   UNL     1      -5.476  -2.685 130.672  0.00  0.00    +0.000 N 
ATOM     60  H   UNL     1      -3.433  -2.976 128.203  0.00  0.00    +0.000 HD
ATOM     61  H   UNL     1      -3.230  -0.783 129.118  0.00  0.00    +0.000 HD
ATOM     62  H   UNL     1      -4.407  -0.253 130.227  0.00  0.00    +0.000 HD
ATOM     63  H   UNL     1      -6.204  -3.349 130.160  0.00  0.00    +0.000 HD
ENDBRANCH  55  59
ENDBRANCH  54  55
ENDBRANCH  53  54
ENDBRANCH  42  53
ENDBRANCH  38  42
ENDBRANCH  31  39
ENDBRANCH   1  36
BRANCH  14  64
ATOM     64  C   UNL     1      -3.947   5.473 134.080  0.00  0.00    +0.000 C 
BRANCH  64  65
ATOM     65  C   UNL     1      -2.709   6.078 133.766  0.00  0.00    +0.000 A 
ATOM     66  C   UNL     1      -2.293   7.230 134.320  0.00  0.00    +0.000 A 
ATOM     67  C   UNL     1      -1.119   7.727 133.856  0.00  0.00    +0.000 A 
ATOM     68  C   UNL     1      -0.271   6.989 133.083  0.00  0.00    +0.000 A 
ATOM     69  C   UNL     1      -0.728   5.847 132.532  0.00  0.00    +0.000 A 
ATOM     70  C   UNL     1      -1.920   5.386 132.892  0.00  0.00    +0.000 A 
ENDBRANCH  64  65
ENDBRANCH  14  64
BRANCH  10  71
ATOM     71  C   UNL     1      -5.981   5.436 137.259  0.00  0.00    +0.000 C 
BRANCH  71  72
ATOM     72  C   UNL     1      -6.759   6.569 137.643  0.00  0.00    +0.000 A 
ATOM     73  C   UNL     1      -6.200   7.797 137.417  0.00  0.00    +0.000 A 
ATOM     74  C   UNL     1      -6.974   8.923 137.421  0.00  0.00    +0.000 A 
ATOM     75  C   UNL     1      -8.315   8.807 137.702  0.00  0.00    +0.000 A 
ATOM     76  C   UNL     1      -8.857   7.573 138.008  0.00  0.00    +0.000 A 
ATOM     77  C   UNL     1      -8.077   6.446 137.990  0.00  0.00    +0.000 A 
BRANCH  75  78
ATOM     78  O   UNL     1      -9.178   9.855 137.722  0.00  0.00    +0.000 OA
ATOM     79  H   UNL     1      -9.042  10.491 138.442  0.00  0.00    +0.000 HD
ENDBRANCH  75  78
ENDBRANCH  71  72
ENDBRANCH  10  71
BRANCH  18  80
ATOM     80  C   UNL     1      -6.415   2.809 132.475  0.00  0.00    +0.000 C 
BRANCH  80  81
ATOM     81  C   UNL     1      -7.884   1.577 133.075  0.00  0.00    +0.000 C 
BRANCH  81  82
ATOM     82  C   UNL     1      -9.408   2.596 132.865  0.00  0.00    +0.000 C 
ATOM     83  N   UNL     1      -9.774   4.088 133.690  0.00  0.00    +0.000 N 
ATOM     84  O   UNL     1      -9.857   2.637 131.780  0.00  0.00    +0.000 OA
ATOM     85  H   UNL     1      -9.201   4.640 134.245  0.00  0.00    +0.000 HD
ATOM     86  H   UNL     1      -9.887   4.985 133.194  0.00  0.00    +0.000 HD
ENDBRANCH  81  82
ENDBRANCH  80  81
ENDBRANCH  18  80
BRANCH  22  87
ATOM     87  C   UNL     1      -8.114   5.072 129.203  0.00  0.00    +0.000 C 
BRANCH  87  88
ATOM     88  C   UNL     1      -9.211   5.755 129.707  0.00  0.00    +0.000 C 
ATOM     89  N   UNL     1     -10.244   4.947 130.151  0.00  0.00    +0.000 N 
ATOM     90  O   UNL     1      -9.151   6.946 129.839  0.00  0.00    +0.000 OA
ATOM     91  H   UNL     1     -10.288   3.911 130.222  0.00  0.00    +0.000 HD
ATOM     92  H   UNL     1     -11.094   5.388 130.446  0.00  0.00    +0.000 HD
ENDBRANCH  87  88
ENDBRANCH  22  87
TORSDOF 20
ENDMDL
