MODEL 1
REMARK VINA RESULT:     -10.4      0.000      0.000
REMARK  Name = CHEMBL288774
REMARK  4 active torsions:
REMARK  status: ('A' for Active; 'I' for Inactive)
REMARK    1  A    between atoms: C_1  and  C_2
REMARK    2  A    between atoms: C_8  and  C_9
REMARK    3  A    between atoms: C_13  and  C_14
REMARK    4  A    between atoms: C_19  and  N_20
REMARK                            x       y       z     vdW  Elec       q    Type
REMARK                         _______ _______ _______ _____ _____    ______ ____
ROOT
ATOM      1  C   UNL     1      -2.526   5.354 133.263  0.00  0.00    +0.000 C 
ATOM      2  O   UNL     1      -1.868   4.361 132.963  0.00  0.00    +0.000 OA
ATOM      3  N   UNL     1      -1.904   6.515 133.701  0.00  0.00    +0.000 N 
ATOM      4  C   UNL     1      -1.153   7.324 132.745  0.00  0.00    +0.000 C 
ATOM      5  C   UNL     1       0.109   7.885 133.382  0.00  0.00    +0.000 C 
ATOM      6  C   UNL     1      -0.207   8.632 134.698  0.00  0.00    +0.000 C 
ATOM      7  C   UNL     1      -0.976   7.702 135.650  0.00  0.00    +0.000 C 
ATOM      8  C   UNL     1      -2.205   7.093 135.004  0.00  0.00    +0.000 C 
ENDROOT
BRANCH   6   9
ATOM      9  N   UNL     1      -0.817   9.983 134.459  0.00  0.00    +0.000 N 
ATOM     10  C   UNL     1      -2.008  10.415 135.044  0.00  0.00    +0.000 C 
ATOM     11  O   UNL     1      -2.330  10.374 136.225  0.00  0.00    +0.000 OA
ATOM     12  O   UNL     1      -2.909  10.873 134.142  0.00  0.00    +0.000 OA
ATOM     13  C   UNL     1      -2.465  12.101 133.613  0.00  0.00    +0.000 C 
ATOM     14  C   UNL     1      -1.060  11.982 133.109  0.00  0.00    +0.000 A 
ATOM     15  C   UNL     1      -0.562  12.975 132.264  0.00  0.00    +0.000 A 
ATOM     16  C   UNL     1       0.745  12.897 131.809  0.00  0.00    +0.000 A 
ATOM     17  C   UNL     1       1.555  11.835 132.206  0.00  0.00    +0.000 A 
ATOM     18  C   UNL     1       1.060  10.837 133.054  0.00  0.00    +0.000 A 
ATOM     19  C   UNL     1      -0.256  10.899 133.515  0.00  0.00    +0.000 A 
ENDBRANCH   6   9
BRANCH   1  24
ATOM     20  C   UNL     1      -8.180   6.459 131.522  0.00  0.00    +0.000 A 
ATOM     21  C   UNL     1      -6.915   6.779 131.074  0.00  0.00    +0.000 A 
ATOM     22  C   UNL     1      -6.000   6.132 131.942  0.00  0.00    +0.000 A 
ATOM     23  C   UNL     1      -4.597   6.086 132.070  0.00  0.00    +0.000 A 
ATOM     24  C   UNL     1      -4.022   5.340 133.118  0.00  0.00    +0.000 A 
ATOM     25  C   UNL     1      -4.861   4.676 134.026  0.00  0.00    +0.000 A 
ATOM     26  C   UNL     1      -6.256   4.675 133.895  0.00  0.00    +0.000 A 
ATOM     27  C   UNL     1      -6.779   5.426 132.850  0.00  0.00    +0.000 A 
ATOM     28  O   UNL     1      -8.102   5.606 132.584  0.00  0.00    +0.000 OA
BRANCH  20  36
ATOM     29  C   UNL     1     -10.675   7.543 126.864  0.00  0.00    +0.000 C 
ATOM     30  C   UNL     1     -11.406   7.877 128.147  0.00  0.00    +0.000 C 
ATOM     31  O   UNL     1     -12.277   8.744 128.176  0.00  0.00    +0.000 OA
ATOM     32  N   UNL     1     -11.127   7.054 129.226  0.00  0.00    +0.000 N 
ATOM     33  C   UNL     1     -12.201   6.443 130.001  0.00  0.00    +0.000 C 
ATOM     34  C   UNL     1     -12.024   6.657 131.501  0.00  0.00    +0.000 C 
ATOM     35  C   UNL     1     -10.622   6.257 131.966  0.00  0.00    +0.000 C 
ATOM     36  C   UNL     1      -9.534   6.912 131.098  0.00  0.00    +0.000 C 
ATOM     37  C   UNL     1      -9.777   6.657 129.601  0.00  0.00    +0.000 C 
ENDBRANCH  20  36
ENDBRANCH   1  24
TORSDOF 3
ENDMDL
MODEL 2
REMARK VINA RESULT:     -10.3      5.110      9.930
REMARK  Name = CHEMBL288774
REMARK  4 active torsions:
REMARK  status: ('A' for Active; 'I' for Inactive)
REMARK    1  A    between atoms: C_1  and  C_2
REMARK    2  A    between atoms: C_8  and  C_9
REMARK    3  A    between atoms: C_13  and  C_14
REMARK    4  A    between atoms: C_19  and  N_20
REMARK                            x       y       z     vdW  Elec       q    Type
REMARK                         _______ _______ _______ _____ _____    ______ ____
ROOT
ATOM      1  C   UNL     1      -7.190   4.146 134.116  0.00  0.00    +0.000 C 
ATOM      2  O   UNL     1      -6.767   2.995 134.193  0.00  0.00    +0.000 OA
ATOM      3  N   UNL     1      -7.958   4.551 133.033  0.00  0.00    +0.000 N 
ATOM      4  C   UNL     1      -9.328   4.059 132.907  0.00  0.00    +0.000 C 
ATOM      5  C   UNL     1      -9.668   3.765 131.455  0.00  0.00    +0.000 C 
ATOM      6  C   UNL     1      -9.371   4.981 130.548  0.00  0.00    +0.000 C 
ATOM      7  C   UNL     1      -7.908   5.417 130.726  0.00  0.00    +0.000 C 
ATOM      8  C   UNL     1      -7.544   5.657 132.180  0.00  0.00    +0.000 C 
ENDROOT
BRANCH   6   9
ATOM      9  N   UNL     1     -10.403   6.063 130.683  0.00  0.00    +0.000 N 
ATOM     10  C   UNL     1     -11.013   6.413 131.888  0.00  0.00    +0.000 C 
ATOM     11  O   UNL     1     -10.481   6.656 132.964  0.00  0.00    +0.000 OA
ATOM     12  O   UNL     1     -12.366   6.409 131.821  0.00  0.00    +0.000 OA
ATOM     13  C   UNL     1     -12.803   7.492 131.031  0.00  0.00    +0.000 C 
ATOM     14  C   UNL     1     -12.097   7.500 129.711  0.00  0.00    +0.000 A 
ATOM     15  C   UNL     1     -12.615   8.280 128.676  0.00  0.00    +0.000 A 
ATOM     16  C   UNL     1     -11.961   8.323 127.454  0.00  0.00    +0.000 A 
ATOM     17  C   UNL     1     -10.786   7.596 127.272  0.00  0.00    +0.000 A 
ATOM     18  C   UNL     1     -10.263   6.812 128.307  0.00  0.00    +0.000 A 
ATOM     19  C   UNL     1     -10.914   6.754 129.540  0.00  0.00    +0.000 A 
ENDBRANCH   6   9
BRANCH   1  24
ATOM     20  C   UNL     1      -7.731   8.386 138.353  0.00  0.00    +0.000 A 
ATOM     21  C   UNL     1      -8.587   7.641 137.569  0.00  0.00    +0.000 A 
ATOM     22  C   UNL     1      -7.778   6.763 136.804  0.00  0.00    +0.000 A 
ATOM     23  C   UNL     1      -8.011   5.800 135.801  0.00  0.00    +0.000 A 
ATOM     24  C   UNL     1      -6.917   5.127 135.221  0.00  0.00    +0.000 A 
ATOM     25  C   UNL     1      -5.616   5.445 135.642  0.00  0.00    +0.000 A 
ATOM     26  C   UNL     1      -5.364   6.368 136.665  0.00  0.00    +0.000 A 
ATOM     27  C   UNL     1      -6.471   7.011 137.204  0.00  0.00    +0.000 A 
ATOM     28  O   UNL     1      -6.442   7.981 138.160  0.00  0.00    +0.000 OA
BRANCH  20  36
ATOM     29  C   UNL     1      -5.434  13.167 139.331  0.00  0.00    +0.000 C 
ATOM     30  C   UNL     1      -6.529  12.707 140.272  0.00  0.00    +0.000 C 
ATOM     31  O   UNL     1      -6.593  13.124 141.427  0.00  0.00    +0.000 OA
ATOM     32  N   UNL     1      -7.510  11.912 139.704  0.00  0.00    +0.000 N 
ATOM     33  C   UNL     1      -8.924  12.221 139.885  0.00  0.00    +0.000 C 
ATOM     34  C   UNL     1      -9.726  11.007 140.345  0.00  0.00    +0.000 C 
ATOM     35  C   UNL     1      -9.469   9.791 139.451  0.00  0.00    +0.000 C 
ATOM     36  C   UNL     1      -7.963   9.530 139.278  0.00  0.00    +0.000 C 
ATOM     37  C   UNL     1      -7.220  10.795 138.816  0.00  0.00    +0.000 C 
ENDBRANCH  20  36
ENDBRANCH   1  24
TORSDOF 3
ENDMDL
MODEL 3
REMARK VINA RESULT:     -10.3      7.661     10.887
REMARK  Name = CHEMBL288774
REMARK  4 active torsions:
REMARK  status: ('A' for Active; 'I' for Inactive)
REMARK    1  A    between atoms: C_1  and  C_2
REMARK    2  A    between atoms: C_8  and  C_9
REMARK    3  A    between atoms: C_13  and  C_14
REMARK    4  A    between atoms: C_19  and  N_20
REMARK                            x       y       z     vdW  Elec       q    Type
REMARK                         _______ _______ _______ _____ _____    ______ ____
ROOT
ATOM      1  C   UNL     1      -7.498  -0.780 131.588  0.00  0.00    +0.000 C 
ATOM      2  O   UNL     1      -7.423  -1.570 132.526  0.00  0.00    +0.000 OA
ATOM      3  N   UNL     1      -7.187  -1.178 130.295  0.00  0.00    +0.000 N 
ATOM      4  C   UNL     1      -8.097  -2.077 129.589  0.00  0.00    +0.000 C 
ATOM      5  C   UNL     1      -7.324  -3.091 128.761  0.00  0.00    +0.000 C 
ATOM      6  C   UNL     1      -6.303  -2.400 127.828  0.00  0.00    +0.000 C 
ATOM      7  C   UNL     1      -5.375  -1.495 128.655  0.00  0.00    +0.000 C 
ATOM      8  C   UNL     1      -6.139  -0.517 129.529  0.00  0.00    +0.000 C 
ENDROOT
BRANCH   6   9
ATOM      9  N   UNL     1      -6.955  -1.761 126.636  0.00  0.00    +0.000 N 
ATOM     10  C   UNL     1      -8.045  -0.895 126.714  0.00  0.00    +0.000 C 
ATOM     11  O   UNL     1      -8.183   0.088 127.433  0.00  0.00    +0.000 OA
ATOM     12  O   UNL     1      -9.079  -1.266 125.920  0.00  0.00    +0.000 OA
ATOM     13  C   UNL     1      -8.733  -1.063 124.569  0.00  0.00    +0.000 C 
ATOM     14  C   UNL     1      -7.421  -1.713 124.257  0.00  0.00    +0.000 A 
ATOM     15  C   UNL     1      -7.067  -1.908 122.921  0.00  0.00    +0.000 A 
ATOM     16  C   UNL     1      -5.844  -2.483 122.610  0.00  0.00    +0.000 A 
ATOM     17  C   UNL     1      -4.974  -2.853 123.633  0.00  0.00    +0.000 A 
ATOM     18  C   UNL     1      -5.323  -2.660 124.975  0.00  0.00    +0.000 A 
ATOM     19  C   UNL     1      -6.554  -2.088 125.302  0.00  0.00    +0.000 A 
ENDBRANCH   6   9
BRANCH   1  24
ATOM     20  C   UNL     1     -10.240   4.555 131.104  0.00  0.00    +0.000 A 
ATOM     21  C   UNL     1     -10.334   3.323 130.491  0.00  0.00    +0.000 A 
ATOM     22  C   UNL     1      -9.407   2.472 131.143  0.00  0.00    +0.000 A 
ATOM     23  C   UNL     1      -8.979   1.139 130.979  0.00  0.00    +0.000 A 
ATOM     24  C   UNL     1      -7.972   0.627 131.821  0.00  0.00    +0.000 A 
ATOM     25  C   UNL     1      -7.401   1.464 132.792  0.00  0.00    +0.000 A 
ATOM     26  C   UNL     1      -7.838   2.778 133.000  0.00  0.00    +0.000 A 
ATOM     27  C   UNL     1      -8.829   3.242 132.144  0.00  0.00    +0.000 A 
ATOM     28  O   UNL     1      -9.349   4.501 132.137  0.00  0.00    +0.000 OA
BRANCH  20  36
ATOM     29  C   UNL     1     -12.206   7.067 126.755  0.00  0.00    +0.000 C 
ATOM     30  C   UNL     1     -12.096   7.865 128.038  0.00  0.00    +0.000 C 
ATOM     31  O   UNL     1     -12.003   9.090 128.020  0.00  0.00    +0.000 OA
ATOM     32  N   UNL     1     -12.248   7.139 129.208  0.00  0.00    +0.000 N 
ATOM     33  C   UNL     1     -13.177   7.574 130.245  0.00  0.00    +0.000 C 
ATOM     34  C   UNL     1     -12.527   7.607 131.624  0.00  0.00    +0.000 C 
ATOM     35  C   UNL     1     -11.817   6.290 131.944  0.00  0.00    +0.000 C 
ATOM     36  C   UNL     1     -10.871   5.871 130.806  0.00  0.00    +0.000 C 
ATOM     37  C   UNL     1     -11.592   5.862 129.448  0.00  0.00    +0.000 C 
ENDBRANCH  20  36
ENDBRANCH   1  24
TORSDOF 3
ENDMDL
MODEL 4
REMARK VINA RESULT:      -9.9      7.080      8.912
REMARK  Name = CHEMBL288774
REMARK  4 active torsions:
REMARK  status: ('A' for Active; 'I' for Inactive)
REMARK    1  A    between atoms: C_1  and  C_2
REMARK    2  A    between atoms: C_8  and  C_9
REMARK    3  A    between atoms: C_13  and  C_14
REMARK    4  A    between atoms: C_19  and  N_20
REMARK                            x       y       z     vdW  Elec       q    Type
REMARK                         _______ _______ _______ _____ _____    ______ ____
ROOT
ATOM      1  C   UNL     1      -5.010  -2.001 132.009  0.00  0.00    +0.000 C 
ATOM      2  O   UNL     1      -4.307  -2.895 132.476  0.00  0.00    +0.000 OA
ATOM      3  N   UNL     1      -4.880  -0.691 132.447  0.00  0.00    +0.000 N 
ATOM      4  C   UNL     1      -3.692   0.071 132.069  0.00  0.00    +0.000 C 
ATOM      5  C   UNL     1      -3.222   0.949 133.218  0.00  0.00    +0.000 C 
ATOM      6  C   UNL     1      -4.368   1.834 133.759  0.00  0.00    +0.000 C 
ATOM      7  C   UNL     1      -5.563   0.952 134.152  0.00  0.00    +0.000 C 
ATOM      8  C   UNL     1      -6.003   0.031 133.029  0.00  0.00    +0.000 C 
ENDROOT
BRANCH   6   9
ATOM      9  N   UNL     1      -4.673   2.994 132.855  0.00  0.00    +0.000 N 
ATOM     10  C   UNL     1      -5.937   3.262 132.330  0.00  0.00    +0.000 C 
ATOM     11  O   UNL     1      -7.007   3.322 132.924  0.00  0.00    +0.000 OA
ATOM     12  O   UNL     1      -5.935   3.405 130.983  0.00  0.00    +0.000 OA
ATOM     13  C   UNL     1      -5.293   4.612 130.637  0.00  0.00    +0.000 C 
ATOM     14  C   UNL     1      -3.950   4.700 131.292  0.00  0.00    +0.000 A 
ATOM     15  C   UNL     1      -3.034   5.644 130.824  0.00  0.00    +0.000 A 
ATOM     16  C   UNL     1      -1.795   5.761 131.434  0.00  0.00    +0.000 A 
ATOM     17  C   UNL     1      -1.476   4.943 132.516  0.00  0.00    +0.000 A 
ATOM     18  C   UNL     1      -2.391   3.995 132.989  0.00  0.00    +0.000 A 
ATOM     19  C   UNL     1      -3.640   3.862 132.381  0.00  0.00    +0.000 A 
ENDBRANCH   6   9
BRANCH   1  24
ATOM     20  C   UNL     1      -8.009  -2.155 126.794  0.00  0.00    +0.000 A 
ATOM     21  C   UNL     1      -6.806  -1.651 127.241  0.00  0.00    +0.000 A 
ATOM     22  C   UNL     1      -6.688  -2.025 128.603  0.00  0.00    +0.000 A 
ATOM     23  C   UNL     1      -5.752  -1.794 129.631  0.00  0.00    +0.000 A 
ATOM     24  C   UNL     1      -5.998  -2.309 130.920  0.00  0.00    +0.000 A 
ATOM     25  C   UNL     1      -7.183  -3.024 131.156  0.00  0.00    +0.000 A 
ATOM     26  C   UNL     1      -8.107  -3.300 130.140  0.00  0.00    +0.000 A 
ATOM     27  C   UNL     1      -7.826  -2.769 128.888  0.00  0.00    +0.000 A 
ATOM     28  O   UNL     1      -8.619  -2.868 127.785  0.00  0.00    +0.000 OA
BRANCH  20  36
ATOM     29  C   UNL     1      -9.116   1.842 123.345  0.00  0.00    +0.000 C 
ATOM     30  C   UNL     1      -9.779   0.502 123.104  0.00  0.00    +0.000 C 
ATOM     31  O   UNL     1     -10.836   0.417 122.482  0.00  0.00    +0.000 OA
ATOM     32  N   UNL     1      -9.050  -0.606 123.503  0.00  0.00    +0.000 N 
ATOM     33  C   UNL     1      -8.831  -1.727 122.596  0.00  0.00    +0.000 C 
ATOM     34  C   UNL     1      -9.174  -3.067 123.240  0.00  0.00    +0.000 C 
ATOM     35  C   UNL     1      -8.491  -3.230 124.599  0.00  0.00    +0.000 C 
ATOM     36  C   UNL     1      -8.737  -2.009 125.502  0.00  0.00    +0.000 C 
ATOM     37  C   UNL     1      -8.371  -0.696 124.789  0.00  0.00    +0.000 C 
ENDBRANCH  20  36
ENDBRANCH   1  24
TORSDOF 3
ENDMDL
MODEL 5
REMARK VINA RESULT:      -9.6      2.133     10.045
REMARK  Name = CHEMBL288774
REMARK  4 active torsions:
REMARK  status: ('A' for Active; 'I' for Inactive)
REMARK    1  A    between atoms: C_1  and  C_2
REMARK    2  A    between atoms: C_8  and  C_9
REMARK    3  A    between atoms: C_13  and  C_14
REMARK    4  A    between atoms: C_19  and  N_20
REMARK                            x       y       z     vdW  Elec       q    Type
REMARK                         _______ _______ _______ _____ _____    ______ ____
ROOT
ATOM      1  C   UNL     1      -6.390   4.020 132.081  0.00  0.00    +0.000 C 
ATOM      2  O   UNL     1      -6.057   2.837 132.102  0.00  0.00    +0.000 OA
ATOM      3  N   UNL     1      -7.584   4.412 131.491  0.00  0.00    +0.000 N 
ATOM      4  C   UNL     1      -8.845   4.087 132.153  0.00  0.00    +0.000 C 
ATOM      5  C   UNL     1      -9.907   3.700 131.136  0.00  0.00    +0.000 C 
ATOM      6  C   UNL     1     -10.055   4.775 130.035  0.00  0.00    +0.000 C 
ATOM      7  C   UNL     1      -8.690   5.037 129.380  0.00  0.00    +0.000 C 
ATOM      8  C   UNL     1      -7.610   5.368 130.393  0.00  0.00    +0.000 C 
ENDROOT
BRANCH   6   9
ATOM      9  N   UNL     1     -10.801   5.988 130.513  0.00  0.00    +0.000 N 
ATOM     10  C   UNL     1     -10.992   6.305 131.858  0.00  0.00    +0.000 C 
ATOM     11  O   UNL     1     -10.157   6.350 132.753  0.00  0.00    +0.000 OA
ATOM     12  O   UNL     1     -12.291   6.522 132.174  0.00  0.00    +0.000 OA
ATOM     13  C   UNL     1     -12.721   7.735 131.599  0.00  0.00    +0.000 C 
ATOM     14  C   UNL     1     -12.405   7.766 130.136  0.00  0.00    +0.000 A 
ATOM     15  C   UNL     1     -13.032   8.719 129.331  0.00  0.00    +0.000 A 
ATOM     16  C   UNL     1     -12.732   8.782 127.979  0.00  0.00    +0.000 A 
ATOM     17  C   UNL     1     -11.800   7.900 127.435  0.00  0.00    +0.000 A 
ATOM     18  C   UNL     1     -11.169   6.942 128.237  0.00  0.00    +0.000 A 
ATOM     19  C   UNL     1     -11.466   6.863 129.599  0.00  0.00    +0.000 A 
ENDBRANCH   6   9
BRANCH   1  24
ATOM     20  C   UNL     1      -2.238   8.237 133.169  0.00  0.00    +0.000 A 
ATOM     21  C   UNL     1      -2.747   7.598 132.058  0.00  0.00    +0.000 A 
ATOM     22  C   UNL     1      -3.770   6.733 132.519  0.00  0.00    +0.000 A 
ATOM     23  C   UNL     1      -4.630   5.787 131.924  0.00  0.00    +0.000 A 
ATOM     24  C   UNL     1      -5.525   5.060 132.734  0.00  0.00    +0.000 A 
ATOM     25  C   UNL     1      -5.525   5.278 134.121  0.00  0.00    +0.000 A 
ATOM     26  C   UNL     1      -4.709   6.241 134.728  0.00  0.00    +0.000 A 
ATOM     27  C   UNL     1      -3.840   6.931 133.892  0.00  0.00    +0.000 A 
ATOM     28  O   UNL     1      -2.925   7.860 134.286  0.00  0.00    +0.000 OA
BRANCH  20  36
ATOM     29  C   UNL     1      -0.976  13.240 131.597  0.00  0.00    +0.000 C 
ATOM     30  C   UNL     1       0.096  12.432 132.297  0.00  0.00    +0.000 C 
ATOM     31  O   UNL     1       1.289  12.671 132.123  0.00  0.00    +0.000 OA
ATOM     32  N   UNL     1      -0.359  11.520 133.235  0.00  0.00    +0.000 N 
ATOM     33  C   UNL     1       0.203  11.482 134.579  0.00  0.00    +0.000 C 
ATOM     34  C   UNL     1       0.610  10.072 134.996  0.00  0.00    +0.000 C 
ATOM     35  C   UNL     1      -0.524   9.070 134.773  0.00  0.00    +0.000 C 
ATOM     36  C   UNL     1      -1.092   9.172 133.348  0.00  0.00    +0.000 C 
ATOM     37  C   UNL     1      -1.478  10.619 132.996  0.00  0.00    +0.000 C 
ENDBRANCH  20  36
ENDBRANCH   1  24
TORSDOF 3
ENDMDL
MODEL 6
REMARK VINA RESULT:      -9.5      5.309      7.607
REMARK  Name = CHEMBL288774
REMARK  4 active torsions:
REMARK  status: ('A' for Active; 'I' for Inactive)
REMARK    1  A    between atoms: C_1  and  C_2
REMARK    2  A    between atoms: C_8  and  C_9
REMARK    3  A    between atoms: C_13  and  C_14
REMARK    4  A    between atoms: C_19  and  N_20
REMARK                            x       y       z     vdW  Elec       q    Type
REMARK                         _______ _______ _______ _____ _____    ______ ____
ROOT
ATOM      1  C   UNL     1      -2.562   5.922 129.155  0.00  0.00    +0.000 C 
ATOM      2  O   UNL     1      -1.819   6.838 128.808  0.00  0.00    +0.000 OA
ATOM      3  N   UNL     1      -2.938   5.775 130.483  0.00  0.00    +0.000 N 
ATOM      4  C   UNL     1      -3.876   6.731 131.067  0.00  0.00    +0.000 C 
ATOM      5  C   UNL     1      -3.495   7.057 132.502  0.00  0.00    +0.000 C 
ATOM      6  C   UNL     1      -3.327   5.774 133.348  0.00  0.00    +0.000 C 
ATOM      7  C   UNL     1      -2.311   4.838 132.674  0.00  0.00    +0.000 C 
ATOM      8  C   UNL     1      -2.652   4.554 131.223  0.00  0.00    +0.000 C 
ENDROOT
BRANCH   6   9
ATOM      9  N   UNL     1      -4.644   5.157 133.722  0.00  0.00    +0.000 N 
ATOM     10  C   UNL     1      -5.216   4.074 133.054  0.00  0.00    +0.000 C 
ATOM     11  O   UNL     1      -4.695   3.007 132.754  0.00  0.00    +0.000 OA
ATOM     12  O   UNL     1      -6.489   4.307 132.655  0.00  0.00    +0.000 OA
ATOM     13  C   UNL     1      -7.338   4.344 133.780  0.00  0.00    +0.000 C 
ATOM     14  C   UNL     1      -6.807   5.292 134.809  0.00  0.00    +0.000 A 
ATOM     15  C   UNL     1      -7.654   5.715 135.835  0.00  0.00    +0.000 A 
ATOM     16  C   UNL     1      -7.173   6.571 136.814  0.00  0.00    +0.000 A 
ATOM     17  C   UNL     1      -5.847   6.995 136.773  0.00  0.00    +0.000 A 
ATOM     18  C   UNL     1      -4.993   6.574 135.747  0.00  0.00    +0.000 A 
ATOM     19  C   UNL     1      -5.465   5.717 134.751  0.00  0.00    +0.000 A 
ENDBRANCH   6   9
BRANCH   1  24
ATOM     20  C   UNL     1      -6.193   2.865 125.455  0.00  0.00    +0.000 A 
ATOM     21  C   UNL     1      -6.288   3.992 126.245  0.00  0.00    +0.000 A 
ATOM     22  C   UNL     1      -5.011   4.192 126.827  0.00  0.00    +0.000 A 
ATOM     23  C   UNL     1      -4.457   5.106 127.745  0.00  0.00    +0.000 A 
ATOM     24  C   UNL     1      -3.110   4.966 128.133  0.00  0.00    +0.000 A 
ATOM     25  C   UNL     1      -2.354   3.904 127.612  0.00  0.00    +0.000 A 
ATOM     26  C   UNL     1      -2.872   3.008 126.668  0.00  0.00    +0.000 A 
ATOM     27  C   UNL     1      -4.204   3.181 126.318  0.00  0.00    +0.000 A 
ATOM     28  O   UNL     1      -4.914   2.388 125.469  0.00  0.00    +0.000 OA
BRANCH  20  36
ATOM     29  C   UNL     1      -8.895  -1.765 126.048  0.00  0.00    +0.000 C 
ATOM     30  C   UNL     1      -9.027  -1.038 124.725  0.00  0.00    +0.000 C 
ATOM     31  O   UNL     1      -9.323  -1.640 123.695  0.00  0.00    +0.000 OA
ATOM     32  N   UNL     1      -8.931   0.342 124.790  0.00  0.00    +0.000 N 
ATOM     33  C   UNL     1      -9.937   1.193 124.167  0.00  0.00    +0.000 C 
ATOM     34  C   UNL     1      -9.316   2.272 123.285  0.00  0.00    +0.000 C 
ATOM     35  C   UNL     1      -8.225   3.047 124.027  0.00  0.00    +0.000 C 
ATOM     36  C   UNL     1      -7.208   2.097 124.682  0.00  0.00    +0.000 C 
ATOM     37  C   UNL     1      -7.904   1.038 125.553  0.00  0.00    +0.000 C 
ENDBRANCH  20  36
ENDBRANCH   1  24
TORSDOF 3
ENDMDL
MODEL 7
REMARK VINA RESULT:      -9.4      8.406     11.042
REMARK  Name = CHEMBL288774
REMARK  4 active torsions:
REMARK  status: ('A' for Active; 'I' for Inactive)
REMARK    1  A    between atoms: C_1  and  C_2
REMARK    2  A    between atoms: C_8  and  C_9
REMARK    3  A    between atoms: C_13  and  C_14
REMARK    4  A    between atoms: C_19  and  N_20
REMARK                            x       y       z     vdW  Elec       q    Type
REMARK                         _______ _______ _______ _____ _____    ______ ____
ROOT
ATOM      1  C   UNL     1      -5.576  -4.184 131.878  0.00  0.00    +0.000 C 
ATOM      2  O   UNL     1      -5.226  -5.360 131.954  0.00  0.00    +0.000 OA
ATOM      3  N   UNL     1      -5.681  -3.398 133.017  0.00  0.00    +0.000 N 
ATOM      4  C   UNL     1      -4.463  -2.972 133.703  0.00  0.00    +0.000 C 
ATOM      5  C   UNL     1      -4.652  -3.001 135.211  0.00  0.00    +0.000 C 
ATOM      6  C   UNL     1      -5.904  -2.203 135.640  0.00  0.00    +0.000 C 
ATOM      7  C   UNL     1      -7.137  -2.730 134.889  0.00  0.00    +0.000 C 
ATOM      8  C   UNL     1      -6.937  -2.758 133.385  0.00  0.00    +0.000 C 
ENDROOT
BRANCH   6   9
ATOM      9  N   UNL     1      -5.684  -0.718 135.587  0.00  0.00    +0.000 N 
ATOM     10  C   UNL     1      -5.890   0.061 134.448  0.00  0.00    +0.000 C 
ATOM     11  O   UNL     1      -6.870   0.085 133.714  0.00  0.00    +0.000 OA
ATOM     12  O   UNL     1      -4.818   0.822 134.122  0.00  0.00    +0.000 OA
ATOM     13  C   UNL     1      -4.666   1.854 135.070  0.00  0.00    +0.000 C 
ATOM     14  C   UNL     1      -4.657   1.297 136.459  0.00  0.00    +0.000 A 
ATOM     15  C   UNL     1      -4.194   2.100 137.503  0.00  0.00    +0.000 A 
ATOM     16  C   UNL     1      -4.203   1.612 138.801  0.00  0.00    +0.000 A 
ATOM     17  C   UNL     1      -4.682   0.329 139.056  0.00  0.00    +0.000 A 
ATOM     18  C   UNL     1      -5.147  -0.480 138.013  0.00  0.00    +0.000 A 
ATOM     19  C   UNL     1      -5.139  -0.005 136.700  0.00  0.00    +0.000 A 
ENDBRANCH   6   9
BRANCH   1  24
ATOM     20  C   UNL     1      -8.173  -2.473 126.726  0.00  0.00    +0.000 A 
ATOM     21  C   UNL     1      -8.577  -3.084 127.895  0.00  0.00    +0.000 A 
ATOM     22  C   UNL     1      -7.440  -3.139 128.739  0.00  0.00    +0.000 A 
ATOM     23  C   UNL     1      -7.162  -3.666 130.017  0.00  0.00    +0.000 A 
ATOM     24  C   UNL     1      -5.856  -3.565 130.538  0.00  0.00    +0.000 A 
ATOM     25  C   UNL     1      -4.855  -2.959 129.763  0.00  0.00    +0.000 A 
ATOM     26  C   UNL     1      -5.118  -2.392 128.509  0.00  0.00    +0.000 A 
ATOM     27  C   UNL     1      -6.416  -2.520 128.033  0.00  0.00    +0.000 A 
ATOM     28  O   UNL     1      -6.865  -2.095 126.819  0.00  0.00    +0.000 OA
BRANCH  20  36
ATOM     29  C   UNL     1      -8.994   1.738 123.456  0.00  0.00    +0.000 C 
ATOM     30  C   UNL     1      -9.732   0.452 123.145  0.00  0.00    +0.000 C 
ATOM     31  O   UNL     1     -10.783   0.459 122.508  0.00  0.00    +0.000 OA
ATOM     32  N   UNL     1      -9.075  -0.715 123.500  0.00  0.00    +0.000 N 
ATOM     33  C   UNL     1      -8.910  -1.803 122.544  0.00  0.00    +0.000 C 
ATOM     34  C   UNL     1      -9.341  -3.149 123.121  0.00  0.00    +0.000 C 
ATOM     35  C   UNL     1      -8.686  -3.415 124.478  0.00  0.00    +0.000 C 
ATOM     36  C   UNL     1      -8.872  -2.225 125.434  0.00  0.00    +0.000 C 
ATOM     37  C   UNL     1      -8.420  -0.905 124.787  0.00  0.00    +0.000 C 
ENDBRANCH  20  36
ENDBRANCH   1  24
TORSDOF 3
ENDMDL
MODEL 8
REMARK VINA RESULT:      -9.3      6.461      8.462
REMARK  Name = CHEMBL288774
REMARK  4 active torsions:
REMARK  status: ('A' for Active; 'I' for Inactive)
REMARK    1  A    between atoms: C_1  and  C_2
REMARK    2  A    between atoms: C_8  and  C_9
REMARK    3  A    between atoms: C_13  and  C_14
REMARK    4  A    between atoms: C_19  and  N_20
REMARK                            x       y       z     vdW  Elec       q    Type
REMARK                         _______ _______ _______ _____ _____    ______ ____
ROOT
ATOM      1  C   UNL     1      -6.868  -0.247 133.102  0.00  0.00    +0.000 C 
ATOM      2  O   UNL     1      -6.626  -0.918 134.103  0.00  0.00    +0.000 OA
ATOM      3  N   UNL     1      -6.850   1.140 133.154  0.00  0.00    +0.000 N 
ATOM      4  C   UNL     1      -5.569   1.830 133.285  0.00  0.00    +0.000 C 
ATOM      5  C   UNL     1      -5.692   3.034 134.205  0.00  0.00    +0.000 C 
ATOM      6  C   UNL     1      -6.845   3.965 133.766  0.00  0.00    +0.000 C 
ATOM      7  C   UNL     1      -8.154   3.164 133.676  0.00  0.00    +0.000 C 
ATOM      8  C   UNL     1      -8.024   1.928 132.806  0.00  0.00    +0.000 C 
ENDROOT
BRANCH   6   9
ATOM      9  N   UNL     1      -6.492   4.787 132.560  0.00  0.00    +0.000 N 
ATOM     10  C   UNL     1      -7.186   4.737 131.351  0.00  0.00    +0.000 C 
ATOM     11  O   UNL     1      -8.394   4.817 131.167  0.00  0.00    +0.000 OA
ATOM     12  O   UNL     1      -6.382   4.509 130.285  0.00  0.00    +0.000 OA
ATOM     13  C   UNL     1      -5.591   5.650 130.037  0.00  0.00    +0.000 C 
ATOM     14  C   UNL     1      -4.889   6.085 131.285  0.00  0.00    +0.000 A 
ATOM     15  C   UNL     1      -3.821   6.978 131.180  0.00  0.00    +0.000 A 
ATOM     16  C   UNL     1      -3.175   7.415 132.326  0.00  0.00    +0.000 A 
ATOM     17  C   UNL     1      -3.603   6.969 133.575  0.00  0.00    +0.000 A 
ATOM     18  C   UNL     1      -4.674   6.074 133.686  0.00  0.00    +0.000 A 
ATOM     19  C   UNL     1      -5.329   5.621 132.540  0.00  0.00    +0.000 A 
ENDBRANCH   6   9
BRANCH   1  24
ATOM     20  C   UNL     1      -8.123  -1.364 127.324  0.00  0.00    +0.000 A 
ATOM     21  C   UNL     1      -7.791  -0.259 128.080  0.00  0.00    +0.000 A 
ATOM     22  C   UNL     1      -7.569  -0.721 129.401  0.00  0.00    +0.000 A 
ATOM     23  C   UNL     1      -7.256  -0.119 130.637  0.00  0.00    +0.000 A 
ATOM     24  C   UNL     1      -7.148  -0.922 131.790  0.00  0.00    +0.000 A 
ATOM     25  C   UNL     1      -7.376  -2.304 131.686  0.00  0.00    +0.000 A 
ATOM     26  C   UNL     1      -7.649  -2.928 130.462  0.00  0.00    +0.000 A 
ATOM     27  C   UNL     1      -7.750  -2.098 129.353  0.00  0.00    +0.000 A 
ATOM     28  O   UNL     1      -8.065  -2.493 128.089  0.00  0.00    +0.000 OA
BRANCH  20  36
ATOM     29  C   UNL     1      -9.406   1.932 123.252  0.00  0.00    +0.000 C 
ATOM     30  C   UNL     1      -9.649   0.450 123.059  0.00  0.00    +0.000 C 
ATOM     31  O   UNL     1     -10.490   0.041 122.262  0.00  0.00    +0.000 OA
ATOM     32  N   UNL     1      -8.773  -0.391 123.727  0.00  0.00    +0.000 N 
ATOM     33  C   UNL     1      -8.093  -1.474 123.027  0.00  0.00    +0.000 C 
ATOM     34  C   UNL     1      -8.226  -2.807 123.757  0.00  0.00    +0.000 C 
ATOM     35  C   UNL     1      -7.835  -2.683 125.231  0.00  0.00    +0.000 C 
ATOM     36  C   UNL     1      -8.565  -1.511 125.909  0.00  0.00    +0.000 C 
ATOM     37  C   UNL     1      -8.390  -0.203 125.119  0.00  0.00    +0.000 C 
ENDBRANCH  20  36
ENDBRANCH   1  24
TORSDOF 3
ENDMDL
MODEL 9
REMARK VINA RESULT:      -9.2      5.005     10.859
REMARK  Name = CHEMBL288774
REMARK  4 active torsions:
REMARK  status: ('A' for Active; 'I' for Inactive)
REMARK    1  A    between atoms: C_1  and  C_2
REMARK    2  A    between atoms: C_8  and  C_9
REMARK    3  A    between atoms: C_13  and  C_14
REMARK    4  A    between atoms: C_19  and  N_20
REMARK                            x       y       z     vdW  Elec       q    Type
REMARK                         _______ _______ _______ _____ _____    ______ ____
ROOT
ATOM      1  C   UNL     1      -8.120   3.484 129.559  0.00  0.00    +0.000 C 
ATOM      2  O   UNL     1      -8.859   3.678 128.596  0.00  0.00    +0.000 OA
ATOM      3  N   UNL     1      -8.048   2.235 130.160  0.00  0.00    +0.000 N 
ATOM      4  C   UNL     1      -7.384   1.142 129.453  0.00  0.00    +0.000 C 
ATOM      5  C   UNL     1      -8.121  -0.170 129.668  0.00  0.00    +0.000 C 
ATOM      6  C   UNL     1      -8.338  -0.458 131.171  0.00  0.00    +0.000 C 
ATOM      7  C   UNL     1      -9.060   0.729 131.828  0.00  0.00    +0.000 C 
ATOM      8  C   UNL     1      -8.362   2.052 131.571  0.00  0.00    +0.000 C 
ENDROOT
BRANCH   6   9
ATOM      9  N   UNL     1      -7.084  -0.926 131.852  0.00  0.00    +0.000 N 
ATOM     10  C   UNL     1      -6.456  -0.237 132.889  0.00  0.00    +0.000 C 
ATOM     11  O   UNL     1      -6.956   0.212 133.913  0.00  0.00    +0.000 OA
ATOM     12  O   UNL     1      -5.141  -0.007 132.657  0.00  0.00    +0.000 OA
ATOM     13  C   UNL     1      -4.429  -1.221 132.737  0.00  0.00    +0.000 C 
ATOM     14  C   UNL     1      -5.060  -2.261 131.865  0.00  0.00    +0.000 A 
ATOM     15  C   UNL     1      -4.331  -3.410 131.553  0.00  0.00    +0.000 A 
ATOM     16  C   UNL     1      -4.908  -4.398 130.770  0.00  0.00    +0.000 A 
ATOM     17  C   UNL     1      -6.214  -4.242 130.309  0.00  0.00    +0.000 A 
ATOM     18  C   UNL     1      -6.949  -3.092 130.619  0.00  0.00    +0.000 A 
ATOM     19  C   UNL     1      -6.379  -2.086 131.401  0.00  0.00    +0.000 A 
ENDBRANCH   6   9
BRANCH   1  24
ATOM     20  C   UNL     1      -3.413   6.820 131.270  0.00  0.00    +0.000 A 
ATOM     21  C   UNL     1      -3.605   5.640 130.582  0.00  0.00    +0.000 A 
ATOM     22  C   UNL     1      -5.006   5.451 130.481  0.00  0.00    +0.000 A 
ATOM     23  C   UNL     1      -5.850   4.451 129.957  0.00  0.00    +0.000 A 
ATOM     24  C   UNL     1      -7.247   4.592 130.077  0.00  0.00    +0.000 A 
ATOM     25  C   UNL     1      -7.768   5.717 130.734  0.00  0.00    +0.000 A 
ATOM     26  C   UNL     1      -6.950   6.743 131.226  0.00  0.00    +0.000 A 
ATOM     27  C   UNL     1      -5.580   6.560 131.090  0.00  0.00    +0.000 A 
ATOM     28  O   UNL     1      -4.615   7.403 131.551  0.00  0.00    +0.000 OA
BRANCH  20  36
ATOM     29  C   UNL     1      -2.170  11.602 133.434  0.00  0.00    +0.000 C 
ATOM     30  C   UNL     1      -1.027  10.671 133.082  0.00  0.00    +0.000 C 
ATOM     31  O   UNL     1       0.099  11.104 132.852  0.00  0.00    +0.000 OA
ATOM     32  N   UNL     1      -1.308   9.318 133.178  0.00  0.00    +0.000 N 
ATOM     33  C   UNL     1      -0.431   8.421 133.920  0.00  0.00    +0.000 C 
ATOM     34  C   UNL     1      -0.053   7.183 133.113  0.00  0.00    +0.000 C 
ATOM     35  C   UNL     1      -1.287   6.495 132.526  0.00  0.00    +0.000 C 
ATOM     36  C   UNL     1      -2.185   7.494 131.776  0.00  0.00    +0.000 C 
ATOM     37  C   UNL     1      -2.523   8.714 132.649  0.00  0.00    +0.000 C 
ENDBRANCH  20  36
ENDBRANCH   1  24
TORSDOF 3
ENDMDL
