MODEL 1
REMARK VINA RESULT:      -9.9      0.000      0.000
REMARK  Name = CHEMBL2369835
REMARK  21 active torsions:
REMARK  status: ('A' for Active; 'I' for Inactive)
REMARK    1  A    between atoms: C_2  and  C_4
REMARK    2  A    between atoms: C_4  and  N_5
REMARK    3  A    between atoms: C_6  and  C_8
REMARK    4  A    between atoms: C_8  and  C_9
REMARK    5  A    between atoms: C_8  and  N_16
REMARK    6  A    between atoms: C_9  and  C_10
REMARK    7  A    between atoms: C_10  and  C_11
REMARK    8  A    between atoms: C_11  and  N_12
REMARK    9  A    between atoms: C_17  and  C_19
REMARK   10  A    between atoms: C_24  and  C_26
REMARK   11  A    between atoms: C_35  and  C_36
REMARK   12  A    between atoms: C_36  and  C_37
REMARK   13  A    between atoms: C_40  and  O_41
REMARK   14  A    between atoms: C_47  and  C_48
REMARK   15  A    between atoms: C_48  and  C_49
REMARK   16  A    between atoms: C_58  and  C_59
REMARK   17  A    between atoms: C_59  and  C_60
REMARK   18  A    between atoms: C_60  and  C_61
REMARK   19  A    between atoms: C_61  and  O_63
REMARK   20  A    between atoms: C_67  and  C_68
REMARK   21  A    between atoms: C_68  and  C_69
REMARK                            x       y       z     vdW  Elec       q    Type
REMARK                         _______ _______ _______ _____ _____    ______ ____
ROOT
ATOM      1  C   UNL     1      -4.862   2.693 130.979  0.00  0.00    +0.000 C 
ATOM      2  C   UNL     1      -4.183   2.191 133.336  0.00  0.00    +0.000 C 
ATOM      3  S   UNL     1      -3.824   2.357 135.951  0.00  0.00    +0.000 S 
ATOM      4  S   UNL     1      -3.079   2.925 138.557  0.00  0.00    +0.000 S 
ATOM      5  C   UNL     1      -3.816   4.658 139.578  0.00  0.00    +0.000 C 
ATOM      6  C   UNL     1      -3.477   6.004 140.277  0.00  0.00    +0.000 C 
ATOM      7  C   UNL     1      -4.250   7.281 139.842  0.00  0.00    +0.000 C 
ATOM      8  O   UNL     1      -4.180   8.325 140.494  0.00  0.00    +0.000 OA
ATOM      9  N   UNL     1      -4.955   7.254 138.678  0.00  0.00    +0.000 N 
ATOM     10  C   UNL     1      -5.164   6.094 137.841  0.00  0.00    +0.000 C 
ATOM     11  C   UNL     1      -3.701   5.790 137.146  0.00  0.00    +0.000 C 
ATOM     12  O   UNL     1      -2.589   5.705 137.710  0.00  0.00    +0.000 OA
ATOM     13  N   UNL     1      -3.676   5.390 135.902  0.00  0.00    +0.000 N 
ATOM     14  C   UNL     1      -4.680   5.657 134.964  0.00  0.00    +0.000 C 
ATOM     15  C   UNL     1      -5.793   4.475 135.295  0.00  0.00    +0.000 C 
ATOM     16  O   UNL     1      -6.433   4.172 136.307  0.00  0.00    +0.000 OA
ATOM     17  N   UNL     1      -6.181   3.704 134.372  0.00  0.00    +0.000 N 
ATOM     18  C   UNL     1      -5.718   3.948 133.178  0.00  0.00    +0.000 C 
ATOM     19  C   UNL     1      -6.114   5.844 132.464  0.00  0.00    +0.000 C 
ATOM     20  O   UNL     1      -5.691   6.923 132.823  0.00  0.00    +0.000 OA
ATOM     21  N   UNL     1      -7.135   5.869 131.352  0.00  0.00    +0.000 N 
ATOM     22  C   UNL     1      -7.378   4.323 130.074  0.00  0.00    +0.000 C 
ATOM     23  C   UNL     1      -5.102   4.277 130.200  0.00  0.00    +0.000 C 
ATOM     24  O   UNL     1      -4.126   4.262 131.034  0.00  0.00    +0.000 OA
ATOM     25  N   UNL     1      -5.431   3.357 129.285  0.00  0.00    +0.000 N 
ATOM     26  H   UNL     1      -5.526   8.067 138.406  0.00  0.00    +0.000 HD
ATOM     27  H   UNL     1      -2.732   5.205 135.584  0.00  0.00    +0.000 HD
ATOM     28  H   UNL     1      -7.040   3.222 134.491  0.00  0.00    +0.000 HD
ATOM     29  H   UNL     1      -6.555   6.553 130.726  0.00  0.00    +0.000 HD
ATOM     30  H   UNL     1      -5.136   2.632 128.142  0.00  0.00    +0.000 HD
ENDROOT
BRANCH   1  36
ATOM     31  C   UNL     1      -7.465   1.600 126.839  0.00  0.00    +0.000 C 
ATOM     32  C   UNL     1      -6.666   0.949 125.591  0.00  0.00    +0.000 C 
ATOM     33  C   UNL     1      -7.373   1.444 124.427  0.00  0.00    +0.000 C 
ATOM     34  C   UNL     1      -7.715   3.081 125.389  0.00  0.00    +0.000 C 
ATOM     35  N   UNL     1      -7.321   3.052 127.428  0.00  0.00    +0.000 N 
ATOM     36  C   UNL     1      -6.086   3.433 129.072  0.00  0.00    +0.000 C 
ATOM     37  O   UNL     1      -6.763   4.584 128.411  0.00  0.00    +0.000 OA
BRANCH  31  39
ATOM     38  N   UNL     1      -7.793   0.736 128.777  0.00  0.00    +0.000 N 
ATOM     39  C   UNL     1      -6.878   1.269 127.989  0.00  0.00    +0.000 C 
ATOM     40  O   UNL     1      -5.702   1.056 128.160  0.00  0.00    +0.000 OA
ATOM     41  H   UNL     1      -9.010   0.639 128.637  0.00  0.00    +0.000 HD
BRANCH  38  42
ATOM     42  C   UNL     1      -7.829  -0.876 130.128  0.00  0.00    +0.000 C 
BRANCH  42  44
ATOM     43  N   UNL     1      -4.506  -1.381 129.723  0.00  0.00    +0.000 N 
ATOM     44  C   UNL     1      -5.953  -1.199 131.275  0.00  0.00    +0.000 C 
ATOM     45  O   UNL     1      -5.007  -0.649 131.790  0.00  0.00    +0.000 OA
ATOM     46  H   UNL     1      -5.148  -2.270 128.785  0.00  0.00    +0.000 HD
BRANCH  43  47
ATOM     47  C   UNL     1      -3.504  -2.116 130.321  0.00  0.00    +0.000 C 
BRANCH  47  49
ATOM     48  N   UNL     1      -4.552  -4.191 130.088  0.00  0.00    +0.000 N 
ATOM     49  C   UNL     1      -3.447  -3.524 129.694  0.00  0.00    +0.000 C 
ATOM     50  O   UNL     1      -2.594  -3.959 128.923  0.00  0.00    +0.000 OA
ATOM     51  H   UNL     1      -4.669  -5.154 129.842  0.00  0.00    +0.000 HD
ATOM     52  H   UNL     1      -5.243  -3.746 130.674  0.00  0.00    +0.000 HD
ENDBRANCH  47  49
ENDBRANCH  43  47
ENDBRANCH  42  44
BRANCH  42  53
ATOM     53  C   UNL     1      -8.225  -2.516 129.447  0.00  0.00    +0.000 C 
BRANCH  53  54
ATOM     54  C   UNL     1      -7.465  -2.839 128.320  0.00  0.00    +0.000 C 
BRANCH  54  55
ATOM     55  C   UNL     1      -8.541  -3.262 127.565  0.00  0.00    +0.000 C 
BRANCH  55  56
ATOM     56  N   UNL     1      -8.615  -2.242 126.684  0.00  0.00    +0.000 NA
ATOM     57  C   UNL     1      -8.680  -2.715 125.528  0.00  0.00    +0.000 C 
ATOM     58  N   UNL     1      -8.485  -3.844 124.981  0.00  0.00    +0.000 N 
ATOM     59  N   UNL     1      -8.851  -1.918 124.579  0.00  0.00    +0.000 N 
ATOM     60  H   UNL     1      -8.197  -4.511 125.624  0.00  0.00    +0.000 HD
ATOM     61  H   UNL     1      -8.444  -3.887 123.985  0.00  0.00    +0.000 HD
ATOM     62  H   UNL     1      -8.975  -0.831 125.332  0.00  0.00    +0.000 HD
ATOM     63  H   UNL     1      -9.171  -1.829 123.519  0.00  0.00    +0.000 HD
ENDBRANCH  55  56
ENDBRANCH  54  55
ENDBRANCH  53  54
ENDBRANCH  42  53
ENDBRANCH  38  42
ENDBRANCH  31  39
ENDBRANCH   1  36
BRANCH  10  64
ATOM     64  C   UNL     1      -6.157   6.500 136.885  0.00  0.00    +0.000 C 
BRANCH  64  65
ATOM     65  C   UNL     1      -7.155   7.345 137.374  0.00  0.00    +0.000 A 
ATOM     66  C   UNL     1      -7.038   8.663 137.408  0.00  0.00    +0.000 A 
ATOM     67  C   UNL     1      -8.031   9.602 137.606  0.00  0.00    +0.000 A 
ATOM     68  C   UNL     1      -9.276   9.318 137.789  0.00  0.00    +0.000 A 
ATOM     69  C   UNL     1      -9.356   8.076 137.496  0.00  0.00    +0.000 A 
ATOM     70  C   UNL     1      -8.354   6.956 137.516  0.00  0.00    +0.000 A 
BRANCH  68  71
ATOM     71  O   UNL     1     -10.440   9.852 138.046  0.00  0.00    +0.000 OA
ATOM     72  H   UNL     1     -11.002   9.555 137.339  0.00  0.00    +0.000 HD
ENDBRANCH  68  71
ENDBRANCH  64  65
ENDBRANCH  10  64
BRANCH  22  73
ATOM     73  C   UNL     1      -8.349   4.547 129.043  0.00  0.00    +0.000 C 
BRANCH  73  74
ATOM     74  C   UNL     1      -9.455   5.319 129.423  0.00  0.00    +0.000 C 
ATOM     75  N   UNL     1     -10.352   4.676 130.170  0.00  0.00    +0.000 N 
ATOM     76  O   UNL     1      -9.492   6.502 129.221  0.00  0.00    +0.000 OA
ATOM     77  H   UNL     1     -10.252   3.742 130.506  0.00  0.00    +0.000 HD
ATOM     78  H   UNL     1     -11.214   5.068 130.444  0.00  0.00    +0.000 HD
ENDBRANCH  73  74
ENDBRANCH  22  73
BRANCH  18  79
ATOM     79  C   UNL     1      -6.389   2.515 132.689  0.00  0.00    +0.000 C 
BRANCH  79  80
ATOM     80  C   UNL     1      -7.517   1.710 132.845  0.00  0.00    +0.000 C 
BRANCH  80  81
ATOM     81  C   UNL     1      -8.984   2.458 132.642  0.00  0.00    +0.000 C 
ATOM     82  O   UNL     1      -9.970   2.142 131.944  0.00  0.00    +0.000 OA
BRANCH  81  83
ATOM     83  O   UNL     1      -9.155   3.232 133.707  0.00  0.00    +0.000 OA
ATOM     84  H   UNL     1      -9.034   4.173 133.530  0.00  0.00    +0.000 HD
ENDBRANCH  81  83
ENDBRANCH  80  81
ENDBRANCH  79  80
ENDBRANCH  18  79
BRANCH  14  85
ATOM     85  C   UNL     1      -3.939   5.557 133.708  0.00  0.00    +0.000 C 
BRANCH  85  86
ATOM     86  C   UNL     1      -2.678   6.192 133.507  0.00  0.00    +0.000 A 
ATOM     87  C   UNL     1      -2.428   7.523 133.686  0.00  0.00    +0.000 A 
ATOM     88  C   UNL     1      -1.342   8.012 133.011  0.00  0.00    +0.000 A 
ATOM     89  C   UNL     1      -0.396   7.177 132.462  0.00  0.00    +0.000 A 
ATOM     90  C   UNL     1      -0.655   5.847 132.388  0.00  0.00    +0.000 A 
ATOM     91  C   UNL     1      -1.766   5.364 132.955  0.00  0.00    +0.000 A 
ENDBRANCH  85  86
ENDBRANCH  14  85
TORSDOF 21
ENDMDL
MODEL 2
REMARK VINA RESULT:      -9.8      4.496      8.025
REMARK  Name = CHEMBL2369835
REMARK  21 active torsions:
REMARK  status: ('A' for Active; 'I' for Inactive)
REMARK    1  A    between atoms: C_2  and  C_4
REMARK    2  A    between atoms: C_4  and  N_5
REMARK    3  A    between atoms: C_6  and  C_8
REMARK    4  A    between atoms: C_8  and  C_9
REMARK    5  A    between atoms: C_8  and  N_16
REMARK    6  A    between atoms: C_9  and  C_10
REMARK    7  A    between atoms: C_10  and  C_11
REMARK    8  A    between atoms: C_11  and  N_12
REMARK    9  A    between atoms: C_17  and  C_19
REMARK   10  A    between atoms: C_24  and  C_26
REMARK   11  A    between atoms: C_35  and  C_36
REMARK   12  A    between atoms: C_36  and  C_37
REMARK   13  A    between atoms: C_40  and  O_41
REMARK   14  A    between atoms: C_47  and  C_48
REMARK   15  A    between atoms: C_48  and  C_49
REMARK   16  A    between atoms: C_58  and  C_59
REMARK   17  A    between atoms: C_59  and  C_60
REMARK   18  A    between atoms: C_60  and  C_61
REMARK   19  A    between atoms: C_61  and  O_63
REMARK   20  A    between atoms: C_67  and  C_68
REMARK   21  A    between atoms: C_68  and  C_69
REMARK                            x       y       z     vdW  Elec       q    Type
REMARK                         _______ _______ _______ _____ _____    ______ ____
ROOT
ATOM      1  C   UNL     1      -3.720   1.729 131.974  0.00  0.00    +0.000 C 
ATOM      2  C   UNL     1      -4.374  -0.683 131.838  0.00  0.00    +0.000 C 
ATOM      3  S   UNL     1      -5.268  -3.098 132.448  0.00  0.00    +0.000 S 
ATOM      4  S   UNL     1      -5.735  -5.661 133.386  0.00  0.00    +0.000 S 
ATOM      5  C   UNL     1      -6.440  -6.012 135.378  0.00  0.00    +0.000 C 
ATOM      6  C   UNL     1      -6.169  -6.661 136.764  0.00  0.00    +0.000 C 
ATOM      7  C   UNL     1      -6.322  -5.784 138.037  0.00  0.00    +0.000 C 
ATOM      8  O   UNL     1      -6.327  -6.285 139.164  0.00  0.00    +0.000 OA
ATOM      9  N   UNL     1      -6.376  -4.430 137.897  0.00  0.00    +0.000 N 
ATOM     10  C   UNL     1      -6.429  -3.711 136.644  0.00  0.00    +0.000 C 
ATOM     11  C   UNL     1      -4.928  -3.877 135.984  0.00  0.00    +0.000 C 
ATOM     12  O   UNL     1      -4.270  -4.928 135.836  0.00  0.00    +0.000 OA
ATOM     13  N   UNL     1      -4.411  -2.856 135.353  0.00  0.00    +0.000 N 
ATOM     14  C   UNL     1      -4.759  -1.521 135.587  0.00  0.00    +0.000 C 
ATOM     15  C   UNL     1      -6.137  -1.351 134.683  0.00  0.00    +0.000 C 
ATOM     16  O   UNL     1      -7.230  -1.927 134.687  0.00  0.00    +0.000 OA
ATOM     17  N   UNL     1      -6.209  -0.433 133.819  0.00  0.00    +0.000 N 
ATOM     18  C   UNL     1      -5.195   0.383 133.751  0.00  0.00    +0.000 C 
ATOM     19  C   UNL     1      -4.751   1.366 135.510  0.00  0.00    +0.000 C 
ATOM     20  O   UNL     1      -4.310   0.942 136.558  0.00  0.00    +0.000 OA
ATOM     21  N   UNL     1      -5.087   2.838 135.480  0.00  0.00    +0.000 N 
ATOM     22  C   UNL     1      -5.050   3.919 133.774  0.00  0.00    +0.000 C 
ATOM     23  C   UNL     1      -3.186   2.662 133.395  0.00  0.00    +0.000 C 
ATOM     24  O   UNL     1      -2.754   1.453 133.388  0.00  0.00    +0.000 OA
ATOM     25  N   UNL     1      -3.247   3.531 132.378  0.00  0.00    +0.000 N 
ATOM     26  H   UNL     1      -6.544  -3.836 138.722  0.00  0.00    +0.000 HD
ATOM     27  H   UNL     1      -3.502  -3.074 134.962  0.00  0.00    +0.000 HD
ATOM     28  H   UNL     1      -7.108  -0.146 133.510  0.00  0.00    +0.000 HD
ATOM     29  H   UNL     1      -4.138   3.146 135.930  0.00  0.00    +0.000 HD
ATOM     30  H   UNL     1      -2.625   4.300 131.408  0.00  0.00    +0.000 HD
ENDROOT
BRANCH   1  36
ATOM     31  C   UNL     1      -4.408   6.490 130.571  0.00  0.00    +0.000 C 
ATOM     32  C   UNL     1      -3.374   7.121 129.497  0.00  0.00    +0.000 C 
ATOM     33  C   UNL     1      -3.306   8.523 129.859  0.00  0.00    +0.000 C 
ATOM     34  C   UNL     1      -3.532   8.009 131.706  0.00  0.00    +0.000 C 
ATOM     35  N   UNL     1      -4.113   6.044 132.052  0.00  0.00    +0.000 N 
ATOM     36  C   UNL     1      -3.685   4.050 132.514  0.00  0.00    +0.000 C 
ATOM     37  O   UNL     1      -3.618   5.063 133.606  0.00  0.00    +0.000 OA
BRANCH  31  39
ATOM     38  N   UNL     1      -5.807   4.870 130.397  0.00  0.00    +0.000 N 
ATOM     39  C   UNL     1      -4.522   5.175 130.389  0.00  0.00    +0.000 C 
ATOM     40  O   UNL     1      -3.708   4.448 129.870  0.00  0.00    +0.000 OA
ATOM     41  H   UNL     1      -6.790   5.561 130.654  0.00  0.00    +0.000 HD
BRANCH  38  42
ATOM     42  C   UNL     1      -7.026   3.559 129.294  0.00  0.00    +0.000 C 
BRANCH  42  44
ATOM     43  N   UNL     1      -4.553   2.156 127.456  0.00  0.00    +0.000 N 
ATOM     44  C   UNL     1      -6.388   3.204 127.194  0.00  0.00    +0.000 C 
ATOM     45  O   UNL     1      -6.443   2.431 126.267  0.00  0.00    +0.000 OA
ATOM     46  H   UNL     1      -3.885   2.924 128.478  0.00  0.00    +0.000 HD
BRANCH  43  47
ATOM     47  C   UNL     1      -3.880   2.417 126.281  0.00  0.00    +0.000 C 
BRANCH  47  49
ATOM     48  N   UNL     1      -2.886   4.382 127.060  0.00  0.00    +0.000 N 
ATOM     49  C   UNL     1      -2.563   3.159 126.590  0.00  0.00    +0.000 C 
ATOM     50  O   UNL     1      -1.421   2.715 126.494  0.00  0.00    +0.000 OA
ATOM     51  H   UNL     1      -2.165   5.049 127.254  0.00  0.00    +0.000 HD
ATOM     52  H   UNL     1      -3.851   4.656 127.170  0.00  0.00    +0.000 HD
ENDBRANCH  47  49
ENDBRANCH  43  47
ENDBRANCH  42  44
BRANCH  42  53
ATOM     53  C   UNL     1      -8.790   3.988 129.158  0.00  0.00    +0.000 C 
BRANCH  53  54
ATOM     54  C   UNL     1      -9.030   5.358 129.275  0.00  0.00    +0.000 C 
BRANCH  54  55
ATOM     55  C   UNL     1     -10.207   5.215 129.983  0.00  0.00    +0.000 C 
BRANCH  55  56
ATOM     56  N   UNL     1      -9.712   4.796 131.166  0.00  0.00    +0.000 NA
ATOM     57  C   UNL     1     -10.390   5.301 132.087  0.00  0.00    +0.000 C 
ATOM     58  N   UNL     1     -11.245   6.234 132.198  0.00  0.00    +0.000 N 
ATOM     59  N   UNL     1     -10.137   4.950 133.261  0.00  0.00    +0.000 N 
ATOM     60  H   UNL     1     -11.404   6.679 131.351  0.00  0.00    +0.000 HD
ATOM     61  H   UNL     1     -11.497   6.538 133.114  0.00  0.00    +0.000 HD
ATOM     62  H   UNL     1      -9.218   4.046 132.939  0.00  0.00    +0.000 HD
ATOM     63  H   UNL     1     -10.530   4.912 134.299  0.00  0.00    +0.000 HD
ENDBRANCH  55  56
ENDBRANCH  54  55
ENDBRANCH  53  54
ENDBRANCH  42  53
ENDBRANCH  38  42
ENDBRANCH  31  39
ENDBRANCH   1  36
BRANCH  10  64
ATOM     64  C   UNL     1      -6.726  -2.353 137.009  0.00  0.00    +0.000 C 
BRANCH  64  65
ATOM     65  C   UNL     1      -7.943  -2.157 137.664  0.00  0.00    +0.000 A 
ATOM     66  C   UNL     1      -9.015  -2.901 137.445  0.00  0.00    +0.000 A 
ATOM     67  C   UNL     1     -10.165  -2.984 138.204  0.00  0.00    +0.000 A 
ATOM     68  C   UNL     1     -10.369  -2.322 139.292  0.00  0.00    +0.000 A 
ATOM     69  C   UNL     1      -9.223  -1.831 139.574  0.00  0.00    +0.000 A 
ATOM     70  C   UNL     1      -8.027  -1.480 138.734  0.00  0.00    +0.000 A 
BRANCH  68  71
ATOM     71  O   UNL     1     -11.262  -2.084 140.215  0.00  0.00    +0.000 OA
ATOM     72  H   UNL     1     -11.028  -2.662 140.932  0.00  0.00    +0.000 HD
ENDBRANCH  68  71
ENDBRANCH  64  65
ENDBRANCH  10  64
BRANCH  22  73
ATOM     73  C   UNL     1      -5.334   5.315 133.944  0.00  0.00    +0.000 C 
BRANCH  73  74
ATOM     74  C   UNL     1      -6.696   5.647 133.955  0.00  0.00    +0.000 C 
ATOM     75  N   UNL     1      -7.269   5.607 135.157  0.00  0.00    +0.000 N 
ATOM     76  O   UNL     1      -7.240   6.088 132.979  0.00  0.00    +0.000 OA
ATOM     77  H   UNL     1      -6.790   5.421 136.012  0.00  0.00    +0.000 HD
ATOM     78  H   UNL     1      -8.235   5.740 135.304  0.00  0.00    +0.000 HD
ENDBRANCH  73  74
ENDBRANCH  22  73
BRANCH  18  79
ATOM     79  C   UNL     1      -5.867   1.011 132.374  0.00  0.00    +0.000 C 
BRANCH  79  80
ATOM     80  C   UNL     1      -7.092   1.298 131.771  0.00  0.00    +0.000 C 
BRANCH  80  81
ATOM     81  C   UNL     1      -8.256   1.954 132.754  0.00  0.00    +0.000 C 
ATOM     82  O   UNL     1      -8.156   2.690 133.758  0.00  0.00    +0.000 OA
BRANCH  81  83
ATOM     83  O   UNL     1      -9.377   1.965 132.043  0.00  0.00    +0.000 OA
ATOM     84  H   UNL     1      -9.618   1.105 131.679  0.00  0.00    +0.000 HD
ENDBRANCH  81  83
ENDBRANCH  80  81
ENDBRANCH  79  80
ENDBRANCH  18  79
BRANCH  14  85
ATOM     85  C   UNL     1      -3.558  -0.823 135.130  0.00  0.00    +0.000 C 
BRANCH  85  86
ATOM     86  C   UNL     1      -2.251  -1.375 135.265  0.00  0.00    +0.000 A 
ATOM     87  C   UNL     1      -1.667  -1.742 136.444  0.00  0.00    +0.000 A 
ATOM     88  C   UNL     1      -0.299  -1.793 136.431  0.00  0.00    +0.000 A 
ATOM     89  C   UNL     1       0.413  -1.792 135.255  0.00  0.00    +0.000 A 
ATOM     90  C   UNL     1      -0.231  -1.508 134.095  0.00  0.00    +0.000 A 
ATOM     91  C   UNL     1      -1.560  -1.354 134.105  0.00  0.00    +0.000 A 
ENDBRANCH  85  86
ENDBRANCH  14  85
TORSDOF 21
ENDMDL
MODEL 3
REMARK VINA RESULT:      -9.8      1.427      2.473
REMARK  Name = CHEMBL2369835
REMARK  21 active torsions:
REMARK  status: ('A' for Active; 'I' for Inactive)
REMARK    1  A    between atoms: C_2  and  C_4
REMARK    2  A    between atoms: C_4  and  N_5
REMARK    3  A    between atoms: C_6  and  C_8
REMARK    4  A    between atoms: C_8  and  C_9
REMARK    5  A    between atoms: C_8  and  N_16
REMARK    6  A    between atoms: C_9  and  C_10
REMARK    7  A    between atoms: C_10  and  C_11
REMARK    8  A    between atoms: C_11  and  N_12
REMARK    9  A    between atoms: C_17  and  C_19
REMARK   10  A    between atoms: C_24  and  C_26
REMARK   11  A    between atoms: C_35  and  C_36
REMARK   12  A    between atoms: C_36  and  C_37
REMARK   13  A    between atoms: C_40  and  O_41
REMARK   14  A    between atoms: C_47  and  C_48
REMARK   15  A    between atoms: C_48  and  C_49
REMARK   16  A    between atoms: C_58  and  C_59
REMARK   17  A    between atoms: C_59  and  C_60
REMARK   18  A    between atoms: C_60  and  C_61
REMARK   19  A    between atoms: C_61  and  O_63
REMARK   20  A    between atoms: C_67  and  C_68
REMARK   21  A    between atoms: C_68  and  C_69
REMARK                            x       y       z     vdW  Elec       q    Type
REMARK                         _______ _______ _______ _____ _____    ______ ____
ROOT
ATOM      1  C   UNL     1      -5.043   2.447 131.295  0.00  0.00    +0.000 C 
ATOM      2  C   UNL     1      -4.376   2.038 133.672  0.00  0.00    +0.000 C 
ATOM      3  S   UNL     1      -3.979   2.330 136.272  0.00  0.00    +0.000 S 
ATOM      4  S   UNL     1      -3.170   2.996 138.835  0.00  0.00    +0.000 S 
ATOM      5  C   UNL     1      -3.774   4.833 139.756  0.00  0.00    +0.000 C 
ATOM      6  C   UNL     1      -3.336   6.191 140.372  0.00  0.00    +0.000 C 
ATOM      7  C   UNL     1      -4.023   7.490 139.868  0.00  0.00    +0.000 C 
ATOM      8  O   UNL     1      -3.875   8.564 140.457  0.00  0.00    +0.000 OA
ATOM      9  N   UNL     1      -4.740   7.446 138.711  0.00  0.00    +0.000 N 
ATOM     10  C   UNL     1      -5.038   6.256 137.946  0.00  0.00    +0.000 C 
ATOM     11  C   UNL     1      -3.607   5.810 137.261  0.00  0.00    +0.000 C 
ATOM     12  O   UNL     1      -2.498   5.681 137.822  0.00  0.00    +0.000 OA
ATOM     13  N   UNL     1      -3.622   5.338 136.043  0.00  0.00    +0.000 N 
ATOM     14  C   UNL     1      -4.615   5.619 135.097  0.00  0.00    +0.000 C 
ATOM     15  C   UNL     1      -5.804   4.539 135.503  0.00  0.00    +0.000 C 
ATOM     16  O   UNL     1      -6.453   4.341 136.536  0.00  0.00    +0.000 OA
ATOM     17  N   UNL     1      -6.253   3.744 134.630  0.00  0.00    +0.000 N 
ATOM     18  C   UNL     1      -5.787   3.885 133.421  0.00  0.00    +0.000 C 
ATOM     19  C   UNL     1      -6.058   5.759 132.599  0.00  0.00    +0.000 C 
ATOM     20  O   UNL     1      -5.557   6.825 132.891  0.00  0.00    +0.000 OA
ATOM     21  N   UNL     1      -7.086   5.791 131.494  0.00  0.00    +0.000 N 
ATOM     22  C   UNL     1      -7.449   4.194 130.311  0.00  0.00    +0.000 C 
ATOM     23  C   UNL     1      -5.180   3.996 130.425  0.00  0.00    +0.000 C 
ATOM     24  O   UNL     1      -4.199   3.962 131.252  0.00  0.00    +0.000 OA
ATOM     25  N   UNL     1      -5.581   3.049 129.568  0.00  0.00    +0.000 N 
ATOM     26  H   UNL     1      -5.257   8.279 138.396  0.00  0.00    +0.000 HD
ATOM     27  H   UNL     1      -2.696   5.069 135.730  0.00  0.00    +0.000 HD
ATOM     28  H   UNL     1      -7.142   3.331 134.782  0.00  0.00    +0.000 HD
ATOM     29  H   UNL     1      -6.467   6.395 130.825  0.00  0.00    +0.000 HD
ATOM     30  H   UNL     1      -5.349   2.240 128.468  0.00  0.00    +0.000 HD
ENDROOT
BRANCH   1  36
ATOM     31  C   UNL     1      -7.523   1.293 127.096  0.00  0.00    +0.000 C 
ATOM     32  C   UNL     1      -6.681   0.652 125.871  0.00  0.00    +0.000 C 
ATOM     33  C   UNL     1      -7.368   1.130 124.687  0.00  0.00    +0.000 C 
ATOM     34  C   UNL     1      -7.763   2.764 125.634  0.00  0.00    +0.000 C 
ATOM     35  N   UNL     1      -7.419   2.750 127.683  0.00  0.00    +0.000 N 
ATOM     36  C   UNL     1      -6.231   3.159 129.355  0.00  0.00    +0.000 C 
ATOM     37  O   UNL     1      -6.912   4.295 128.672  0.00  0.00    +0.000 OA
BRANCH  31  39
ATOM     38  N   UNL     1      -7.882   0.425 129.027  0.00  0.00    +0.000 N 
ATOM     39  C   UNL     1      -6.958   0.977 128.262  0.00  0.00    +0.000 C 
ATOM     40  O   UNL     1      -5.782   0.790 128.464  0.00  0.00    +0.000 OA
ATOM     41  H   UNL     1      -9.092   0.301 128.855  0.00  0.00    +0.000 HD
BRANCH  38  42
ATOM     42  C   UNL     1      -7.917  -1.185 130.379  0.00  0.00    +0.000 C 
BRANCH  42  44
ATOM     43  N   UNL     1      -6.711  -2.920 133.025  0.00  0.00    +0.000 N 
ATOM     44  C   UNL     1      -6.538  -1.003 132.113  0.00  0.00    +0.000 C 
ATOM     45  O   UNL     1      -5.400  -1.173 132.487  0.00  0.00    +0.000 OA
ATOM     46  H   UNL     1      -8.136  -3.146 133.034  0.00  0.00    +0.000 HD
BRANCH  43  47
ATOM     47  C   UNL     1      -6.357  -2.670 134.334  0.00  0.00    +0.000 C 
BRANCH  47  49
ATOM     48  N   UNL     1      -8.597  -3.308 134.501  0.00  0.00    +0.000 N 
ATOM     49  C   UNL     1      -7.602  -2.775 135.239  0.00  0.00    +0.000 C 
ATOM     50  O   UNL     1      -7.678  -2.490 136.432  0.00  0.00    +0.000 OA
ATOM     51  H   UNL     1      -9.516  -3.394 134.890  0.00  0.00    +0.000 HD
ATOM     52  H   UNL     1      -8.443  -3.576 133.540  0.00  0.00    +0.000 HD
ENDBRANCH  47  49
ENDBRANCH  43  47
ENDBRANCH  42  44
BRANCH  42  53
ATOM     53  C   UNL     1      -7.571  -2.839 129.705  0.00  0.00    +0.000 C 
BRANCH  53  54
ATOM     54  C   UNL     1      -6.581  -2.832 128.719  0.00  0.00    +0.000 C 
BRANCH  54  55
ATOM     55  C   UNL     1      -5.610  -3.401 129.519  0.00  0.00    +0.000 C 
BRANCH  55  56
ATOM     56  N   UNL     1      -4.534  -2.698 129.105  0.00  0.00    +0.000 NA
ATOM     57  C   UNL     1      -3.619  -2.832 129.947  0.00  0.00    +0.000 C 
ATOM     58  N   UNL     1      -3.517  -3.259 131.138  0.00  0.00    +0.000 N 
ATOM     59  N   UNL     1      -2.505  -2.326 129.686  0.00  0.00    +0.000 N 
ATOM     60  H   UNL     1      -4.374  -3.543 131.493  0.00  0.00    +0.000 HD
ATOM     61  H   UNL     1      -2.671  -3.081 131.634  0.00  0.00    +0.000 HD
ATOM     62  H   UNL     1      -2.827  -1.903 128.468  0.00  0.00    +0.000 HD
ATOM     63  H   UNL     1      -1.424  -2.340 129.937  0.00  0.00    +0.000 HD
ENDBRANCH  55  56
ENDBRANCH  54  55
ENDBRANCH  53  54
ENDBRANCH  42  53
ENDBRANCH  38  42
ENDBRANCH  31  39
ENDBRANCH   1  36
BRANCH  10  64
ATOM     64  C   UNL     1      -6.010   6.673 136.974  0.00  0.00    +0.000 C 
BRANCH  64  65
ATOM     65  C   UNL     1      -7.043   7.477 137.461  0.00  0.00    +0.000 A 
ATOM     66  C   UNL     1      -6.988   8.799 137.478  0.00  0.00    +0.000 A 
ATOM     67  C   UNL     1      -8.023   9.693 137.673  0.00  0.00    +0.000 A 
ATOM     68  C   UNL     1      -9.251   9.352 137.870  0.00  0.00    +0.000 A 
ATOM     69  C   UNL     1      -9.275   8.104 137.592  0.00  0.00    +0.000 A 
ATOM     70  C   UNL     1      -8.221   7.033 137.618  0.00  0.00    +0.000 A 
BRANCH  68  71
ATOM     71  O   UNL     1     -10.437   9.834 138.129  0.00  0.00    +0.000 OA
ATOM     72  H   UNL     1     -10.641   9.519 139.002  0.00  0.00    +0.000 HD
ENDBRANCH  68  71
ENDBRANCH  64  65
ENDBRANCH  10  64
BRANCH  22  73
ATOM     73  C   UNL     1      -8.412   4.424 129.274  0.00  0.00    +0.000 C 
BRANCH  73  74
ATOM     74  C   UNL     1      -9.728   4.623 129.716  0.00  0.00    +0.000 C 
ATOM     75  N   UNL     1     -10.143   5.889 129.672  0.00  0.00    +0.000 N 
ATOM     76  O   UNL     1     -10.454   3.698 129.956  0.00  0.00    +0.000 OA
ATOM     77  H   UNL     1      -9.616   6.651 129.303  0.00  0.00    +0.000 HD
ATOM     78  H   UNL     1     -11.014   6.188 130.024  0.00  0.00    +0.000 HD
ENDBRANCH  73  74
ENDBRANCH  22  73
BRANCH  18  79
ATOM     79  C   UNL     1      -6.560   2.476 133.021  0.00  0.00    +0.000 C 
BRANCH  79  80
ATOM     80  C   UNL     1      -7.819   1.876 132.983  0.00  0.00    +0.000 C 
BRANCH  80  81
ATOM     81  C   UNL     1      -9.120   2.891 133.154  0.00  0.00    +0.000 C 
ATOM     82  O   UNL     1      -9.174   4.110 133.419  0.00  0.00    +0.000 OA
BRANCH  81  83
ATOM     83  O   UNL     1     -10.125   2.316 132.505  0.00  0.00    +0.000 OA
ATOM     84  H   UNL     1     -10.644   2.927 131.968  0.00  0.00    +0.000 HD
ENDBRANCH  81  83
ENDBRANCH  80  81
ENDBRANCH  79  80
ENDBRANCH  18  79
BRANCH  14  85
ATOM     85  C   UNL     1      -3.895   5.395 133.844  0.00  0.00    +0.000 C 
BRANCH  85  86
ATOM     86  C   UNL     1      -2.642   6.010 133.557  0.00  0.00    +0.000 A 
ATOM     87  C   UNL     1      -2.355   7.334 133.729  0.00  0.00    +0.000 A 
ATOM     88  C   UNL     1      -1.313   7.811 132.981  0.00  0.00    +0.000 A 
ATOM     89  C   UNL     1      -0.425   6.966 132.357  0.00  0.00    +0.000 A 
ATOM     90  C   UNL     1      -0.711   5.642 132.291  0.00  0.00    +0.000 A 
ATOM     91  C   UNL     1      -1.786   5.172 132.934  0.00  0.00    +0.000 A 
ENDBRANCH  85  86
ENDBRANCH  14  85
TORSDOF 21
ENDMDL
MODEL 4
REMARK VINA RESULT:      -9.6      4.461      7.393
REMARK  Name = CHEMBL2369835
REMARK  21 active torsions:
REMARK  status: ('A' for Active; 'I' for Inactive)
REMARK    1  A    between atoms: C_2  and  C_4
REMARK    2  A    between atoms: C_4  and  N_5
REMARK    3  A    between atoms: C_6  and  C_8
REMARK    4  A    between atoms: C_8  and  C_9
REMARK    5  A    between atoms: C_8  and  N_16
REMARK    6  A    between atoms: C_9  and  C_10
REMARK    7  A    between atoms: C_10  and  C_11
REMARK    8  A    between atoms: C_11  and  N_12
REMARK    9  A    between atoms: C_17  and  C_19
REMARK   10  A    between atoms: C_24  and  C_26
REMARK   11  A    between atoms: C_35  and  C_36
REMARK   12  A    between atoms: C_36  and  C_37
REMARK   13  A    between atoms: C_40  and  O_41
REMARK   14  A    between atoms: C_47  and  C_48
REMARK   15  A    between atoms: C_48  and  C_49
REMARK   16  A    between atoms: C_58  and  C_59
REMARK   17  A    between atoms: C_59  and  C_60
REMARK   18  A    between atoms: C_60  and  C_61
REMARK   19  A    between atoms: C_61  and  O_63
REMARK   20  A    between atoms: C_67  and  C_68
REMARK   21  A    between atoms: C_68  and  C_69
REMARK                            x       y       z     vdW  Elec       q    Type
REMARK                         _______ _______ _______ _____ _____    ______ ____
ROOT
ATOM      1  C   UNL     1      -3.787   1.517 131.752  0.00  0.00    +0.000 C 
ATOM      2  C   UNL     1      -4.292  -0.935 131.788  0.00  0.00    +0.000 C 
ATOM      3  S   UNL     1      -5.102  -3.338 132.544  0.00  0.00    +0.000 S 
ATOM      4  S   UNL     1      -5.509  -5.832 133.675  0.00  0.00    +0.000 S 
ATOM      5  C   UNL     1      -6.371  -6.049 135.624  0.00  0.00    +0.000 C 
ATOM      6  C   UNL     1      -6.190  -6.555 137.082  0.00  0.00    +0.000 C 
ATOM      7  C   UNL     1      -6.507  -5.580 138.250  0.00  0.00    +0.000 C 
ATOM      8  O   UNL     1      -6.586  -5.979 139.414  0.00  0.00    +0.000 OA
ATOM      9  N   UNL     1      -6.623  -4.250 137.980  0.00  0.00    +0.000 N 
ATOM     10  C   UNL     1      -6.602  -3.649 136.665  0.00  0.00    +0.000 C 
ATOM     11  C   UNL     1      -5.041  -3.778 136.154  0.00  0.00    +0.000 C 
ATOM     12  O   UNL     1      -4.314  -4.794 136.161  0.00  0.00    +0.000 OA
ATOM     13  N   UNL     1      -4.526  -2.786 135.475  0.00  0.00    +0.000 N 
ATOM     14  C   UNL     1      -4.967  -1.460 135.554  0.00  0.00    +0.000 C 
ATOM     15  C   UNL     1      -6.265  -1.459 134.523  0.00  0.00    +0.000 C 
ATOM     16  O   UNL     1      -7.320  -2.100 134.488  0.00  0.00    +0.000 OA
ATOM     17  N   UNL     1      -6.310  -0.627 133.574  0.00  0.00    +0.000 N 
ATOM     18  C   UNL     1      -5.340   0.242 133.516  0.00  0.00    +0.000 C 
ATOM     19  C   UNL     1      -5.113   1.404 135.207  0.00  0.00    +0.000 C 
ATOM     20  O   UNL     1      -4.745   1.103 136.323  0.00  0.00    +0.000 OA
ATOM     21  N   UNL     1      -5.525   2.843 135.011  0.00  0.00    +0.000 N 
ATOM     22  C   UNL     1      -5.394   3.769 133.220  0.00  0.00    +0.000 C 
ATOM     23  C   UNL     1      -3.437   2.604 133.120  0.00  0.00    +0.000 C 
ATOM     24  O   UNL     1      -2.939   1.428 133.263  0.00  0.00    +0.000 OA
ATOM     25  N   UNL     1      -3.454   3.373 132.025  0.00  0.00    +0.000 N 
ATOM     26  H   UNL     1      -6.897  -3.597 138.728  0.00  0.00    +0.000 HD
ATOM     27  H   UNL     1      -3.574  -2.980 135.186  0.00  0.00    +0.000 HD
ATOM     28  H   UNL     1      -7.191  -0.426 133.165  0.00  0.00    +0.000 HD
ATOM     29  H   UNL     1      -4.640   3.249 135.509  0.00  0.00    +0.000 HD
ATOM     30  H   UNL     1      -2.790   4.092 131.043  0.00  0.00    +0.000 HD
ENDROOT
BRANCH   1  36
ATOM     31  C   UNL     1      -4.575   6.085 129.850  0.00  0.00    +0.000 C 
ATOM     32  C   UNL     1      -3.470   6.681 128.828  0.00  0.00    +0.000 C 
ATOM     33  C   UNL     1      -3.514   8.111 129.062  0.00  0.00    +0.000 C 
ATOM     34  C   UNL     1      -3.902   7.748 130.917  0.00  0.00    +0.000 C 
ATOM     35  N   UNL     1      -4.412   5.790 131.387  0.00  0.00    +0.000 N 
ATOM     36  C   UNL     1      -3.930   3.874 132.074  0.00  0.00    +0.000 C 
ATOM     37  O   UNL     1      -4.030   4.981 133.067  0.00  0.00    +0.000 OA
BRANCH  31  39
ATOM     38  N   UNL     1      -5.840   4.381 129.522  0.00  0.00    +0.000 N 
ATOM     39  C   UNL     1      -4.600   4.754 129.781  0.00  0.00    +0.000 C 
ATOM     40  O   UNL     1      -3.665   4.029 129.542  0.00  0.00    +0.000 OA
ATOM     41  H   UNL     1      -6.878   5.037 129.472  0.00  0.00    +0.000 HD
BRANCH  38  42
ATOM     42  C   UNL     1      -6.722   2.909 128.306  0.00  0.00    +0.000 C 
BRANCH  42  44
ATOM     43  N   UNL     1      -7.320  -0.423 128.269  0.00  0.00    +0.000 N 
ATOM     44  C   UNL     1      -5.686   0.942 128.288  0.00  0.00    +0.000 C 
ATOM     45  O   UNL     1      -5.238   0.073 127.577  0.00  0.00    +0.000 OA
ATOM     46  H   UNL     1      -8.203   0.115 129.276  0.00  0.00    +0.000 HD
BRANCH  43  47
ATOM     47  C   UNL     1      -6.772  -1.565 128.815  0.00  0.00    +0.000 C 
BRANCH  47  49
ATOM     48  N   UNL     1      -7.987  -2.034 130.754  0.00  0.00    +0.000 N 
ATOM     49  C   UNL     1      -7.883  -2.417 129.464  0.00  0.00    +0.000 C 
ATOM     50  O   UNL     1      -8.597  -3.251 128.912  0.00  0.00    +0.000 OA
ATOM     51  H   UNL     1      -8.609  -2.520 131.370  0.00  0.00    +0.000 HD
ATOM     52  H   UNL     1      -7.406  -1.296 131.124  0.00  0.00    +0.000 HD
ENDBRANCH  47  49
ENDBRANCH  43  47
ENDBRANCH  42  44
BRANCH  42  53
ATOM     53  C   UNL     1      -6.942   3.314 126.545  0.00  0.00    +0.000 C 
BRANCH  53  54
ATOM     54  C   UNL     1      -6.153   4.388 126.129  0.00  0.00    +0.000 C 
BRANCH  54  55
ATOM     55  C   UNL     1      -5.126   3.603 125.641  0.00  0.00    +0.000 C 
BRANCH  55  56
ATOM     56  N   UNL     1      -4.067   4.310 126.089  0.00  0.00    +0.000 NA
ATOM     57  C   UNL     1      -3.179   3.511 126.460  0.00  0.00    +0.000 C 
ATOM     58  N   UNL     1      -3.105   2.270 126.716  0.00  0.00    +0.000 N 
ATOM     59  N   UNL     1      -2.079   3.985 126.820  0.00  0.00    +0.000 N 
ATOM     60  H   UNL     1      -3.961   1.828 126.609  0.00  0.00    +0.000 HD
ATOM     61  H   UNL     1      -2.285   1.929 127.172  0.00  0.00    +0.000 HD
ATOM     62  H   UNL     1      -2.373   5.249 126.534  0.00  0.00    +0.000 HD
ATOM     63  H   UNL     1      -1.008   3.752 126.998  0.00  0.00    +0.000 HD
ENDBRANCH  55  56
ENDBRANCH  54  55
ENDBRANCH  53  54
ENDBRANCH  42  53
ENDBRANCH  38  42
ENDBRANCH  31  39
ENDBRANCH   1  36
BRANCH  10  64
ATOM     64  C   UNL     1      -7.005  -2.286 136.874  0.00  0.00    +0.000 C 
BRANCH  64  65
ATOM     65  C   UNL     1      -7.656  -2.028 138.083  0.00  0.00    +0.000 A 
ATOM     66  C   UNL     1      -7.153  -1.249 139.027  0.00  0.00    +0.000 A 
ATOM     67  C   UNL     1      -7.800  -0.708 140.120  0.00  0.00    +0.000 A 
ATOM     68  C   UNL     1      -9.049  -0.887 140.389  0.00  0.00    +0.000 A 
ATOM     69  C   UNL     1      -9.520  -1.422 139.328  0.00  0.00    +0.000 A 
ATOM     70  C   UNL     1      -8.896  -2.246 138.236  0.00  0.00    +0.000 A 
BRANCH  68  71
ATOM     71  O   UNL     1      -9.972  -0.623 141.274  0.00  0.00    +0.000 OA
ATOM     72  H   UNL     1     -10.193  -1.467 141.652  0.00  0.00    +0.000 HD
ENDBRANCH  68  71
ENDBRANCH  64  65
ENDBRANCH  10  64
BRANCH  22  73
ATOM     73  C   UNL     1      -5.770   5.153 133.233  0.00  0.00    +0.000 C 
BRANCH  73  74
ATOM     74  C   UNL     1      -7.133   5.398 133.452  0.00  0.00    +0.000 C 
ATOM     75  N   UNL     1      -7.799   5.826 132.380  0.00  0.00    +0.000 N 
ATOM     76  O   UNL     1      -7.667   5.085 134.480  0.00  0.00    +0.000 OA
ATOM     77  H   UNL     1      -7.413   5.917 131.465  0.00  0.00    +0.000 HD
ATOM     78  H   UNL     1      -8.742   6.112 132.405  0.00  0.00    +0.000 HD
ENDBRANCH  73  74
ENDBRANCH  22  73
BRANCH  18  79
ATOM     79  C   UNL     1      -5.919   0.702 132.034  0.00  0.00    +0.000 C 
BRANCH  79  80
ATOM     80  C   UNL     1      -7.010   1.307 131.411  0.00  0.00    +0.000 C 
BRANCH  80  81
ATOM     81  C   UNL     1      -8.457   1.218 132.219  0.00  0.00    +0.000 C 
ATOM     82  O   UNL     1      -9.407   0.417 132.104  0.00  0.00    +0.000 OA
BRANCH  81  83
ATOM     83  O   UNL     1      -8.281   1.867 133.364  0.00  0.00    +0.000 OA
ATOM     84  H   UNL     1      -7.759   1.380 134.013  0.00  0.00    +0.000 HD
ENDBRANCH  81  83
ENDBRANCH  80  81
ENDBRANCH  79  80
ENDBRANCH  18  79
BRANCH  14  85
ATOM     85  C   UNL     1      -3.771  -0.730 135.137  0.00  0.00    +0.000 C 
BRANCH  85  86
ATOM     86  C   UNL     1      -2.455  -1.258 135.294  0.00  0.00    +0.000 A 
ATOM     87  C   UNL     1      -1.862  -1.555 136.488  0.00  0.00    +0.000 A 
ATOM     88  C   UNL     1      -0.494  -1.589 136.472  0.00  0.00    +0.000 A 
ATOM     89  C   UNL     1       0.214  -1.641 135.293  0.00  0.00    +0.000 A 
ATOM     90  C   UNL     1      -0.439  -1.427 134.123  0.00  0.00    +0.000 A 
ATOM     91  C   UNL     1      -1.770  -1.290 134.132  0.00  0.00    +0.000 A 
ENDBRANCH  85  86
ENDBRANCH  14  85
TORSDOF 21
ENDMDL
MODEL 5
REMARK VINA RESULT:      -9.6      4.639      7.964
REMARK  Name = CHEMBL2369835
REMARK  21 active torsions:
REMARK  status: ('A' for Active; 'I' for Inactive)
REMARK    1  A    between atoms: C_2  and  C_4
REMARK    2  A    between atoms: C_4  and  N_5
REMARK    3  A    between atoms: C_6  and  C_8
REMARK    4  A    between atoms: C_8  and  C_9
REMARK    5  A    between atoms: C_8  and  N_16
REMARK    6  A    between atoms: C_9  and  C_10
REMARK    7  A    between atoms: C_10  and  C_11
REMARK    8  A    between atoms: C_11  and  N_12
REMARK    9  A    between atoms: C_17  and  C_19
REMARK   10  A    between atoms: C_24  and  C_26
REMARK   11  A    between atoms: C_35  and  C_36
REMARK   12  A    between atoms: C_36  and  C_37
REMARK   13  A    between atoms: C_40  and  O_41
REMARK   14  A    between atoms: C_47  and  C_48
REMARK   15  A    between atoms: C_48  and  C_49
REMARK   16  A    between atoms: C_58  and  C_59
REMARK   17  A    between atoms: C_59  and  C_60
REMARK   18  A    between atoms: C_60  and  C_61
REMARK   19  A    between atoms: C_61  and  O_63
REMARK   20  A    between atoms: C_67  and  C_68
REMARK   21  A    between atoms: C_68  and  C_69
REMARK                            x       y       z     vdW  Elec       q    Type
REMARK                         _______ _______ _______ _____ _____    ______ ____
ROOT
ATOM      1  C   UNL     1      -3.884   1.457 131.938  0.00  0.00    +0.000 C 
ATOM      2  C   UNL     1      -4.494  -0.968 132.055  0.00  0.00    +0.000 C 
ATOM      3  S   UNL     1      -5.328  -3.325 132.919  0.00  0.00    +0.000 S 
ATOM      4  S   UNL     1      -5.726  -5.791 134.114  0.00  0.00    +0.000 S 
ATOM      5  C   UNL     1      -6.383  -5.956 136.146  0.00  0.00    +0.000 C 
ATOM      6  C   UNL     1      -6.071  -6.461 137.583  0.00  0.00    +0.000 C 
ATOM      7  C   UNL     1      -6.216  -5.465 138.767  0.00  0.00    +0.000 C 
ATOM      8  O   UNL     1      -6.188  -5.852 139.937  0.00  0.00    +0.000 OA
ATOM      9  N   UNL     1      -6.299  -4.133 138.496  0.00  0.00    +0.000 N 
ATOM     10  C   UNL     1      -6.391  -3.541 137.180  0.00  0.00    +0.000 C 
ATOM     11  C   UNL     1      -4.901  -3.746 136.506  0.00  0.00    +0.000 C 
ATOM     12  O   UNL     1      -4.226  -4.795 136.447  0.00  0.00    +0.000 OA
ATOM     13  N   UNL     1      -4.418  -2.784 135.766  0.00  0.00    +0.000 N 
ATOM     14  C   UNL     1      -4.786  -1.438 135.876  0.00  0.00    +0.000 C 
ATOM     15  C   UNL     1      -6.185  -1.382 134.990  0.00  0.00    +0.000 C 
ATOM     16  O   UNL     1      -7.267  -1.974 135.074  0.00  0.00    +0.000 OA
ATOM     17  N   UNL     1      -6.293  -0.555 134.041  0.00  0.00    +0.000 N 
ATOM     18  C   UNL     1      -5.296   0.267 133.871  0.00  0.00    +0.000 C 
ATOM     19  C   UNL     1      -4.836   1.428 135.515  0.00  0.00    +0.000 C 
ATOM     20  O   UNL     1      -4.365   1.116 136.589  0.00  0.00    +0.000 OA
ATOM     21  N   UNL     1      -5.201   2.883 135.348  0.00  0.00    +0.000 N 
ATOM     22  C   UNL     1      -5.220   3.791 133.544  0.00  0.00    +0.000 C 
ATOM     23  C   UNL     1      -3.340   2.535 133.249  0.00  0.00    +0.000 C 
ATOM     24  O   UNL     1      -2.885   1.339 133.351  0.00  0.00    +0.000 OA
ATOM     25  N   UNL     1      -3.439   3.298 132.153  0.00  0.00    +0.000 N 
ATOM     26  H   UNL     1      -6.462  -3.463 139.262  0.00  0.00    +0.000 HD
ATOM     27  H   UNL     1      -3.512  -3.023 135.379  0.00  0.00    +0.000 HD
ATOM     28  H   UNL     1      -7.203  -0.316 133.726  0.00  0.00    +0.000 HD
ATOM     29  H   UNL     1      -4.250   3.250 135.744  0.00  0.00    +0.000 HD
ATOM     30  H   UNL     1      -2.851   3.978 131.098  0.00  0.00    +0.000 HD
ENDROOT
BRANCH   1  36
ATOM     31  C   UNL     1      -4.685   6.045 130.088  0.00  0.00    +0.000 C 
ATOM     32  C   UNL     1      -3.681   6.583 128.938  0.00  0.00    +0.000 C 
ATOM     33  C   UNL     1      -3.634   8.015 129.159  0.00  0.00    +0.000 C 
ATOM     34  C   UNL     1      -3.818   7.682 131.050  0.00  0.00    +0.000 C 
ATOM     35  N   UNL     1      -4.356   5.752 131.599  0.00  0.00    +0.000 N 
ATOM     36  C   UNL     1      -3.883   3.821 132.247  0.00  0.00    +0.000 C 
ATOM     37  O   UNL     1      -3.817   4.937 133.232  0.00  0.00    +0.000 OA
BRANCH  31  39
ATOM     38  N   UNL     1      -6.051   4.389 130.155  0.00  0.00    +0.000 N 
ATOM     39  C   UNL     1      -4.777   4.716 130.037  0.00  0.00    +0.000 C 
ATOM     40  O   UNL     1      -3.979   3.958 129.540  0.00  0.00    +0.000 OA
ATOM     41  H   UNL     1      -7.034   5.083 130.406  0.00  0.00    +0.000 HD
BRANCH  38  42
ATOM     42  C   UNL     1      -7.303   2.956 129.259  0.00  0.00    +0.000 C 
BRANCH  42  44
ATOM     43  N   UNL     1      -8.654   1.369 126.591  0.00  0.00    +0.000 N 
ATOM     44  C   UNL     1      -7.176   2.834 127.043  0.00  0.00    +0.000 C 
ATOM     45  O   UNL     1      -7.615   3.276 126.007  0.00  0.00    +0.000 OA
ATOM     46  H   UNL     1      -8.391   0.334 127.562  0.00  0.00    +0.000 HD
BRANCH  43  47
ATOM     47  C   UNL     1      -8.230   0.869 125.378  0.00  0.00    +0.000 C 
BRANCH  47  49
ATOM     48  N   UNL     1      -9.918   2.051 124.278  0.00  0.00    +0.000 N 
ATOM     49  C   UNL     1      -9.420   0.803 124.398  0.00  0.00    +0.000 C 
ATOM     50  O   UNL     1      -9.818  -0.182 123.780  0.00  0.00    +0.000 OA
ATOM     51  H   UNL     1     -10.745   2.209 123.736  0.00  0.00    +0.000 HD
ATOM     52  H   UNL     1      -9.498   2.826 124.771  0.00  0.00    +0.000 HD
ENDBRANCH  47  49
ENDBRANCH  43  47
ENDBRANCH  42  44
BRANCH  42  53
ATOM     53  C   UNL     1      -9.086   3.088 129.598  0.00  0.00    +0.000 C 
BRANCH  53  54
ATOM     54  C   UNL     1      -9.520   4.408 129.738  0.00  0.00    +0.000 C 
BRANCH  54  55
ATOM     55  C   UNL     1     -10.338   4.153 130.821  0.00  0.00    +0.000 C 
BRANCH  55  56
ATOM     56  N   UNL     1     -11.259   5.123 130.644  0.00  0.00    +0.000 NA
ATOM     57  C   UNL     1     -11.182   5.929 131.597  0.00  0.00    +0.000 C 
ATOM     58  N   UNL     1     -10.636   5.952 132.743  0.00  0.00    +0.000 N 
ATOM     59  N   UNL     1     -11.898   6.954 131.556  0.00  0.00    +0.000 N 
ATOM     60  H   UNL     1     -10.169   5.124 132.936  0.00  0.00    +0.000 HD
ATOM     61  H   UNL     1     -10.895   6.678 133.376  0.00  0.00    +0.000 HD
ATOM     62  H   UNL     1     -12.405   6.721 130.350  0.00  0.00    +0.000 HD
ATOM     63  H   UNL     1     -12.038   7.977 131.965  0.00  0.00    +0.000 HD
ENDBRANCH  55  56
ENDBRANCH  54  55
ENDBRANCH  53  54
ENDBRANCH  42  53
ENDBRANCH  38  42
ENDBRANCH  31  39
ENDBRANCH   1  36
BRANCH  10  64
ATOM     64  C   UNL     1      -6.707  -2.159 137.415  0.00  0.00    +0.000 C 
BRANCH  64  65
ATOM     65  C   UNL     1      -7.905  -1.921 138.093  0.00  0.00    +0.000 A 
ATOM     66  C   UNL     1      -8.997  -2.647 137.913  0.00  0.00    +0.000 A 
ATOM     67  C   UNL     1     -10.132  -2.687 138.699  0.00  0.00    +0.000 A 
ATOM     68  C   UNL     1     -10.297  -1.996 139.775  0.00  0.00    +0.000 A 
ATOM     69  C   UNL     1      -9.135  -1.524 140.022  0.00  0.00    +0.000 A 
ATOM     70  C   UNL     1      -7.951  -1.219 139.148  0.00  0.00    +0.000 A 
BRANCH  68  71
ATOM     71  O   UNL     1     -11.164  -1.717 140.712  0.00  0.00    +0.000 OA
ATOM     72  H   UNL     1     -10.637  -1.529 141.480  0.00  0.00    +0.000 HD
ENDBRANCH  68  71
ENDBRANCH  64  65
ENDBRANCH  10  64
BRANCH  22  73
ATOM     73  C   UNL     1      -5.528   5.191 133.582  0.00  0.00    +0.000 C 
BRANCH  73  74
ATOM     74  C   UNL     1      -6.894   5.498 133.657  0.00  0.00    +0.000 C 
ATOM     75  N   UNL     1      -7.335   5.771 134.884  0.00  0.00    +0.000 N 
ATOM     76  O   UNL     1      -7.554   5.657 132.667  0.00  0.00    +0.000 OA
ATOM     77  H   UNL     1      -6.763   5.825 135.699  0.00  0.00    +0.000 HD
ATOM     78  H   UNL     1      -8.285   5.927 135.098  0.00  0.00    +0.000 HD
ENDBRANCH  73  74
ENDBRANCH  22  73
BRANCH  18  79
ATOM     79  C   UNL     1      -6.008   0.745 132.454  0.00  0.00    +0.000 C 
BRANCH  79  80
ATOM     80  C   UNL     1      -7.242   1.071 131.890  0.00  0.00    +0.000 C 
BRANCH  80  81
ATOM     81  C   UNL     1      -8.262  -0.199 131.575  0.00  0.00    +0.000 C 
ATOM     82  O   UNL     1      -8.029  -1.419 131.450  0.00  0.00    +0.000 OA
BRANCH  81  83
ATOM     83  O   UNL     1      -9.475   0.204 131.931  0.00  0.00    +0.000 OA
ATOM     84  H   UNL     1     -10.155  -0.475 131.843  0.00  0.00    +0.000 HD
ENDBRANCH  81  83
ENDBRANCH  80  81
ENDBRANCH  79  80
ENDBRANCH  18  79
BRANCH  14  85
ATOM     85  C   UNL     1      -3.609  -0.767 135.326  0.00  0.00    +0.000 C 
BRANCH  85  86
ATOM     86  C   UNL     1      -2.297  -1.317 135.422  0.00  0.00    +0.000 A 
ATOM     87  C   UNL     1      -1.649  -1.614 136.588  0.00  0.00    +0.000 A 
ATOM     88  C   UNL     1      -0.285  -1.673 136.503  0.00  0.00    +0.000 A 
ATOM     89  C   UNL     1       0.362  -1.748 135.291  0.00  0.00    +0.000 A 
ATOM     90  C   UNL     1      -0.345  -1.533 134.154  0.00  0.00    +0.000 A 
ATOM     91  C   UNL     1      -1.671  -1.372 134.228  0.00  0.00    +0.000 A 
ENDBRANCH  85  86
ENDBRANCH  14  85
TORSDOF 21
ENDMDL
MODEL 6
REMARK VINA RESULT:      -9.3      1.803      3.194
REMARK  Name = CHEMBL2369835
REMARK  21 active torsions:
REMARK  status: ('A' for Active; 'I' for Inactive)
REMARK    1  A    between atoms: C_2  and  C_4
REMARK    2  A    between atoms: C_4  and  N_5
REMARK    3  A    between atoms: C_6  and  C_8
REMARK    4  A    between atoms: C_8  and  C_9
REMARK    5  A    between atoms: C_8  and  N_16
REMARK    6  A    between atoms: C_9  and  C_10
REMARK    7  A    between atoms: C_10  and  C_11
REMARK    8  A    between atoms: C_11  and  N_12
REMARK    9  A    between atoms: C_17  and  C_19
REMARK   10  A    between atoms: C_24  and  C_26
REMARK   11  A    between atoms: C_35  and  C_36
REMARK   12  A    between atoms: C_36  and  C_37
REMARK   13  A    between atoms: C_40  and  O_41
REMARK   14  A    between atoms: C_47  and  C_48
REMARK   15  A    between atoms: C_48  and  C_49
REMARK   16  A    between atoms: C_58  and  C_59
REMARK   17  A    between atoms: C_59  and  C_60
REMARK   18  A    between atoms: C_60  and  C_61
REMARK   19  A    between atoms: C_61  and  O_63
REMARK   20  A    between atoms: C_67  and  C_68
REMARK   21  A    between atoms: C_68  and  C_69
REMARK                            x       y       z     vdW  Elec       q    Type
REMARK                         _______ _______ _______ _____ _____    ______ ____
ROOT
ATOM      1  C   UNL     1      -5.119   2.879 130.823  0.00  0.00    +0.000 C 
ATOM      2  C   UNL     1      -4.359   2.262 133.126  0.00  0.00    +0.000 C 
ATOM      3  S   UNL     1      -3.896   2.303 135.731  0.00  0.00    +0.000 S 
ATOM      4  S   UNL     1      -3.043   2.742 138.328  0.00  0.00    +0.000 S 
ATOM      5  C   UNL     1      -3.709   4.439 139.453  0.00  0.00    +0.000 C 
ATOM      6  C   UNL     1      -3.320   5.747 140.197  0.00  0.00    +0.000 C 
ATOM      7  C   UNL     1      -4.087   7.053 139.850  0.00  0.00    +0.000 C 
ATOM      8  O   UNL     1      -3.973   8.066 140.544  0.00  0.00    +0.000 OA
ATOM      9  N   UNL     1      -4.836   7.091 138.714  0.00  0.00    +0.000 N 
ATOM     10  C   UNL     1      -5.097   5.973 137.835  0.00  0.00    +0.000 C 
ATOM     11  C   UNL     1      -3.668   5.677 137.071  0.00  0.00    +0.000 C 
ATOM     12  O   UNL     1      -2.537   5.549 137.586  0.00  0.00    +0.000 OA
ATOM     13  N   UNL     1      -3.697   5.334 135.810  0.00  0.00    +0.000 N 
ATOM     14  C   UNL     1      -4.732   5.658 134.925  0.00  0.00    +0.000 C 
ATOM     15  C   UNL     1      -5.853   4.480 135.246  0.00  0.00    +0.000 C 
ATOM     16  O   UNL     1      -6.458   4.142 136.269  0.00  0.00    +0.000 OA
ATOM     17  N   UNL     1      -6.288   3.758 134.306  0.00  0.00    +0.000 N 
ATOM     18  C   UNL     1      -5.868   4.048 133.107  0.00  0.00    +0.000 C 
ATOM     19  C   UNL     1      -6.258   5.980 132.494  0.00  0.00    +0.000 C 
ATOM     20  O   UNL     1      -5.802   7.035 132.883  0.00  0.00    +0.000 OA
ATOM     21  N   UNL     1      -7.320   6.072 131.425  0.00  0.00    +0.000 N 
ATOM     22  C   UNL     1      -7.639   4.589 130.090  0.00  0.00    +0.000 C 
ATOM     23  C   UNL     1      -5.361   4.501 130.125  0.00  0.00    +0.000 C 
ATOM     24  O   UNL     1      -4.353   4.433 130.918  0.00  0.00    +0.000 OA
ATOM     25  N   UNL     1      -5.741   3.628 129.184  0.00  0.00    +0.000 N 
ATOM     26  H   UNL     1      -5.403   7.924 138.501  0.00  0.00    +0.000 HD
ATOM     27  H   UNL     1      -2.769   5.148 135.447  0.00  0.00    +0.000 HD
ATOM     28  H   UNL     1      -7.151   3.284 134.437  0.00  0.00    +0.000 HD
ATOM     29  H   UNL     1      -6.752   6.774 130.808  0.00  0.00    +0.000 HD
ATOM     30  H   UNL     1      -5.503   2.951 127.998  0.00  0.00    +0.000 HD
ENDROOT
BRANCH   1  36
ATOM     31  C   UNL     1      -7.415   2.092 126.439  0.00  0.00    +0.000 C 
ATOM     32  C   UNL     1      -6.492   1.788 125.144  0.00  0.00    +0.000 C 
ATOM     33  C   UNL     1      -7.243   2.351 124.040  0.00  0.00    +0.000 C 
ATOM     34  C   UNL     1      -7.867   3.734 125.232  0.00  0.00    +0.000 C 
ATOM     35  N   UNL     1      -7.521   3.432 127.258  0.00  0.00    +0.000 N 
ATOM     36  C   UNL     1      -6.402   3.724 129.000  0.00  0.00    +0.000 C 
ATOM     37  O   UNL     1      -7.240   4.849 128.497  0.00  0.00    +0.000 OA
BRANCH  31  39
ATOM     38  N   UNL     1      -7.639   0.870 128.190  0.00  0.00    +0.000 N 
ATOM     39  C   UNL     1      -6.809   1.672 127.549  0.00  0.00    +0.000 C 
ATOM     40  O   UNL     1      -5.618   1.629 127.746  0.00  0.00    +0.000 OA
ATOM     41  H   UNL     1      -8.817   0.599 127.971  0.00  0.00    +0.000 HD
BRANCH  38  42
ATOM     42  C   UNL     1      -7.433  -0.932 129.256  0.00  0.00    +0.000 C 
BRANCH  42  44
ATOM     43  N   UNL     1      -8.567  -2.058 126.271  0.00  0.00    +0.000 N 
ATOM     44  C   UNL     1      -8.315  -2.723 128.278  0.00  0.00    +0.000 C 
ATOM     45  O   UNL     1      -8.061  -3.740 127.676  0.00  0.00    +0.000 OA
ATOM     46  H   UNL     1      -9.149  -0.748 126.434  0.00  0.00    +0.000 HD
BRANCH  43  47
ATOM     47  C   UNL     1      -9.579  -2.870 125.803  0.00  0.00    +0.000 C 
BRANCH  47  49
ATOM     48  N   UNL     1      -8.052  -4.016 124.457  0.00  0.00    +0.000 N 
ATOM     49  C   UNL     1      -9.233  -3.367 124.384  0.00  0.00    +0.000 C 
ATOM     50  O   UNL     1      -9.922  -3.259 123.372  0.00  0.00    +0.000 OA
ATOM     51  H   UNL     1      -7.617  -4.356 123.621  0.00  0.00    +0.000 HD
ATOM     52  H   UNL     1      -7.572  -4.120 125.338  0.00  0.00    +0.000 HD
ENDBRANCH  47  49
ENDBRANCH  43  47
ENDBRANCH  42  44
BRANCH  42  53
ATOM     53  C   UNL     1      -8.101  -0.973 130.948  0.00  0.00    +0.000 C 
BRANCH  53  54
ATOM     54  C   UNL     1      -7.337  -1.752 131.819  0.00  0.00    +0.000 C 
BRANCH  54  55
ATOM     55  C   UNL     1      -8.275  -1.756 132.833  0.00  0.00    +0.000 C 
BRANCH  55  56
ATOM     56  N   UNL     1      -7.462  -1.941 133.894  0.00  0.00    +0.000 NA
ATOM     57  C   UNL     1      -7.794  -2.998 134.475  0.00  0.00    +0.000 C 
ATOM     58  N   UNL     1      -8.789  -3.788 134.454  0.00  0.00    +0.000 N 
ATOM     59  N   UNL     1      -7.089  -3.387 135.432  0.00  0.00    +0.000 N 
ATOM     60  H   UNL     1      -9.474  -3.488 133.837  0.00  0.00    +0.000 HD
ATOM     61  H   UNL     1      -8.860  -4.477 135.171  0.00  0.00    +0.000 HD
ATOM     62  H   UNL     1      -6.170  -2.433 135.323  0.00  0.00    +0.000 HD
ATOM     63  H   UNL     1      -6.827  -4.260 136.067  0.00  0.00    +0.000 HD
ENDBRANCH  55  56
ENDBRANCH  54  55
ENDBRANCH  53  54
ENDBRANCH  42  53
ENDBRANCH  38  42
ENDBRANCH  31  39
ENDBRANCH   1  36
BRANCH  10  64
ATOM     64  C   UNL     1      -6.119   6.437 136.938  0.00  0.00    +0.000 C 
BRANCH  64  65
ATOM     65  C   UNL     1      -7.068   7.296 137.496  0.00  0.00    +0.000 A 
ATOM     66  C   UNL     1      -6.963   8.615 137.460  0.00  0.00    +0.000 A 
ATOM     67  C   UNL     1      -7.940   9.555 137.725  0.00  0.00    +0.000 A 
ATOM     68  C   UNL     1      -9.153   9.270 138.056  0.00  0.00    +0.000 A 
ATOM     69  C   UNL     1      -9.250   8.016 137.828  0.00  0.00    +0.000 A 
ATOM     70  C   UNL     1      -8.239   6.905 137.786  0.00  0.00    +0.000 A 
BRANCH  68  71
ATOM     71  O   UNL     1     -10.288   9.807 138.415  0.00  0.00    +0.000 OA
ATOM     72  H   UNL     1     -10.636   9.218 139.075  0.00  0.00    +0.000 HD
ENDBRANCH  68  71
ENDBRANCH  64  65
ENDBRANCH  10  64
BRANCH  22  73
ATOM     73  C   UNL     1      -8.644   4.874 129.108  0.00  0.00    +0.000 C 
BRANCH  73  74
ATOM     74  C   UNL     1      -9.942   5.032 129.614  0.00  0.00    +0.000 C 
ATOM     75  N   UNL     1     -10.420   6.274 129.538  0.00  0.00    +0.000 N 
ATOM     76  O   UNL     1     -10.610   4.086 129.932  0.00  0.00    +0.000 OA
ATOM     77  H   UNL     1      -9.952   7.042 129.108  0.00  0.00    +0.000 HD
ATOM     78  H   UNL     1     -11.285   6.548 129.925  0.00  0.00    +0.000 HD
ENDBRANCH  73  74
ENDBRANCH  22  73
BRANCH  18  79
ATOM     79  C   UNL     1      -6.582   2.649 132.581  0.00  0.00    +0.000 C 
BRANCH  79  80
ATOM     80  C   UNL     1      -7.778   1.934 132.622  0.00  0.00    +0.000 C 
BRANCH  80  81
ATOM     81  C   UNL     1      -9.154   2.821 132.889  0.00  0.00    +0.000 C 
ATOM     82  O   UNL     1      -9.302   4.017 133.217  0.00  0.00    +0.000 OA
BRANCH  81  83
ATOM     83  O   UNL     1     -10.131   2.192 132.247  0.00  0.00    +0.000 OA
ATOM     84  H   UNL     1      -9.885   1.318 131.921  0.00  0.00    +0.000 HD
ENDBRANCH  81  83
ENDBRANCH  80  81
ENDBRANCH  79  80
ENDBRANCH  18  79
BRANCH  14  85
ATOM     85  C   UNL     1      -4.042   5.603 133.637  0.00  0.00    +0.000 C 
BRANCH  85  86
ATOM     86  C   UNL     1      -2.753   6.177 133.432  0.00  0.00    +0.000 A 
ATOM     87  C   UNL     1      -2.446   7.500 133.578  0.00  0.00    +0.000 A 
ATOM     88  C   UNL     1      -1.334   7.923 132.901  0.00  0.00    +0.000 A 
ATOM     89  C   UNL     1      -0.422   7.035 132.382  0.00  0.00    +0.000 A 
ATOM     90  C   UNL     1      -0.738   5.716 132.340  0.00  0.00    +0.000 A 
ATOM     91  C   UNL     1      -1.873   5.296 132.910  0.00  0.00    +0.000 A 
ENDBRANCH  85  86
ENDBRANCH  14  85
TORSDOF 21
ENDMDL
MODEL 7
REMARK VINA RESULT:      -9.2      4.619      7.489
REMARK  Name = CHEMBL2369835
REMARK  21 active torsions:
REMARK  status: ('A' for Active; 'I' for Inactive)
REMARK    1  A    between atoms: C_2  and  C_4
REMARK    2  A    between atoms: C_4  and  N_5
REMARK    3  A    between atoms: C_6  and  C_8
REMARK    4  A    between atoms: C_8  and  C_9
REMARK    5  A    between atoms: C_8  and  N_16
REMARK    6  A    between atoms: C_9  and  C_10
REMARK    7  A    between atoms: C_10  and  C_11
REMARK    8  A    between atoms: C_11  and  N_12
REMARK    9  A    between atoms: C_17  and  C_19
REMARK   10  A    between atoms: C_24  and  C_26
REMARK   11  A    between atoms: C_35  and  C_36
REMARK   12  A    between atoms: C_36  and  C_37
REMARK   13  A    between atoms: C_40  and  O_41
REMARK   14  A    between atoms: C_47  and  C_48
REMARK   15  A    between atoms: C_48  and  C_49
REMARK   16  A    between atoms: C_58  and  C_59
REMARK   17  A    between atoms: C_59  and  C_60
REMARK   18  A    between atoms: C_60  and  C_61
REMARK   19  A    between atoms: C_61  and  O_63
REMARK   20  A    between atoms: C_67  and  C_68
REMARK   21  A    between atoms: C_68  and  C_69
REMARK                            x       y       z     vdW  Elec       q    Type
REMARK                         _______ _______ _______ _____ _____    ______ ____
ROOT
ATOM      1  C   UNL     1      -3.806   1.021 131.984  0.00  0.00    +0.000 C 
ATOM      2  C   UNL     1      -4.633  -1.294 132.459  0.00  0.00    +0.000 C 
ATOM      3  S   UNL     1      -5.576  -3.437 133.690  0.00  0.00    +0.000 S 
ATOM      4  S   UNL     1      -6.058  -5.702 135.209  0.00  0.00    +0.000 S 
ATOM      5  C   UNL     1      -6.460  -5.575 137.309  0.00  0.00    +0.000 C 
ATOM      6  C   UNL     1      -6.017  -5.956 138.749  0.00  0.00    +0.000 C 
ATOM      7  C   UNL     1      -5.909  -4.830 139.815  0.00  0.00    +0.000 C 
ATOM      8  O   UNL     1      -5.769  -5.092 141.011  0.00  0.00    +0.000 OA
ATOM      9  N   UNL     1      -5.895  -3.534 139.398  0.00  0.00    +0.000 N 
ATOM     10  C   UNL     1      -6.097  -3.079 138.041  0.00  0.00    +0.000 C 
ATOM     11  C   UNL     1      -4.734  -3.520 137.227  0.00  0.00    +0.000 C 
ATOM     12  O   UNL     1      -4.178  -4.639 137.215  0.00  0.00    +0.000 OA
ATOM     13  N   UNL     1      -4.257  -2.703 136.326  0.00  0.00    +0.000 N 
ATOM     14  C   UNL     1      -4.474  -1.320 136.317  0.00  0.00    +0.000 C 
ATOM     15  C   UNL     1      -5.963  -1.201 135.600  0.00  0.00    +0.000 C 
ATOM     16  O   UNL     1      -7.078  -1.655 135.880  0.00  0.00    +0.000 OA
ATOM     17  N   UNL     1      -6.110  -0.472 134.579  0.00  0.00    +0.000 N 
ATOM     18  C   UNL     1      -5.068   0.209 134.196  0.00  0.00    +0.000 C 
ATOM     19  C   UNL     1      -4.287   1.478 135.625  0.00  0.00    +0.000 C 
ATOM     20  O   UNL     1      -3.715   1.232 136.667  0.00  0.00    +0.000 OA
ATOM     21  N   UNL     1      -4.525   2.940 135.330  0.00  0.00    +0.000 N 
ATOM     22  C   UNL     1      -4.687   3.647 133.444  0.00  0.00    +0.000 C 
ATOM     23  C   UNL     1      -2.994   2.163 133.083  0.00  0.00    +0.000 C 
ATOM     24  O   UNL     1      -2.649   0.941 133.274  0.00  0.00    +0.000 OA
ATOM     25  N   UNL     1      -3.157   2.812 131.924  0.00  0.00    +0.000 N 
ATOM     26  H   UNL     1      -5.890  -2.773 140.092  0.00  0.00    +0.000 HD
ATOM     27  H   UNL     1      -3.437  -3.083 135.867  0.00  0.00    +0.000 HD
ATOM     28  H   UNL     1      -7.025  -0.167 134.346  0.00  0.00    +0.000 HD
ATOM     29  H   UNL     1      -3.499   3.237 135.565  0.00  0.00    +0.000 HD
ATOM     30  H   UNL     1      -2.647   3.306 130.734  0.00  0.00    +0.000 HD
ENDROOT
BRANCH   1  36
ATOM     31  C   UNL     1      -3.955   5.399 129.550  0.00  0.00    +0.000 C 
ATOM     32  C   UNL     1      -2.841   5.669 128.408  0.00  0.00    +0.000 C 
ATOM     33  C   UNL     1      -2.629   7.102 128.459  0.00  0.00    +0.000 C 
ATOM     34  C   UNL     1      -2.942   7.035 130.361  0.00  0.00    +0.000 C 
ATOM     35  N   UNL     1      -3.736   5.264 131.103  0.00  0.00    +0.000 N 
ATOM     36  C   UNL     1      -3.533   3.389 132.006  0.00  0.00    +0.000 C 
ATOM     37  O   UNL     1      -3.378   4.605 132.853  0.00  0.00    +0.000 OA
BRANCH  31  39
ATOM     38  N   UNL     1      -5.515   3.931 129.698  0.00  0.00    +0.000 N 
ATOM     39  C   UNL     1      -4.206   4.094 129.654  0.00  0.00    +0.000 C 
ATOM     40  O   UNL     1      -3.472   3.193 129.325  0.00  0.00    +0.000 OA
ATOM     41  H   UNL     1      -6.421   4.757 129.775  0.00  0.00    +0.000 HD
BRANCH  38  42
ATOM     42  C   UNL     1      -6.865   2.543 128.876  0.00  0.00    +0.000 C 
BRANCH  42  44
ATOM     43  N   UNL     1      -8.938   4.507 130.694  0.00  0.00    +0.000 N 
ATOM     44  C   UNL     1      -8.934   2.634 129.683  0.00  0.00    +0.000 C 
ATOM     45  O   UNL     1     -10.063   3.004 129.456  0.00  0.00    +0.000 OA
ATOM     46  H   UNL     1      -7.693   4.484 131.423  0.00  0.00    +0.000 HD
BRANCH  43  47
ATOM     47  C   UNL     1      -9.933   4.346 131.635  0.00  0.00    +0.000 C 
BRANCH  47  49
ATOM     48  N   UNL     1     -11.569   6.006 131.791  0.00  0.00    +0.000 N 
ATOM     49  C   UNL     1     -10.322   5.719 132.221  0.00  0.00    +0.000 C 
ATOM     50  O   UNL     1      -9.660   6.412 132.991  0.00  0.00    +0.000 OA
ATOM     51  H   UNL     1     -11.979   6.894 132.007  0.00  0.00    +0.000 HD
ATOM     52  H   UNL     1     -12.078   5.358 131.209  0.00  0.00    +0.000 HD
ENDBRANCH  47  49
ENDBRANCH  43  47
ENDBRANCH  42  44
BRANCH  42  53
ATOM     53  C   UNL     1      -6.416   0.783 128.996  0.00  0.00    +0.000 C 
BRANCH  53  54
ATOM     54  C   UNL     1      -7.043  -0.009 128.032  0.00  0.00    +0.000 C 
BRANCH  54  55
ATOM     55  C   UNL     1      -7.519  -0.942 128.932  0.00  0.00    +0.000 C 
BRANCH  55  56
ATOM     56  N   UNL     1      -6.388  -1.645 129.150  0.00  0.00    +0.000 NA
ATOM     57  C   UNL     1      -6.692  -2.751 129.649  0.00  0.00    +0.000 C 
ATOM     58  N   UNL     1      -7.722  -3.271 130.179  0.00  0.00    +0.000 N 
ATOM     59  N   UNL     1      -5.776  -3.582 129.833  0.00  0.00    +0.000 N 
ATOM     60  H   UNL     1      -8.461  -2.645 130.221  0.00  0.00    +0.000 HD
ATOM     61  H   UNL     1      -7.620  -4.140 130.658  0.00  0.00    +0.000 HD
ATOM     62  H   UNL     1      -4.814  -2.852 129.280  0.00  0.00    +0.000 HD
ATOM     63  H   UNL     1      -5.549  -4.656 130.004  0.00  0.00    +0.000 HD
ENDBRANCH  55  56
ENDBRANCH  54  55
ENDBRANCH  53  54
ENDBRANCH  42  53
ENDBRANCH  38  42
ENDBRANCH  31  39
ENDBRANCH   1  36
BRANCH  10  64
ATOM     64  C   UNL     1      -6.242  -1.653 138.145  0.00  0.00    +0.000 C 
BRANCH  64  65
ATOM     65  C   UNL     1      -7.034  -1.203 139.204  0.00  0.00    +0.000 A 
ATOM     66  C   UNL     1      -6.637  -0.282 140.067  0.00  0.00    +0.000 A 
ATOM     67  C   UNL     1      -7.406   0.429 140.968  0.00  0.00    +0.000 A 
ATOM     68  C   UNL     1      -8.681   0.295 141.102  0.00  0.00    +0.000 A 
ATOM     69  C   UNL     1      -9.027  -0.405 140.089  0.00  0.00    +0.000 A 
ATOM     70  C   UNL     1      -8.288  -1.394 139.232  0.00  0.00    +0.000 A 
BRANCH  68  71
ATOM     71  O   UNL     1      -9.703   0.698 141.808  0.00  0.00    +0.000 OA
ATOM     72  H   UNL     1     -10.294   1.091 141.177  0.00  0.00    +0.000 HD
ENDBRANCH  68  71
ENDBRANCH  64  65
ENDBRANCH  10  64
BRANCH  22  73
ATOM     73  C   UNL     1      -4.848   5.069 133.351  0.00  0.00    +0.000 C 
BRANCH  73  74
ATOM     74  C   UNL     1      -6.138   5.542 133.629  0.00  0.00    +0.000 C 
ATOM     75  N   UNL     1      -6.733   6.165 132.613  0.00  0.00    +0.000 N 
ATOM     76  O   UNL     1      -6.703   5.255 134.649  0.00  0.00    +0.000 OA
ATOM     77  H   UNL     1      -6.353   6.253 131.695  0.00  0.00    +0.000 HD
ATOM     78  H   UNL     1      -7.607   6.615 132.687  0.00  0.00    +0.000 HD
ENDBRANCH  73  74
ENDBRANCH  22  73
BRANCH  18  79
ATOM     79  C   UNL     1      -5.906   0.612 132.826  0.00  0.00    +0.000 C 
BRANCH  79  80
ATOM     80  C   UNL     1      -7.176   0.962 132.368  0.00  0.00    +0.000 C 
BRANCH  80  81
ATOM     81  C   UNL     1      -8.264  -0.280 132.204  0.00  0.00    +0.000 C 
ATOM     82  O   UNL     1      -8.214  -1.465 132.595  0.00  0.00    +0.000 OA
BRANCH  81  83
ATOM     83  O   UNL     1      -9.444   0.288 131.984  0.00  0.00    +0.000 OA
ATOM     84  H   UNL     1      -9.729   0.883 132.688  0.00  0.00    +0.000 HD
ENDBRANCH  81  83
ENDBRANCH  80  81
ENDBRANCH  79  80
ENDBRANCH  18  79
BRANCH  14  85
ATOM     85  C   UNL     1      -3.317  -0.848 135.557  0.00  0.00    +0.000 C 
BRANCH  85  86
ATOM     86  C   UNL     1      -2.051  -1.502 135.601  0.00  0.00    +0.000 A 
ATOM     87  C   UNL     1      -1.494  -2.213 134.576  0.00  0.00    +0.000 A 
ATOM     88  C   UNL     1      -0.547  -3.131 134.943  0.00  0.00    +0.000 A 
ATOM     89  C   UNL     1       0.027  -3.115 136.193  0.00  0.00    +0.000 A 
ATOM     90  C   UNL     1      -0.510  -2.324 137.155  0.00  0.00    +0.000 A 
ATOM     91  C   UNL     1      -1.507  -1.491 136.836  0.00  0.00    +0.000 A 
ENDBRANCH  85  86
ENDBRANCH  14  85
TORSDOF 21
ENDMDL
MODEL 8
REMARK VINA RESULT:      -8.9      3.351     10.973
REMARK  Name = CHEMBL2369835
REMARK  21 active torsions:
REMARK  status: ('A' for Active; 'I' for Inactive)
REMARK    1  A    between atoms: C_2  and  C_4
REMARK    2  A    between atoms: C_4  and  N_5
REMARK    3  A    between atoms: C_6  and  C_8
REMARK    4  A    between atoms: C_8  and  C_9
REMARK    5  A    between atoms: C_8  and  N_16
REMARK    6  A    between atoms: C_9  and  C_10
REMARK    7  A    between atoms: C_10  and  C_11
REMARK    8  A    between atoms: C_11  and  N_12
REMARK    9  A    between atoms: C_17  and  C_19
REMARK   10  A    between atoms: C_24  and  C_26
REMARK   11  A    between atoms: C_35  and  C_36
REMARK   12  A    between atoms: C_36  and  C_37
REMARK   13  A    between atoms: C_40  and  O_41
REMARK   14  A    between atoms: C_47  and  C_48
REMARK   15  A    between atoms: C_48  and  C_49
REMARK   16  A    between atoms: C_58  and  C_59
REMARK   17  A    between atoms: C_59  and  C_60
REMARK   18  A    between atoms: C_60  and  C_61
REMARK   19  A    between atoms: C_61  and  O_63
REMARK   20  A    between atoms: C_67  and  C_68
REMARK   21  A    between atoms: C_68  and  C_69
REMARK                            x       y       z     vdW  Elec       q    Type
REMARK                         _______ _______ _______ _____ _____    ______ ____
ROOT
ATOM      1  C   UNL     1      -3.322   4.753 135.437  0.00  0.00    +0.000 C 
ATOM      2  C   UNL     1      -2.917   4.368 132.998  0.00  0.00    +0.000 C 
ATOM      3  S   UNL     1      -3.279   3.935 130.413  0.00  0.00    +0.000 S 
ATOM      4  S   UNL     1      -3.803   2.971 127.871  0.00  0.00    +0.000 S 
ATOM      5  C   UNL     1      -5.808   2.760 127.146  0.00  0.00    +0.000 C 
ATOM      6  C   UNL     1      -6.913   1.801 126.621  0.00  0.00    +0.000 C 
ATOM      7  C   UNL     1      -8.322   1.865 127.274  0.00  0.00    +0.000 C 
ATOM      8  O   UNL     1      -9.288   1.288 126.770  0.00  0.00    +0.000 OA
ATOM      9  N   UNL     1      -8.463   2.512 128.464  0.00  0.00    +0.000 N 
ATOM     10  C   UNL     1      -7.436   3.269 129.143  0.00  0.00    +0.000 C 
ATOM     11  C   UNL     1      -6.365   2.147 129.699  0.00  0.00    +0.000 C 
ATOM     12  O   UNL     1      -5.841   1.208 129.064  0.00  0.00    +0.000 OA
ATOM     13  N   UNL     1      -5.821   2.337 130.873  0.00  0.00    +0.000 N 
ATOM     14  C   UNL     1      -6.393   3.099 131.897  0.00  0.00    +0.000 C 
ATOM     15  C   UNL     1      -5.958   4.641 131.474  0.00  0.00    +0.000 C 
ATOM     16  O   UNL     1      -6.156   5.333 130.469  0.00  0.00    +0.000 OA
ATOM     17  N   UNL     1      -5.340   5.367 132.303  0.00  0.00    +0.000 N 
ATOM     18  C   UNL     1      -5.149   4.862 133.489  0.00  0.00    +0.000 C 
ATOM     19  C   UNL     1      -6.869   4.300 134.481  0.00  0.00    +0.000 C 
ATOM     20  O   UNL     1      -7.652   3.401 134.250  0.00  0.00    +0.000 OA
ATOM     21  N   UNL     1      -7.216   5.197 135.645  0.00  0.00    +0.000 N 
ATOM     22  C   UNL     1      -5.805   6.177 136.709  0.00  0.00    +0.000 C 
ATOM     23  C   UNL     1      -4.689   4.207 136.441  0.00  0.00    +0.000 C 
ATOM     24  O   UNL     1      -4.332   3.348 135.556  0.00  0.00    +0.000 OA
ATOM     25  N   UNL     1      -3.915   4.954 137.238  0.00  0.00    +0.000 N 
ATOM     26  H   UNL     1      -9.399   2.621 128.879  0.00  0.00    +0.000 HD
ATOM     27  H   UNL     1      -5.159   1.605 131.105  0.00  0.00    +0.000 HD
ATOM     28  H   UNL     1      -5.354   6.350 132.170  0.00  0.00    +0.000 HD
ATOM     29  H   UNL     1      -7.433   4.367 136.324  0.00  0.00    +0.000 HD
ATOM     30  H   UNL     1      -2.975   5.064 138.250  0.00  0.00    +0.000 HD
ENDROOT
BRANCH   1  36
ATOM     31  C   UNL     1      -3.150   7.814 139.401  0.00  0.00    +0.000 C 
ATOM     32  C   UNL     1      -1.953   7.603 140.470  0.00  0.00    +0.000 C 
ATOM     33  C   UNL     1      -2.541   7.997 141.735  0.00  0.00    +0.000 C 
ATOM     34  C   UNL     1      -4.230   7.303 141.114  0.00  0.00    +0.000 C 
ATOM     35  N   UNL     1      -4.352   6.846 139.091  0.00  0.00    +0.000 N 
ATOM     36  C   UNL     1      -4.264   5.493 137.499  0.00  0.00    +0.000 C 
ATOM     37  O   UNL     1      -5.456   5.462 138.393  0.00  0.00    +0.000 OA
BRANCH  31  39
ATOM     38  N   UNL     1      -3.059   8.393 137.336  0.00  0.00    +0.000 N 
ATOM     39  C   UNL     1      -2.760   7.428 138.186  0.00  0.00    +0.000 C 
ATOM     40  O   UNL     1      -1.914   6.606 137.930  0.00  0.00    +0.000 OA
ATOM     41  H   UNL     1      -3.698   9.430 137.496  0.00  0.00    +0.000 HD
BRANCH  38  42
ATOM     42  C   UNL     1      -2.101   9.251 135.672  0.00  0.00    +0.000 C 
BRANCH  42  44
ATOM     43  N   UNL     1       0.800   7.531 135.968  0.00  0.00    +0.000 N 
ATOM     44  C   UNL     1       0.094   9.537 135.879  0.00  0.00    +0.000 C 
ATOM     45  O   UNL     1       1.134   9.643 135.272  0.00  0.00    +0.000 OA
ATOM     46  H   UNL     1      -0.114   6.907 136.895  0.00  0.00    +0.000 HD
BRANCH  43  47
ATOM     47  C   UNL     1       1.997   7.656 136.641  0.00  0.00    +0.000 C 
BRANCH  47  49
ATOM     48  N   UNL     1       1.780   5.487 137.480  0.00  0.00    +0.000 N 
ATOM     49  C   UNL     1       2.650   6.267 136.805  0.00  0.00    +0.000 C 
ATOM     50  O   UNL     1       3.733   5.899 136.357  0.00  0.00    +0.000 OA
ATOM     51  H   UNL     1       2.047   4.561 137.751  0.00  0.00    +0.000 HD
ATOM     52  H   UNL     1       0.878   5.841 137.763  0.00  0.00    +0.000 HD
ENDBRANCH  47  49
ENDBRANCH  43  47
ENDBRANCH  42  44
BRANCH  42  53
ATOM     53  C   UNL     1      -2.711  10.871 135.111  0.00  0.00    +0.000 C 
BRANCH  53  54
ATOM     54  C   UNL     1      -2.642  11.032 133.725  0.00  0.00    +0.000 C 
BRANCH  54  55
ATOM     55  C   UNL     1      -2.147  12.321 133.777  0.00  0.00    +0.000 C 
BRANCH  55  56
ATOM     56  N   UNL     1      -0.924  12.116 133.243  0.00  0.00    +0.000 NA
ATOM     57  C   UNL     1      -0.789  12.866 132.251  0.00  0.00    +0.000 C 
ATOM     58  N   UNL     1      -1.548  13.577 131.522  0.00  0.00    +0.000 N 
ATOM     59  N   UNL     1       0.324  12.885 131.680  0.00  0.00    +0.000 N 
ATOM     60  H   UNL     1      -2.475  13.512 131.797  0.00  0.00    +0.000 HD
ATOM     61  H   UNL     1      -1.179  13.942 130.671  0.00  0.00    +0.000 HD
ATOM     62  H   UNL     1       0.932  12.070 132.534  0.00  0.00    +0.000 HD
ATOM     63  H   UNL     1       0.977  13.461 130.991  0.00  0.00    +0.000 HD
ENDBRANCH  55  56
ENDBRANCH  54  55
ENDBRANCH  53  54
ENDBRANCH  42  53
ENDBRANCH  38  42
ENDBRANCH  31  39
ENDBRANCH   1  36
BRANCH  10  64
ATOM     64  C   UNL     1      -8.120   3.955 130.204  0.00  0.00    +0.000 C 
BRANCH  64  65
ATOM     65  C   UNL     1      -9.307   4.595 129.841  0.00  0.00    +0.000 A 
ATOM     66  C   UNL     1     -10.467   4.368 130.437  0.00  0.00    +0.000 A 
ATOM     67  C   UNL     1     -11.626   5.115 130.360  0.00  0.00    +0.000 A 
ATOM     68  C   UNL     1     -11.750   6.196 129.667  0.00  0.00    +0.000 A 
ATOM     69  C   UNL     1     -10.551   6.488 129.331  0.00  0.00    +0.000 A 
ATOM     70  C   UNL     1      -9.311   5.659 129.150  0.00  0.00    +0.000 A 
BRANCH  68  71
ATOM     71  O   UNL     1     -12.612   7.107 129.304  0.00  0.00    +0.000 OA
ATOM     72  H   UNL     1     -12.414   7.278 128.390  0.00  0.00    +0.000 HD
ENDBRANCH  68  71
ENDBRANCH  64  65
ENDBRANCH  10  64
BRANCH  22  73
ATOM     73  C   UNL     1      -6.310   6.933 137.818  0.00  0.00    +0.000 C 
BRANCH  73  74
ATOM     74  C   UNL     1      -6.825   8.196 137.493  0.00  0.00    +0.000 C 
ATOM     75  N   UNL     1      -8.156   8.268 137.485  0.00  0.00    +0.000 N 
ATOM     76  O   UNL     1      -6.111   9.156 137.395  0.00  0.00    +0.000 OA
ATOM     77  H   UNL     1      -8.770   7.526 137.744  0.00  0.00    +0.000 HD
ATOM     78  H   UNL     1      -8.655   9.069 137.199  0.00  0.00    +0.000 HD
ENDBRANCH  73  74
ENDBRANCH  22  73
BRANCH  18  79
ATOM     79  C   UNL     1      -4.160   6.150 133.814  0.00  0.00    +0.000 C 
BRANCH  79  80
ATOM     80  C   UNL     1      -3.908   7.472 133.449  0.00  0.00    +0.000 C 
BRANCH  80  81
ATOM     81  C   UNL     1      -2.798   7.700 132.238  0.00  0.00    +0.000 C 
ATOM     82  O   UNL     1      -1.553   7.605 132.246  0.00  0.00    +0.000 OA
BRANCH  81  83
ATOM     83  O   UNL     1      -3.460   7.553 131.097  0.00  0.00    +0.000 OA
ATOM     84  H   UNL     1      -3.526   8.363 130.577  0.00  0.00    +0.000 HD
ENDBRANCH  81  83
ENDBRANCH  80  81
ENDBRANCH  79  80
ENDBRANCH  18  79
BRANCH  14  85
ATOM     85  C   UNL     1      -5.762   2.518 133.081  0.00  0.00    +0.000 C 
BRANCH  85  86
ATOM     86  C   UNL     1      -5.285   1.175 133.116  0.00  0.00    +0.000 A 
ATOM     87  C   UNL     1      -3.997   0.788 132.875  0.00  0.00    +0.000 A 
ATOM     88  C   UNL     1      -3.837  -0.516 132.491  0.00  0.00    +0.000 A 
ATOM     89  C   UNL     1      -4.841  -1.443 132.647  0.00  0.00    +0.000 A 
ATOM     90  C   UNL     1      -6.086  -1.017 132.976  0.00  0.00    +0.000 A 
ATOM     91  C   UNL     1      -6.283   0.276 133.255  0.00  0.00    +0.000 A 
ENDBRANCH  85  86
ENDBRANCH  14  85
TORSDOF 21
ENDMDL
MODEL 9
REMARK VINA RESULT:      -8.7      3.939     11.488
REMARK  Name = CHEMBL2369835
REMARK  21 active torsions:
REMARK  status: ('A' for Active; 'I' for Inactive)
REMARK    1  A    between atoms: C_2  and  C_4
REMARK    2  A    between atoms: C_4  and  N_5
REMARK    3  A    between atoms: C_6  and  C_8
REMARK    4  A    between atoms: C_8  and  C_9
REMARK    5  A    between atoms: C_8  and  N_16
REMARK    6  A    between atoms: C_9  and  C_10
REMARK    7  A    between atoms: C_10  and  C_11
REMARK    8  A    between atoms: C_11  and  N_12
REMARK    9  A    between atoms: C_17  and  C_19
REMARK   10  A    between atoms: C_24  and  C_26
REMARK   11  A    between atoms: C_35  and  C_36
REMARK   12  A    between atoms: C_36  and  C_37
REMARK   13  A    between atoms: C_40  and  O_41
REMARK   14  A    between atoms: C_47  and  C_48
REMARK   15  A    between atoms: C_48  and  C_49
REMARK   16  A    between atoms: C_58  and  C_59
REMARK   17  A    between atoms: C_59  and  C_60
REMARK   18  A    between atoms: C_60  and  C_61
REMARK   19  A    between atoms: C_61  and  O_63
REMARK   20  A    between atoms: C_67  and  C_68
REMARK   21  A    between atoms: C_68  and  C_69
REMARK                            x       y       z     vdW  Elec       q    Type
REMARK                         _______ _______ _______ _____ _____    ______ ____
ROOT
ATOM      1  C   UNL     1      -2.296   6.256 136.456  0.00  0.00    +0.000 C 
ATOM      2  C   UNL     1      -1.927   5.827 134.018  0.00  0.00    +0.000 C 
ATOM      3  S   UNL     1      -2.326   5.430 131.433  0.00  0.00    +0.000 S 
ATOM      4  S   UNL     1      -2.942   4.522 128.891  0.00  0.00    +0.000 S 
ATOM      5  C   UNL     1      -4.956   4.521 128.161  0.00  0.00    +0.000 C 
ATOM      6  C   UNL     1      -6.154   3.683 127.634  0.00  0.00    +0.000 C 
ATOM      7  C   UNL     1      -7.550   3.895 128.283  0.00  0.00    +0.000 C 
ATOM      8  O   UNL     1      -8.570   3.421 127.778  0.00  0.00    +0.000 OA
ATOM      9  N   UNL     1      -7.626   4.554 129.472  0.00  0.00    +0.000 N 
ATOM     10  C   UNL     1      -6.527   5.201 130.153  0.00  0.00    +0.000 C 
ATOM     11  C   UNL     1      -5.580   3.974 130.714  0.00  0.00    +0.000 C 
ATOM     12  O   UNL     1      -5.157   2.984 130.081  0.00  0.00    +0.000 OA
ATOM     13  N   UNL     1      -5.023   4.107 131.888  0.00  0.00    +0.000 N 
ATOM     14  C   UNL     1      -5.515   4.927 132.910  0.00  0.00    +0.000 C 
ATOM     15  C   UNL     1      -4.919   6.414 132.486  0.00  0.00    +0.000 C 
ATOM     16  O   UNL     1      -5.041   7.121 131.480  0.00  0.00    +0.000 OA
ATOM     17  N   UNL     1      -4.230   7.073 133.316  0.00  0.00    +0.000 N 
ATOM     18  C   UNL     1      -4.096   6.552 134.503  0.00  0.00    +0.000 C 
ATOM     19  C   UNL     1      -5.869   6.175 135.491  0.00  0.00    +0.000 C 
ATOM     20  O   UNL     1      -6.740   5.363 135.259  0.00  0.00    +0.000 OA
ATOM     21  N   UNL     1      -6.122   7.105 136.653  0.00  0.00    +0.000 N 
ATOM     22  C   UNL     1      -4.619   7.934 137.719  0.00  0.00    +0.000 C 
ATOM     23  C   UNL     1      -3.715   5.857 137.457  0.00  0.00    +0.000 C 
ATOM     24  O   UNL     1      -3.448   4.964 136.574  0.00  0.00    +0.000 OA
ATOM     25  N   UNL     1      -2.869   6.520 138.255  0.00  0.00    +0.000 N 
ATOM     26  H   UNL     1      -8.547   4.762 129.885  0.00  0.00    +0.000 HD
ATOM     27  H   UNL     1      -4.441   3.311 132.123  0.00  0.00    +0.000 HD
ATOM     28  H   UNL     1      -4.142   8.052 133.182  0.00  0.00    +0.000 HD
ATOM     29  H   UNL     1      -6.427   6.303 137.332  0.00  0.00    +0.000 HD
ATOM     30  H   UNL     1      -1.925   6.533 139.270  0.00  0.00    +0.000 HD
ENDROOT
BRANCH   1  36
ATOM     31  C   UNL     1      -1.791   9.251 140.442  0.00  0.00    +0.000 C 
ATOM     32  C   UNL     1      -0.638   8.890 141.519  0.00  0.00    +0.000 C 
ATOM     33  C   UNL     1      -1.185   9.346 142.782  0.00  0.00    +0.000 C 
ATOM     34  C   UNL     1      -2.941   8.866 142.141  0.00  0.00    +0.000 C 
ATOM     35  N   UNL     1      -3.098   8.438 140.114  0.00  0.00    +0.000 N 
ATOM     36  C   UNL     1      -3.160   7.093 138.514  0.00  0.00    +0.000 C 
ATOM     37  O   UNL     1      -4.356   7.202 139.398  0.00  0.00    +0.000 OA
BRANCH  31  39
ATOM     38  N   UNL     1      -1.620   9.823 138.379  0.00  0.00    +0.000 N 
ATOM     39  C   UNL     1      -1.439   8.828 139.228  0.00  0.00    +0.000 C 
ATOM     40  O   UNL     1      -0.690   7.916 138.973  0.00  0.00    +0.000 OA
ATOM     41  H   UNL     1      -2.137  10.926 138.540  0.00  0.00    +0.000 HD
BRANCH  38  42
ATOM     42  C   UNL     1      -0.559  10.572 136.725  0.00  0.00    +0.000 C 
BRANCH  42  44
ATOM     43  N   UNL     1       2.006   8.362 136.782  0.00  0.00    +0.000 N 
ATOM     44  C   UNL     1       1.656  10.460 136.884  0.00  0.00    +0.000 C 
ATOM     45  O   UNL     1       2.687  10.440 136.254  0.00  0.00    +0.000 OA
ATOM     46  H   UNL     1       1.014   7.825 137.682  0.00  0.00    +0.000 HD
BRANCH  43  47
ATOM     47  C   UNL     1       3.219   8.222 137.423  0.00  0.00    +0.000 C 
BRANCH  47  49
ATOM     48  N   UNL     1       4.168   6.348 138.444  0.00  0.00    +0.000 N 
ATOM     49  C   UNL     1       3.740   6.781 137.240  0.00  0.00    +0.000 C 
ATOM     50  O   UNL     1       3.721   6.110 136.210  0.00  0.00    +0.000 OA
ATOM     51  H   UNL     1       4.611   5.454 138.524  0.00  0.00    +0.000 HD
ATOM     52  H   UNL     1       4.095   6.935 139.262  0.00  0.00    +0.000 HD
ENDBRANCH  47  49
ENDBRANCH  43  47
ENDBRANCH  42  44
BRANCH  42  53
ATOM     53  C   UNL     1      -0.885  12.297 136.245  0.00  0.00    +0.000 C 
BRANCH  53  54
ATOM     54  C   UNL     1      -2.044  12.442 135.479  0.00  0.00    +0.000 C 
BRANCH  54  55
ATOM     55  C   UNL     1      -1.626  13.594 134.843  0.00  0.00    +0.000 C 
BRANCH  55  56
ATOM     56  N   UNL     1      -1.245  13.074 133.657  0.00  0.00    +0.000 NA
ATOM     57  C   UNL     1      -1.859  13.668 132.743  0.00  0.00    +0.000 C 
ATOM     58  N   UNL     1      -2.859  14.445 132.658  0.00  0.00    +0.000 N 
ATOM     59  N   UNL     1      -1.564  13.385 131.561  0.00  0.00    +0.000 N 
ATOM     60  H   UNL     1      -3.260  14.613 133.525  0.00  0.00    +0.000 HD
ATOM     61  H   UNL     1      -3.239  14.630 131.754  0.00  0.00    +0.000 HD
ATOM     62  H   UNL     1      -0.574  12.551 131.861  0.00  0.00    +0.000 HD
ATOM     63  H   UNL     1      -1.622  13.729 130.506  0.00  0.00    +0.000 HD
ENDBRANCH  55  56
ENDBRANCH  54  55
ENDBRANCH  53  54
ENDBRANCH  42  53
ENDBRANCH  38  42
ENDBRANCH  31  39
ENDBRANCH   1  36
BRANCH  10  64
ATOM     64  C   UNL     1      -7.138   5.956 131.211  0.00  0.00    +0.000 C 
BRANCH  64  65
ATOM     65  C   UNL     1      -8.535   5.982 131.205  0.00  0.00    +0.000 A 
ATOM     66  C   UNL     1      -9.274   5.537 132.209  0.00  0.00    +0.000 A 
ATOM     67  C   UNL     1     -10.619   5.752 132.437  0.00  0.00    +0.000 A 
ATOM     68  C   UNL     1     -11.384   6.454 131.672  0.00  0.00    +0.000 A 
ATOM     69  C   UNL     1     -10.572   7.048 130.883  0.00  0.00    +0.000 A 
ATOM     70  C   UNL     1      -9.188   6.714 130.401  0.00  0.00    +0.000 A 
BRANCH  68  71
ATOM     71  O   UNL     1     -12.621   6.837 131.504  0.00  0.00    +0.000 OA
ATOM     72  H   UNL     1     -12.803   7.401 132.247  0.00  0.00    +0.000 HD
ENDBRANCH  68  71
ENDBRANCH  64  65
ENDBRANCH  10  64
BRANCH  22  73
ATOM     73  C   UNL     1      -5.045   8.740 138.826  0.00  0.00    +0.000 C 
BRANCH  73  74
ATOM     74  C   UNL     1      -5.699   9.930 138.479  0.00  0.00    +0.000 C 
ATOM     75  N   UNL     1      -5.015  11.040 138.752  0.00  0.00    +0.000 N 
ATOM     76  O   UNL     1      -6.717   9.922 137.842  0.00  0.00    +0.000 OA
ATOM     77  H   UNL     1      -4.086  11.065 139.115  0.00  0.00    +0.000 HD
ATOM     78  H   UNL     1      -5.382  11.948 138.635  0.00  0.00    +0.000 HD
ENDBRANCH  73  74
ENDBRANCH  22  73
BRANCH  18  79
ATOM     79  C   UNL     1      -2.979   7.730 134.829  0.00  0.00    +0.000 C 
BRANCH  79  80
ATOM     80  C   UNL     1      -2.713   9.086 134.642  0.00  0.00    +0.000 C 
BRANCH  80  81
ATOM     81  C   UNL     1      -1.831   9.481 133.294  0.00  0.00    +0.000 C 
ATOM     82  O   UNL     1      -0.614   9.727 133.159  0.00  0.00    +0.000 OA
BRANCH  81  83
ATOM     83  O   UNL     1      -2.531   9.046 132.253  0.00  0.00    +0.000 OA
ATOM     84  H   UNL     1      -2.369   8.122 132.031  0.00  0.00    +0.000 HD
ENDBRANCH  81  83
ENDBRANCH  80  81
ENDBRANCH  79  80
ENDBRANCH  18  79
BRANCH  14  85
ATOM     85  C   UNL     1      -4.951   4.285 134.096  0.00  0.00    +0.000 C 
BRANCH  85  86
ATOM     86  C   UNL     1      -4.624   2.898 134.136  0.00  0.00    +0.000 A 
ATOM     87  C   UNL     1      -3.388   2.370 133.890  0.00  0.00    +0.000 A 
ATOM     88  C   UNL     1      -3.375   1.055 133.514  0.00  0.00    +0.000 A 
ATOM     89  C   UNL     1      -4.474   0.244 133.682  0.00  0.00    +0.000 A 
ATOM     90  C   UNL     1      -5.663   0.807 134.015  0.00  0.00    +0.000 A 
ATOM     91  C   UNL     1      -5.714   2.115 134.288  0.00  0.00    +0.000 A 
ENDBRANCH  85  86
ENDBRANCH  14  85
TORSDOF 21
ENDMDL
