MODEL 1
REMARK VINA RESULT:     -10.3      0.000      0.000
REMARK  Name = CHEMBL68978
REMARK  8 active torsions:
REMARK  status: ('A' for Active; 'I' for Inactive)
REMARK    1  A    between atoms: C_1  and  O_2
REMARK    2  A    between atoms: O_2  and  C_3
REMARK    3  A    between atoms: C_5  and  O_6
REMARK    4  A    between atoms: O_6  and  C_7
REMARK    5  A    between atoms: N_10  and  C_11
REMARK    6  A    between atoms: C_11  and  C_12
REMARK    7  A    between atoms: C_22  and  C_23
REMARK    8  A    between atoms: C_28  and  N_29
REMARK                            x       y       z     vdW  Elec       q    Type
REMARK                         _______ _______ _______ _____ _____    ______ ____
ROOT
ATOM      1  C   UNL     1      -6.176   0.685 128.298  0.00  0.00    +0.000 A 
ATOM      2  C   UNL     1      -6.031  -0.215 127.182  0.00  0.00    +0.000 A 
ATOM      3  C   UNL     1      -6.375  -1.520 127.299  0.00  0.00    +0.000 A 
ATOM      4  C   UNL     1      -6.653  -1.802 128.595  0.00  0.00    +0.000 A 
ATOM      5  C   UNL     1      -6.864  -1.007 129.709  0.00  0.00    +0.000 A 
ATOM      6  C   UNL     1      -6.645   0.322 129.596  0.00  0.00    +0.000 A 
ENDROOT
BRANCH   6   7
ATOM      7  C   UNL     1      -6.832   1.053 130.937  0.00  0.00    +0.000 C 
ATOM      8  O   UNL     1      -6.062   0.757 131.863  0.00  0.00    +0.000 OA
ATOM      9  N   UNL     1      -7.779   2.111 131.095  0.00  0.00    +0.000 N 
ATOM     10  C   UNL     1      -7.233   3.490 131.234  0.00  0.00    +0.000 C 
ATOM     11  C   UNL     1      -8.191   4.440 131.963  0.00  0.00    +0.000 C 
ATOM     12  C   UNL     1      -9.772   4.767 131.108  0.00  0.00    +0.000 C 
ATOM     13  C   UNL     1     -10.167   3.017 131.194  0.00  0.00    +0.000 C 
ATOM     14  C   UNL     1      -9.142   2.026 130.539  0.00  0.00    +0.000 C 
BRANCH  12  15
ATOM     15  N   UNL     1     -10.405   6.447 130.629  0.00  0.00    +0.000 N 
ATOM     16  C   UNL     1      -9.447   6.450 129.662  0.00  0.00    +0.000 C 
ATOM     17  O   UNL     1      -8.167   6.503 129.938  0.00  0.00    +0.000 OA
ATOM     18  O   UNL     1      -9.829   6.121 128.448  0.00  0.00    +0.000 OA
ATOM     19  C   UNL     1     -10.226   7.384 128.012  0.00  0.00    +0.000 C 
ATOM     20  C   UNL     1     -11.620   7.253 128.490  0.00  0.00    +0.000 A 
ATOM     21  C   UNL     1     -12.895   6.932 127.997  0.00  0.00    +0.000 A 
ATOM     22  C   UNL     1     -13.887   7.917 127.838  0.00  0.00    +0.000 A 
ATOM     23  C   UNL     1     -13.539   9.093 128.417  0.00  0.00    +0.000 A 
ATOM     24  C   UNL     1     -12.342   8.929 129.407  0.00  0.00    +0.000 A 
ATOM     25  C   UNL     1     -11.698   7.464 129.767  0.00  0.00    +0.000 A 
ENDBRANCH  12  15
ENDBRANCH   6   7
BRANCH   1  27
ATOM     26  C   UNL     1      -4.495   2.188 128.333  0.00  0.00    +0.000 C 
ATOM     27  O   UNL     1      -5.799   1.934 127.893  0.00  0.00    +0.000 OA
ENDBRANCH   1  27
BRANCH   3  28
ATOM     28  O   UNL     1      -6.448  -2.399 126.265  0.00  0.00    +0.000 OA
BRANCH  28  29
ATOM     29  C   UNL     1      -7.677  -3.061 125.795  0.00  0.00    +0.000 C 
ATOM     30  C   UNL     1      -7.765  -3.507 124.317  0.00  0.00    +0.000 C 
ATOM     31  C   UNL     1      -8.073  -2.373 123.346  0.00  0.00    +0.000 C 
ATOM     32  N   UNL     1      -9.216  -1.501 123.828  0.00  0.00    +0.000 NA
ATOM     33  C   UNL     1      -9.285  -1.206 125.309  0.00  0.00    +0.000 C 
ATOM     34  C   UNL     1      -8.953  -2.352 126.220  0.00  0.00    +0.000 C 
BRANCH  32  35
ATOM     35  C   UNL     1      -9.257  -0.243 123.033  0.00  0.00    +0.000 C 
BRANCH  35  36
ATOM     36  C   UNL     1      -8.556   0.938 123.640  0.00  0.00    +0.000 A 
ATOM     37  C   UNL     1      -7.162   1.102 123.585  0.00  0.00    +0.000 A 
ATOM     38  C   UNL     1      -6.576   2.141 124.266  0.00  0.00    +0.000 A 
ATOM     39  N   UNL     1      -7.290   3.101 124.871  0.00  0.00    +0.000 NA
ATOM     40  C   UNL     1      -8.638   2.999 124.789  0.00  0.00    +0.000 A 
ATOM     41  C   UNL     1      -9.312   1.947 124.204  0.00  0.00    +0.000 A 
ENDBRANCH  35  36
ENDBRANCH  32  35
ENDBRANCH  28  29
ENDBRANCH   3  28
TORSDOF 7
ENDMDL
MODEL 2
REMARK VINA RESULT:     -10.2      4.197      7.082
REMARK  Name = CHEMBL68978
REMARK  8 active torsions:
REMARK  status: ('A' for Active; 'I' for Inactive)
REMARK    1  A    between atoms: C_1  and  O_2
REMARK    2  A    between atoms: O_2  and  C_3
REMARK    3  A    between atoms: C_5  and  O_6
REMARK    4  A    between atoms: O_6  and  C_7
REMARK    5  A    between atoms: N_10  and  C_11
REMARK    6  A    between atoms: C_11  and  C_12
REMARK    7  A    between atoms: C_22  and  C_23
REMARK    8  A    between atoms: C_28  and  N_29
REMARK                            x       y       z     vdW  Elec       q    Type
REMARK                         _______ _______ _______ _____ _____    ______ ____
ROOT
ATOM      1  C   UNL     1      -8.309   1.408 125.310  0.00  0.00    +0.000 A 
ATOM      2  C   UNL     1      -9.092   0.199 125.322  0.00  0.00    +0.000 A 
ATOM      3  C   UNL     1      -8.874  -0.773 124.404  0.00  0.00    +0.000 A 
ATOM      4  C   UNL     1      -8.009  -0.323 123.463  0.00  0.00    +0.000 A 
ATOM      5  C   UNL     1      -7.181   0.785 123.395  0.00  0.00    +0.000 A 
ATOM      6  C   UNL     1      -7.287   1.722 124.364  0.00  0.00    +0.000 A 
ENDROOT
BRANCH   6   7
ATOM      7  C   UNL     1      -6.371   2.929 124.100  0.00  0.00    +0.000 C 
ATOM      8  O   UNL     1      -6.384   3.420 122.961  0.00  0.00    +0.000 OA
ATOM      9  N   UNL     1      -5.611   3.543 125.142  0.00  0.00    +0.000 N 
ATOM     10  C   UNL     1      -6.059   4.888 125.603  0.00  0.00    +0.000 C 
ATOM     11  C   UNL     1      -4.931   5.705 126.244  0.00  0.00    +0.000 C 
ATOM     12  C   UNL     1      -4.241   5.011 127.787  0.00  0.00    +0.000 C 
ATOM     13  C   UNL     1      -3.744   3.537 126.889  0.00  0.00    +0.000 C 
ATOM     14  C   UNL     1      -4.876   2.747 126.143  0.00  0.00    +0.000 C 
BRANCH  12  15
ATOM     15  N   UNL     1      -4.165   5.894 129.419  0.00  0.00    +0.000 N 
ATOM     16  C   UNL     1      -4.433   4.691 129.998  0.00  0.00    +0.000 C 
ATOM     17  O   UNL     1      -5.586   4.083 129.857  0.00  0.00    +0.000 OA
ATOM     18  O   UNL     1      -3.408   4.022 130.477  0.00  0.00    +0.000 OA
ATOM     19  C   UNL     1      -3.376   4.589 131.750  0.00  0.00    +0.000 C 
ATOM     20  C   UNL     1      -2.477   5.702 131.373  0.00  0.00    +0.000 A 
ATOM     21  C   UNL     1      -1.117   6.047 131.432  0.00  0.00    +0.000 A 
ATOM     22  C   UNL     1      -0.650   7.031 132.323  0.00  0.00    +0.000 A 
ATOM     23  C   UNL     1      -1.664   7.721 132.902  0.00  0.00    +0.000 A 
ATOM     24  C   UNL     1      -3.020   7.508 132.157  0.00  0.00    +0.000 A 
ATOM     25  C   UNL     1      -3.129   6.645 130.767  0.00  0.00    +0.000 A 
ENDBRANCH  12  15
ENDBRANCH   6   7
BRANCH   1  27
ATOM     26  C   UNL     1      -8.253   1.617 127.556  0.00  0.00    +0.000 C 
ATOM     27  O   UNL     1      -8.706   2.188 126.360  0.00  0.00    +0.000 OA
ENDBRANCH   1  27
BRANCH   3  28
ATOM     28  O   UNL     1      -9.428  -2.013 124.441  0.00  0.00    +0.000 OA
BRANCH  28  29
ATOM     29  C   UNL     1      -8.847  -3.185 125.118  0.00  0.00    +0.000 C 
ATOM     30  C   UNL     1      -9.080  -3.361 126.637  0.00  0.00    +0.000 C 
ATOM     31  C   UNL     1      -8.184  -2.485 127.506  0.00  0.00    +0.000 C 
ATOM     32  N   UNL     1      -6.734  -2.533 127.064  0.00  0.00    +0.000 NA
ATOM     33  C   UNL     1      -6.464  -2.570 125.577  0.00  0.00    +0.000 C 
ATOM     34  C   UNL     1      -7.388  -3.432 124.767  0.00  0.00    +0.000 C 
BRANCH  32  35
ATOM     35  C   UNL     1      -5.974  -1.431 127.715  0.00  0.00    +0.000 C 
BRANCH  35  36
ATOM     36  C   UNL     1      -4.946  -1.851 128.724  0.00  0.00    +0.000 A 
ATOM     37  C   UNL     1      -4.577  -1.042 129.812  0.00  0.00    +0.000 A 
ATOM     38  C   UNL     1      -3.543  -1.434 130.626  0.00  0.00    +0.000 A 
ATOM     39  N   UNL     1      -2.954  -2.635 130.518  0.00  0.00    +0.000 NA
ATOM     40  C   UNL     1      -3.424  -3.457 129.550  0.00  0.00    +0.000 A 
ATOM     41  C   UNL     1      -4.395  -3.115 128.632  0.00  0.00    +0.000 A 
ENDBRANCH  35  36
ENDBRANCH  32  35
ENDBRANCH  28  29
ENDBRANCH   3  28
TORSDOF 7
ENDMDL
MODEL 3
REMARK VINA RESULT:      -9.9      2.793      4.181
REMARK  Name = CHEMBL68978
REMARK  8 active torsions:
REMARK  status: ('A' for Active; 'I' for Inactive)
REMARK    1  A    between atoms: C_1  and  O_2
REMARK    2  A    between atoms: O_2  and  C_3
REMARK    3  A    between atoms: C_5  and  O_6
REMARK    4  A    between atoms: O_6  and  C_7
REMARK    5  A    between atoms: N_10  and  C_11
REMARK    6  A    between atoms: C_11  and  C_12
REMARK    7  A    between atoms: C_22  and  C_23
REMARK    8  A    between atoms: C_28  and  N_29
REMARK                            x       y       z     vdW  Elec       q    Type
REMARK                         _______ _______ _______ _____ _____    ______ ____
ROOT
ATOM      1  C   UNL     1      -6.890   1.406 131.380  0.00  0.00    +0.000 A 
ATOM      2  C   UNL     1      -6.764  -0.027 131.295  0.00  0.00    +0.000 A 
ATOM      3  C   UNL     1      -5.704  -0.660 131.852  0.00  0.00    +0.000 A 
ATOM      4  C   UNL     1      -4.797   0.255 132.271  0.00  0.00    +0.000 A 
ATOM      5  C   UNL     1      -4.851   1.629 132.437  0.00  0.00    +0.000 A 
ATOM      6  C   UNL     1      -5.950   2.283 132.000  0.00  0.00    +0.000 A 
ENDROOT
BRANCH   6   7
ATOM      7  C   UNL     1      -5.820   3.806 132.171  0.00  0.00    +0.000 C 
ATOM      8  O   UNL     1      -4.692   4.261 132.419  0.00  0.00    +0.000 OA
ATOM      9  N   UNL     1      -6.921   4.688 131.949  0.00  0.00    +0.000 N 
ATOM     10  C   UNL     1      -6.869   5.538 130.726  0.00  0.00    +0.000 C 
ATOM     11  C   UNL     1      -7.714   6.812 130.848  0.00  0.00    +0.000 C 
ATOM     12  C   UNL     1      -9.513   6.544 131.021  0.00  0.00    +0.000 C 
ATOM     13  C   UNL     1      -9.221   5.634 132.542  0.00  0.00    +0.000 C 
ATOM     14  C   UNL     1      -8.275   4.386 132.449  0.00  0.00    +0.000 C 
BRANCH  12  15
ATOM     15  N   UNL     1     -10.814   7.245 129.895  0.00  0.00    +0.000 N 
ATOM     16  C   UNL     1     -11.685   6.379 130.484  0.00  0.00    +0.000 C 
ATOM     17  O   UNL     1     -11.597   5.080 130.333  0.00  0.00    +0.000 OA
ATOM     18  O   UNL     1     -12.452   6.865 131.435  0.00  0.00    +0.000 OA
ATOM     19  C   UNL     1     -13.499   7.319 130.634  0.00  0.00    +0.000 C 
ATOM     20  C   UNL     1     -12.918   8.662 130.412  0.00  0.00    +0.000 A 
ATOM     21  C   UNL     1     -13.029   9.972 130.907  0.00  0.00    +0.000 A 
ATOM     22  C   UNL     1     -13.640  10.989 130.152  0.00  0.00    +0.000 A 
ATOM     23  C   UNL     1     -13.873  10.608 128.872  0.00  0.00    +0.000 A 
ATOM     24  C   UNL     1     -13.073   9.324 128.487  0.00  0.00    +0.000 A 
ATOM     25  C   UNL     1     -11.993   8.627 129.505  0.00  0.00    +0.000 A 
ENDBRANCH  12  15
ENDBRANCH   6   7
BRANCH   1  27
ATOM     26  C   UNL     1      -7.879   1.793 129.389  0.00  0.00    +0.000 C 
ATOM     27  O   UNL     1      -8.061   1.771 130.777  0.00  0.00    +0.000 OA
ENDBRANCH   1  27
BRANCH   3  28
ATOM     28  O   UNL     1      -5.587  -2.008 131.984  0.00  0.00    +0.000 OA
BRANCH  28  29
ATOM     29  C   UNL     1      -5.101  -2.926 130.941  0.00  0.00    +0.000 C 
ATOM     30  C   UNL     1      -4.346  -2.340 129.724  0.00  0.00    +0.000 C 
ATOM     31  C   UNL     1      -5.257  -1.718 128.672  0.00  0.00    +0.000 C 
ATOM     32  N   UNL     1      -6.435  -2.613 128.334  0.00  0.00    +0.000 NA
ATOM     33  C   UNL     1      -7.079  -3.370 129.472  0.00  0.00    +0.000 C 
ATOM     34  C   UNL     1      -6.137  -3.944 130.490  0.00  0.00    +0.000 C 
BRANCH  32  35
ATOM     35  C   UNL     1      -7.450  -1.837 127.570  0.00  0.00    +0.000 C 
BRANCH  35  36
ATOM     36  C   UNL     1      -7.762  -2.346 126.192  0.00  0.00    +0.000 A 
ATOM     37  C   UNL     1      -6.808  -2.376 125.162  0.00  0.00    +0.000 A 
ATOM     38  C   UNL     1      -7.194  -2.738 123.894  0.00  0.00    +0.000 A 
ATOM     39  N   UNL     1      -8.420  -3.207 123.618  0.00  0.00    +0.000 NA
ATOM     40  C   UNL     1      -9.281  -3.304 124.659  0.00  0.00    +0.000 A 
ATOM     41  C   UNL     1      -9.011  -2.882 125.944  0.00  0.00    +0.000 A 
ENDBRANCH  35  36
ENDBRANCH  32  35
ENDBRANCH  28  29
ENDBRANCH   3  28
TORSDOF 7
ENDMDL
MODEL 4
REMARK VINA RESULT:      -9.8      4.217      5.618
REMARK  Name = CHEMBL68978
REMARK  8 active torsions:
REMARK  status: ('A' for Active; 'I' for Inactive)
REMARK    1  A    between atoms: C_1  and  O_2
REMARK    2  A    between atoms: O_2  and  C_3
REMARK    3  A    between atoms: C_5  and  O_6
REMARK    4  A    between atoms: O_6  and  C_7
REMARK    5  A    between atoms: N_10  and  C_11
REMARK    6  A    between atoms: C_11  and  C_12
REMARK    7  A    between atoms: C_22  and  C_23
REMARK    8  A    between atoms: C_28  and  N_29
REMARK                            x       y       z     vdW  Elec       q    Type
REMARK                         _______ _______ _______ _____ _____    ______ ____
ROOT
ATOM      1  C   UNL     1      -7.514  -1.302 128.401  0.00  0.00    +0.000 A 
ATOM      2  C   UNL     1      -8.069  -1.652 127.118  0.00  0.00    +0.000 A 
ATOM      3  C   UNL     1      -8.739  -2.816 126.951  0.00  0.00    +0.000 A 
ATOM      4  C   UNL     1      -8.607  -3.580 128.062  0.00  0.00    +0.000 A 
ATOM      5  C   UNL     1      -8.144  -3.314 129.340  0.00  0.00    +0.000 A 
ATOM      6  C   UNL     1      -7.574  -2.111 129.576  0.00  0.00    +0.000 A 
ENDROOT
BRANCH   6   7
ATOM      7  C   UNL     1      -7.030  -2.003 131.010  0.00  0.00    +0.000 C 
ATOM      8  O   UNL     1      -6.644  -3.048 131.557  0.00  0.00    +0.000 OA
ATOM      9  N   UNL     1      -6.862  -0.743 131.662  0.00  0.00    +0.000 N 
ATOM     10  C   UNL     1      -5.465  -0.263 131.856  0.00  0.00    +0.000 C 
ATOM     11  C   UNL     1      -5.330   0.725 133.021  0.00  0.00    +0.000 C 
ATOM     12  C   UNL     1      -6.225   2.305 132.815  0.00  0.00    +0.000 C 
ATOM     13  C   UNL     1      -7.774   1.401 132.713  0.00  0.00    +0.000 C 
ATOM     14  C   UNL     1      -7.888   0.314 131.587  0.00  0.00    +0.000 C 
BRANCH  12  15
ATOM     15  N   UNL     1      -5.451   3.992 132.885  0.00  0.00    +0.000 N 
ATOM     16  C   UNL     1      -5.362   3.814 134.232  0.00  0.00    +0.000 C 
ATOM     17  O   UNL     1      -6.418   3.760 135.006  0.00  0.00    +0.000 OA
ATOM     18  O   UNL     1      -4.199   3.420 134.702  0.00  0.00    +0.000 OA
ATOM     19  C   UNL     1      -3.613   4.675 134.864  0.00  0.00    +0.000 C 
ATOM     20  C   UNL     1      -3.046   4.729 133.498  0.00  0.00    +0.000 A 
ATOM     21  C   UNL     1      -1.831   4.498 132.833  0.00  0.00    +0.000 A 
ATOM     22  C   UNL     1      -1.057   5.561 132.333  0.00  0.00    +0.000 A 
ATOM     23  C   UNL     1      -1.724   6.742 132.369  0.00  0.00    +0.000 A 
ATOM     24  C   UNL     1      -3.258   6.543 132.584  0.00  0.00    +0.000 A 
ATOM     25  C   UNL     1      -3.951   5.058 132.629  0.00  0.00    +0.000 A 
ENDBRANCH  12  15
ENDBRANCH   6   7
BRANCH   1  27
ATOM     26  C   UNL     1      -5.560  -0.220 128.083  0.00  0.00    +0.000 C 
ATOM     27  O   UNL     1      -6.936  -0.069 128.298  0.00  0.00    +0.000 OA
ENDBRANCH   1  27
BRANCH   3  28
ATOM     28  O   UNL     1      -9.449  -3.151 125.841  0.00  0.00    +0.000 OA
BRANCH  28  29
ATOM     29  C   UNL     1      -8.882  -3.721 124.607  0.00  0.00    +0.000 C 
ATOM     30  C   UNL     1      -7.345  -3.841 124.478  0.00  0.00    +0.000 C 
ATOM     31  C   UNL     1      -6.651  -2.531 124.125  0.00  0.00    +0.000 C 
ATOM     32  N   UNL     1      -7.341  -1.805 122.986  0.00  0.00    +0.000 NA
ATOM     33  C   UNL     1      -8.852  -1.837 122.959  0.00  0.00    +0.000 C 
ATOM     34  C   UNL     1      -9.485  -3.145 123.335  0.00  0.00    +0.000 C 
BRANCH  32  35
ATOM     35  C   UNL     1      -6.836  -0.407 122.903  0.00  0.00    +0.000 C 
BRANCH  35  36
ATOM     36  C   UNL     1      -7.595   0.611 123.705  0.00  0.00    +0.000 A 
ATOM     37  C   UNL     1      -7.138   1.093 124.942  0.00  0.00    +0.000 A 
ATOM     38  C   UNL     1      -7.940   1.930 125.680  0.00  0.00    +0.000 A 
ATOM     39  N   UNL     1      -9.091   2.429 125.206  0.00  0.00    +0.000 NA
ATOM     40  C   UNL     1      -9.442   2.062 123.950  0.00  0.00    +0.000 A 
ATOM     41  C   UNL     1      -8.746   1.159 123.172  0.00  0.00    +0.000 A 
ENDBRANCH  35  36
ENDBRANCH  32  35
ENDBRANCH  28  29
ENDBRANCH   3  28
TORSDOF 7
ENDMDL
MODEL 5
REMARK VINA RESULT:      -9.8      1.691      2.281
REMARK  Name = CHEMBL68978
REMARK  8 active torsions:
REMARK  status: ('A' for Active; 'I' for Inactive)
REMARK    1  A    between atoms: C_1  and  O_2
REMARK    2  A    between atoms: O_2  and  C_3
REMARK    3  A    between atoms: C_5  and  O_6
REMARK    4  A    between atoms: O_6  and  C_7
REMARK    5  A    between atoms: N_10  and  C_11
REMARK    6  A    between atoms: C_11  and  C_12
REMARK    7  A    between atoms: C_22  and  C_23
REMARK    8  A    between atoms: C_28  and  N_29
REMARK                            x       y       z     vdW  Elec       q    Type
REMARK                         _______ _______ _______ _____ _____    ______ ____
ROOT
ATOM      1  C   UNL     1      -6.319  -1.567 129.044  0.00  0.00    +0.000 A 
ATOM      2  C   UNL     1      -6.728  -2.541 128.065  0.00  0.00    +0.000 A 
ATOM      3  C   UNL     1      -7.483  -2.175 127.001  0.00  0.00    +0.000 A 
ATOM      4  C   UNL     1      -7.891  -0.892 127.154  0.00  0.00    +0.000 A 
ATOM      5  C   UNL     1      -7.515   0.121 128.021  0.00  0.00    +0.000 A 
ATOM      6  C   UNL     1      -6.665  -0.182 129.028  0.00  0.00    +0.000 A 
ENDROOT
BRANCH   6   7
ATOM      7  C   UNL     1      -6.417   1.020 129.953  0.00  0.00    +0.000 C 
ATOM      8  O   UNL     1      -5.240   1.291 130.238  0.00  0.00    +0.000 OA
ATOM      9  N   UNL     1      -7.479   1.871 130.388  0.00  0.00    +0.000 N 
ATOM     10  C   UNL     1      -7.531   3.240 129.803  0.00  0.00    +0.000 C 
ATOM     11  C   UNL     1      -8.270   4.244 130.696  0.00  0.00    +0.000 C 
ATOM     12  C   UNL     1     -10.045   3.900 130.959  0.00  0.00    +0.000 C 
ATOM     13  C   UNL     1      -9.617   2.327 131.713  0.00  0.00    +0.000 C 
ATOM     14  C   UNL     1      -8.774   1.330 130.843  0.00  0.00    +0.000 C 
BRANCH  12  15
ATOM     15  N   UNL     1     -11.433   5.072 130.569  0.00  0.00    +0.000 N 
ATOM     16  C   UNL     1     -10.668   6.047 131.132  0.00  0.00    +0.000 C 
ATOM     17  O   UNL     1     -10.390   6.073 132.412  0.00  0.00    +0.000 OA
ATOM     18  O   UNL     1      -9.985   6.813 130.310  0.00  0.00    +0.000 OA
ATOM     19  C   UNL     1     -10.967   7.771 130.066  0.00  0.00    +0.000 C 
ATOM     20  C   UNL     1     -11.559   7.058 128.913  0.00  0.00    +0.000 A 
ATOM     21  C   UNL     1     -11.518   7.070 127.509  0.00  0.00    +0.000 A 
ATOM     22  C   UNL     1     -12.603   7.546 126.750  0.00  0.00    +0.000 A 
ATOM     23  C   UNL     1     -13.709   7.749 127.508  0.00  0.00    +0.000 A 
ATOM     24  C   UNL     1     -13.602   7.053 128.902  0.00  0.00    +0.000 A 
ATOM     25  C   UNL     1     -12.334   6.095 129.307  0.00  0.00    +0.000 A 
ENDBRANCH  12  15
ENDBRANCH   6   7
BRANCH   1  27
ATOM     26  C   UNL     1      -4.225  -2.275 129.498  0.00  0.00    +0.000 C 
ATOM     27  O   UNL     1      -5.540  -2.195 129.974  0.00  0.00    +0.000 OA
ENDBRANCH   1  27
BRANCH   3  28
ATOM     28  O   UNL     1      -7.764  -2.973 125.938  0.00  0.00    +0.000 OA
BRANCH  28  29
ATOM     29  C   UNL     1      -7.245  -2.786 124.572  0.00  0.00    +0.000 C 
ATOM     30  C   UNL     1      -6.008  -1.881 124.362  0.00  0.00    +0.000 C 
ATOM     31  C   UNL     1      -6.323  -0.390 124.385  0.00  0.00    +0.000 C 
ATOM     32  N   UNL     1      -7.530  -0.045 123.533  0.00  0.00    +0.000 NA
ATOM     33  C   UNL     1      -8.689  -1.016 123.550  0.00  0.00    +0.000 C 
ATOM     34  C   UNL     1      -8.322  -2.471 123.546  0.00  0.00    +0.000 C 
BRANCH  32  35
ATOM     35  C   UNL     1      -7.989   1.335 123.847  0.00  0.00    +0.000 C 
BRANCH  35  36
ATOM     36  C   UNL     1      -7.027   2.437 123.510  0.00  0.00    +0.000 A 
ATOM     37  C   UNL     1      -6.347   3.176 124.493  0.00  0.00    +0.000 A 
ATOM     38  C   UNL     1      -5.577   4.251 124.119  0.00  0.00    +0.000 A 
ATOM     39  N   UNL     1      -5.324   4.545 122.835  0.00  0.00    +0.000 NA
ATOM     40  C   UNL     1      -5.876   3.731 121.904  0.00  0.00    +0.000 A 
ATOM     41  C   UNL     1      -6.732   2.686 122.183  0.00  0.00    +0.000 A 
ENDBRANCH  35  36
ENDBRANCH  32  35
ENDBRANCH  28  29
ENDBRANCH   3  28
TORSDOF 7
ENDMDL
MODEL 6
REMARK VINA RESULT:      -9.5      2.373      7.930
REMARK  Name = CHEMBL68978
REMARK  8 active torsions:
REMARK  status: ('A' for Active; 'I' for Inactive)
REMARK    1  A    between atoms: C_1  and  O_2
REMARK    2  A    between atoms: O_2  and  C_3
REMARK    3  A    between atoms: C_5  and  O_6
REMARK    4  A    between atoms: O_6  and  C_7
REMARK    5  A    between atoms: N_10  and  C_11
REMARK    6  A    between atoms: C_11  and  C_12
REMARK    7  A    between atoms: C_22  and  C_23
REMARK    8  A    between atoms: C_28  and  N_29
REMARK                            x       y       z     vdW  Elec       q    Type
REMARK                         _______ _______ _______ _____ _____    ______ ____
ROOT
ATOM      1  C   UNL     1      -5.960  -1.179 131.104  0.00  0.00    +0.000 A 
ATOM      2  C   UNL     1      -6.064  -0.299 132.240  0.00  0.00    +0.000 A 
ATOM      3  C   UNL     1      -7.193   0.418 132.455  0.00  0.00    +0.000 A 
ATOM      4  C   UNL     1      -8.016   0.301 131.386  0.00  0.00    +0.000 A 
ATOM      5  C   UNL     1      -8.024  -0.545 130.289  0.00  0.00    +0.000 A 
ATOM      6  C   UNL     1      -6.965  -1.365 130.107  0.00  0.00    +0.000 A 
ENDROOT
BRANCH   6   7
ATOM      7  C   UNL     1      -7.079  -2.172 128.803  0.00  0.00    +0.000 C 
ATOM      8  O   UNL     1      -7.398  -3.367 128.895  0.00  0.00    +0.000 OA
ATOM      9  N   UNL     1      -6.935  -1.560 127.520  0.00  0.00    +0.000 N 
ATOM     10  C   UNL     1      -8.170  -1.412 126.700  0.00  0.00    +0.000 C 
ATOM     11  C   UNL     1      -7.880  -1.318 125.197  0.00  0.00    +0.000 C 
ATOM     12  C   UNL     1      -6.927   0.151 124.674  0.00  0.00    +0.000 C 
ATOM     13  C   UNL     1      -5.563  -0.377 125.716  0.00  0.00    +0.000 C 
ATOM     14  C   UNL     1      -5.872  -0.576 127.241  0.00  0.00    +0.000 C 
BRANCH  12  15
ATOM     15  N   UNL     1      -7.482   1.396 123.412  0.00  0.00    +0.000 N 
ATOM     16  C   UNL     1      -7.594   2.280 124.442  0.00  0.00    +0.000 C 
ATOM     17  O   UNL     1      -8.493   2.150 125.386  0.00  0.00    +0.000 OA
ATOM     18  O   UNL     1      -6.595   3.117 124.616  0.00  0.00    +0.000 OA
ATOM     19  C   UNL     1      -7.024   4.123 123.751  0.00  0.00    +0.000 C 
ATOM     20  C   UNL     1      -6.351   3.563 122.558  0.00  0.00    +0.000 A 
ATOM     21  C   UNL     1      -5.174   3.737 121.812  0.00  0.00    +0.000 A 
ATOM     22  C   UNL     1      -5.198   4.325 120.535  0.00  0.00    +0.000 A 
ATOM     23  C   UNL     1      -6.460   4.468 120.060  0.00  0.00    +0.000 A 
ATOM     24  C   UNL     1      -7.491   3.613 120.864  0.00  0.00    +0.000 A 
ATOM     25  C   UNL     1      -7.033   2.582 122.054  0.00  0.00    +0.000 A 
ENDBRANCH  12  15
ENDBRANCH   6   7
BRANCH   1  27
ATOM     26  C   UNL     1      -4.334  -1.905 132.488  0.00  0.00    +0.000 C 
ATOM     27  O   UNL     1      -4.746  -1.803 131.154  0.00  0.00    +0.000 OA
ENDBRANCH   1  27
BRANCH   3  28
ATOM     28  O   UNL     1      -7.458   1.128 133.583  0.00  0.00    +0.000 OA
BRANCH  28  29
ATOM     29  C   UNL     1      -7.243   2.576 133.748  0.00  0.00    +0.000 C 
ATOM     30  C   UNL     1      -8.466   3.487 134.005  0.00  0.00    +0.000 C 
ATOM     31  C   UNL     1      -9.273   3.807 132.753  0.00  0.00    +0.000 C 
ATOM     32  N   UNL     1      -8.388   4.223 131.592  0.00  0.00    +0.000 NA
ATOM     33  C   UNL     1      -7.077   3.491 131.424  0.00  0.00    +0.000 C 
ATOM     34  C   UNL     1      -6.333   3.183 132.691  0.00  0.00    +0.000 C 
BRANCH  32  35
ATOM     35  C   UNL     1      -9.175   4.201 130.329  0.00  0.00    +0.000 C 
BRANCH  35  36
ATOM     36  C   UNL     1     -10.056   5.392 130.085  0.00  0.00    +0.000 A 
ATOM     37  C   UNL     1     -11.456   5.330 130.176  0.00  0.00    +0.000 A 
ATOM     38  C   UNL     1     -12.207   6.424 129.820  0.00  0.00    +0.000 A 
ATOM     39  N   UNL     1     -11.657   7.611 129.524  0.00  0.00    +0.000 NA
ATOM     40  C   UNL     1     -10.306   7.686 129.582  0.00  0.00    +0.000 A 
ATOM     41  C   UNL     1      -9.470   6.620 129.842  0.00  0.00    +0.000 A 
ENDBRANCH  35  36
ENDBRANCH  32  35
ENDBRANCH  28  29
ENDBRANCH   3  28
TORSDOF 7
ENDMDL
MODEL 7
REMARK VINA RESULT:      -9.5      2.694      8.919
REMARK  Name = CHEMBL68978
REMARK  8 active torsions:
REMARK  status: ('A' for Active; 'I' for Inactive)
REMARK    1  A    between atoms: C_1  and  O_2
REMARK    2  A    between atoms: O_2  and  C_3
REMARK    3  A    between atoms: C_5  and  O_6
REMARK    4  A    between atoms: O_6  and  C_7
REMARK    5  A    between atoms: N_10  and  C_11
REMARK    6  A    between atoms: C_11  and  C_12
REMARK    7  A    between atoms: C_22  and  C_23
REMARK    8  A    between atoms: C_28  and  N_29
REMARK                            x       y       z     vdW  Elec       q    Type
REMARK                         _______ _______ _______ _____ _____    ______ ____
ROOT
ATOM      1  C   UNL     1      -4.985   6.468 130.637  0.00  0.00    +0.000 A 
ATOM      2  C   UNL     1      -5.624   6.463 131.928  0.00  0.00    +0.000 A 
ATOM      3  C   UNL     1      -5.469   5.413 132.770  0.00  0.00    +0.000 A 
ATOM      4  C   UNL     1      -4.833   4.405 132.127  0.00  0.00    +0.000 A 
ATOM      5  C   UNL     1      -4.149   4.335 130.924  0.00  0.00    +0.000 A 
ATOM      6  C   UNL     1      -4.182   5.412 130.108  0.00  0.00    +0.000 A 
ENDROOT
BRANCH   6   7
ATOM      7  C   UNL     1      -3.457   5.149 128.778  0.00  0.00    +0.000 C 
ATOM      8  O   UNL     1      -2.342   5.670 128.619  0.00  0.00    +0.000 OA
ATOM      9  N   UNL     1      -3.980   4.252 127.796  0.00  0.00    +0.000 N 
ATOM     10  C   UNL     1      -3.270   2.954 127.620  0.00  0.00    +0.000 C 
ATOM     11  C   UNL     1      -3.487   2.338 126.233  0.00  0.00    +0.000 C 
ATOM     12  C   UNL     1      -5.208   1.858 125.850  0.00  0.00    +0.000 C 
ATOM     13  C   UNL     1      -5.718   3.569 126.050  0.00  0.00    +0.000 C 
ATOM     14  C   UNL     1      -5.409   4.243 127.433  0.00  0.00    +0.000 C 
BRANCH  12  15
ATOM     15  N   UNL     1      -5.761   0.155 125.356  0.00  0.00    +0.000 N 
ATOM     16  C   UNL     1      -6.392   0.091 126.561  0.00  0.00    +0.000 C 
ATOM     17  O   UNL     1      -5.739   0.052 127.696  0.00  0.00    +0.000 OA
ATOM     18  O   UNL     1      -7.681   0.350 126.570  0.00  0.00    +0.000 OA
ATOM     19  C   UNL     1      -8.145  -0.936 126.297  0.00  0.00    +0.000 C 
ATOM     20  C   UNL     1      -8.119  -0.773 124.827  0.00  0.00    +0.000 A 
ATOM     21  C   UNL     1      -8.992  -0.479 123.766  0.00  0.00    +0.000 A 
ATOM     22  C   UNL     1      -9.388  -1.468 122.849  0.00  0.00    +0.000 A 
ATOM     23  C   UNL     1      -8.666  -2.609 122.982  0.00  0.00    +0.000 A 
ATOM     24  C   UNL     1      -7.372  -2.390 123.827  0.00  0.00    +0.000 A 
ATOM     25  C   UNL     1      -6.916  -0.909 124.363  0.00  0.00    +0.000 A 
ENDBRANCH  12  15
ENDBRANCH   6   7
BRANCH   1  27
ATOM     26  C   UNL     1      -4.115   8.441 129.973  0.00  0.00    +0.000 C 
ATOM     27  O   UNL     1      -5.272   7.653 130.020  0.00  0.00    +0.000 OA
ENDBRANCH   1  27
BRANCH   3  28
ATOM     28  O   UNL     1      -5.876   5.392 134.067  0.00  0.00    +0.000 OA
BRANCH  28  29
ATOM     29  C   UNL     1      -7.204   4.963 134.536  0.00  0.00    +0.000 C 
ATOM     30  C   UNL     1      -7.736   3.577 134.101  0.00  0.00    +0.000 C 
ATOM     31  C   UNL     1      -8.289   3.544 132.681  0.00  0.00    +0.000 C 
ATOM     32  N   UNL     1      -9.218   4.710 132.401  0.00  0.00    +0.000 NA
ATOM     33  C   UNL     1      -8.839   6.052 132.984  0.00  0.00    +0.000 C 
ATOM     34  C   UNL     1      -8.281   6.025 134.377  0.00  0.00    +0.000 C 
BRANCH  32  35
ATOM     35  C   UNL     1      -9.461   4.817 130.936  0.00  0.00    +0.000 C 
BRANCH  35  36
ATOM     36  C   UNL     1     -10.359   5.938 130.502  0.00  0.00    +0.000 A 
ATOM     37  C   UNL     1      -9.984   6.874 129.523  0.00  0.00    +0.000 A 
ATOM     38  C   UNL     1     -10.803   7.945 129.262  0.00  0.00    +0.000 A 
ATOM     39  N   UNL     1     -12.026   8.067 129.799  0.00  0.00    +0.000 NA
ATOM     40  C   UNL     1     -12.424   7.076 130.633  0.00  0.00    +0.000 A 
ATOM     41  C   UNL     1     -11.638   6.012 131.021  0.00  0.00    +0.000 A 
ENDBRANCH  35  36
ENDBRANCH  32  35
ENDBRANCH  28  29
ENDBRANCH   3  28
TORSDOF 7
ENDMDL
MODEL 8
REMARK VINA RESULT:      -9.5      5.882      9.358
REMARK  Name = CHEMBL68978
REMARK  8 active torsions:
REMARK  status: ('A' for Active; 'I' for Inactive)
REMARK    1  A    between atoms: C_1  and  O_2
REMARK    2  A    between atoms: O_2  and  C_3
REMARK    3  A    between atoms: C_5  and  O_6
REMARK    4  A    between atoms: O_6  and  C_7
REMARK    5  A    between atoms: N_10  and  C_11
REMARK    6  A    between atoms: C_11  and  C_12
REMARK    7  A    between atoms: C_22  and  C_23
REMARK    8  A    between atoms: C_28  and  N_29
REMARK                            x       y       z     vdW  Elec       q    Type
REMARK                         _______ _______ _______ _____ _____    ______ ____
ROOT
ATOM      1  C   UNL     1      -4.843   7.709 136.495  0.00  0.00    +0.000 A 
ATOM      2  C   UNL     1      -3.582   8.398 136.606  0.00  0.00    +0.000 A 
ATOM      3  C   UNL     1      -2.476   7.913 135.993  0.00  0.00    +0.000 A 
ATOM      4  C   UNL     1      -2.738   6.681 135.492  0.00  0.00    +0.000 A 
ATOM      5  C   UNL     1      -3.911   5.971 135.297  0.00  0.00    +0.000 A 
ATOM      6  C   UNL     1      -5.059   6.486 135.792  0.00  0.00    +0.000 A 
ENDROOT
BRANCH   6   7
ATOM      7  C   UNL     1      -6.253   5.541 135.577  0.00  0.00    +0.000 C 
ATOM      8  O   UNL     1      -6.678   4.920 136.563  0.00  0.00    +0.000 OA
ATOM      9  N   UNL     1      -6.930   5.454 134.322  0.00  0.00    +0.000 N 
ATOM     10  C   UNL     1      -8.297   6.043 134.249  0.00  0.00    +0.000 C 
ATOM     11  C   UNL     1      -9.156   5.423 133.141  0.00  0.00    +0.000 C 
ATOM     12  C   UNL     1      -8.556   5.702 131.437  0.00  0.00    +0.000 C 
ATOM     13  C   UNL     1      -7.035   4.837 131.844  0.00  0.00    +0.000 C 
ATOM     14  C   UNL     1      -6.197   5.402 133.043  0.00  0.00    +0.000 C 
BRANCH  12  15
ATOM     15  N   UNL     1      -9.532   6.502 130.074  0.00  0.00    +0.000 N 
ATOM     16  C   UNL     1     -10.254   5.349 130.015  0.00  0.00    +0.000 C 
ATOM     17  O   UNL     1      -9.739   4.215 129.607  0.00  0.00    +0.000 OA
ATOM     18  O   UNL     1     -11.411   5.341 130.641  0.00  0.00    +0.000 OA
ATOM     19  C   UNL     1     -12.200   5.848 129.611  0.00  0.00    +0.000 C 
ATOM     20  C   UNL     1     -12.004   7.266 129.984  0.00  0.00    +0.000 A 
ATOM     21  C   UNL     1     -12.662   8.290 130.686  0.00  0.00    +0.000 A 
ATOM     22  C   UNL     1     -13.247   9.378 130.014  0.00  0.00    +0.000 A 
ATOM     23  C   UNL     1     -12.898   9.420 128.704  0.00  0.00    +0.000 A 
ATOM     24  C   UNL     1     -11.672   8.504 128.394  0.00  0.00    +0.000 A 
ATOM     25  C   UNL     1     -10.856   7.704 129.571  0.00  0.00    +0.000 A 
ENDBRANCH  12  15
ENDBRANCH   6   7
BRANCH   1  27
ATOM     26  C   UNL     1      -5.906   7.940 138.472  0.00  0.00    +0.000 C 
ATOM     27  O   UNL     1      -5.788   8.433 137.167  0.00  0.00    +0.000 OA
ENDBRANCH   1  27
BRANCH   3  28
ATOM     28  O   UNL     1      -1.295   8.576 135.885  0.00  0.00    +0.000 OA
BRANCH  28  29
ATOM     29  C   UNL     1      -0.751   9.148 134.642  0.00  0.00    +0.000 C 
ATOM     30  C   UNL     1      -1.731   9.561 133.519  0.00  0.00    +0.000 C 
ATOM     31  C   UNL     1      -2.248   8.393 132.688  0.00  0.00    +0.000 C 
ATOM     32  N   UNL     1      -1.134   7.456 132.262  0.00  0.00    +0.000 NA
ATOM     33  C   UNL     1      -0.037   7.183 133.265  0.00  0.00    +0.000 C 
ATOM     34  C   UNL     1       0.421   8.364 134.070  0.00  0.00    +0.000 C 
BRANCH  32  35
ATOM     35  C   UNL     1      -1.715   6.184 131.751  0.00  0.00    +0.000 C 
BRANCH  35  36
ATOM     36  C   UNL     1      -2.464   6.281 130.453  0.00  0.00    +0.000 A 
ATOM     37  C   UNL     1      -1.843   6.641 129.246  0.00  0.00    +0.000 A 
ATOM     38  C   UNL     1      -2.609   6.830 128.122  0.00  0.00    +0.000 A 
ATOM     39  N   UNL     1      -3.919   6.546 128.085  0.00  0.00    +0.000 NA
ATOM     40  C   UNL     1      -4.468   6.063 129.225  0.00  0.00    +0.000 A 
ATOM     41  C   UNL     1      -3.798   5.925 130.423  0.00  0.00    +0.000 A 
ENDBRANCH  35  36
ENDBRANCH  32  35
ENDBRANCH  28  29
ENDBRANCH   3  28
TORSDOF 7
ENDMDL
MODEL 9
REMARK VINA RESULT:      -9.4      3.369      9.212
REMARK  Name = CHEMBL68978
REMARK  8 active torsions:
REMARK  status: ('A' for Active; 'I' for Inactive)
REMARK    1  A    between atoms: C_1  and  O_2
REMARK    2  A    between atoms: O_2  and  C_3
REMARK    3  A    between atoms: C_5  and  O_6
REMARK    4  A    between atoms: O_6  and  C_7
REMARK    5  A    between atoms: N_10  and  C_11
REMARK    6  A    between atoms: C_11  and  C_12
REMARK    7  A    between atoms: C_22  and  C_23
REMARK    8  A    between atoms: C_28  and  N_29
REMARK                            x       y       z     vdW  Elec       q    Type
REMARK                         _______ _______ _______ _____ _____    ______ ____
ROOT
ATOM      1  C   UNL     1      -5.040   6.360 131.142  0.00  0.00    +0.000 A 
ATOM      2  C   UNL     1      -5.331   6.324 132.553  0.00  0.00    +0.000 A 
ATOM      3  C   UNL     1      -4.511   5.670 133.410  0.00  0.00    +0.000 A 
ATOM      4  C   UNL     1      -3.588   4.969 132.709  0.00  0.00    +0.000 A 
ATOM      5  C   UNL     1      -3.204   4.981 131.378  0.00  0.00    +0.000 A 
ATOM      6  C   UNL     1      -3.931   5.720 130.511  0.00  0.00    +0.000 A 
ENDROOT
BRANCH   6   7
ATOM      7  C   UNL     1      -3.439   5.558 129.063  0.00  0.00    +0.000 C 
ATOM      8  O   UNL     1      -2.511   6.291 128.687  0.00  0.00    +0.000 OA
ATOM      9  N   UNL     1      -3.942   4.533 128.204  0.00  0.00    +0.000 N 
ATOM     10  C   UNL     1      -3.023   3.404 127.889  0.00  0.00    +0.000 C 
ATOM     11  C   UNL     1      -3.371   2.700 126.571  0.00  0.00    +0.000 C 
ATOM     12  C   UNL     1      -4.994   1.861 126.537  0.00  0.00    +0.000 C 
ATOM     13  C   UNL     1      -5.803   3.436 126.837  0.00  0.00    +0.000 C 
ATOM     14  C   UNL     1      -5.380   4.215 128.131  0.00  0.00    +0.000 C 
BRANCH  12  15
ATOM     15  N   UNL     1      -5.262   0.061 126.161  0.00  0.00    +0.000 N 
ATOM     16  C   UNL     1      -5.895  -0.019 127.364  0.00  0.00    +0.000 C 
ATOM     17  O   UNL     1      -5.263   0.124 128.503  0.00  0.00    +0.000 OA
ATOM     18  O   UNL     1      -7.209   0.031 127.348  0.00  0.00    +0.000 OA
ATOM     19  C   UNL     1      -7.459  -1.328 127.164  0.00  0.00    +0.000 C 
ATOM     20  C   UNL     1      -7.434  -1.265 125.685  0.00  0.00    +0.000 A 
ATOM     21  C   UNL     1      -8.325  -1.186 124.602  0.00  0.00    +0.000 A 
ATOM     22  C   UNL     1      -8.543  -2.287 123.754  0.00  0.00    +0.000 A 
ATOM     23  C   UNL     1      -7.653  -3.286 123.971  0.00  0.00    +0.000 A 
ATOM     24  C   UNL     1      -6.424  -2.806 124.807  0.00  0.00    +0.000 A 
ATOM     25  C   UNL     1      -6.217  -1.238 125.239  0.00  0.00    +0.000 A 
ENDBRANCH  12  15
ENDBRANCH   6   7
BRANCH   1  27
ATOM     26  C   UNL     1      -7.244   6.837 131.097  0.00  0.00    +0.000 C 
ATOM     27  O   UNL     1      -5.997   7.115 130.525  0.00  0.00    +0.000 OA
ENDBRANCH   1  27
BRANCH   3  28
ATOM     28  O   UNL     1      -4.597   5.731 134.765  0.00  0.00    +0.000 OA
BRANCH  28  29
ATOM     29  C   UNL     1      -5.439   4.862 135.604  0.00  0.00    +0.000 C 
ATOM     30  C   UNL     1      -5.672   3.397 135.163  0.00  0.00    +0.000 C 
ATOM     31  C   UNL     1      -6.710   3.242 134.058  0.00  0.00    +0.000 C 
ATOM     32  N   UNL     1      -7.969   4.040 134.339  0.00  0.00    +0.000 NA
ATOM     33  C   UNL     1      -7.797   5.406 134.964  0.00  0.00    +0.000 C 
ATOM     34  C   UNL     1      -6.748   5.508 136.032  0.00  0.00    +0.000 C 
BRANCH  32  35
ATOM     35  C   UNL     1      -8.797   4.122 133.104  0.00  0.00    +0.000 C 
BRANCH  35  36
ATOM     36  C   UNL     1      -8.652   2.978 132.142  0.00  0.00    +0.000 A 
ATOM     37  C   UNL     1      -9.307   1.749 132.323  0.00  0.00    +0.000 A 
ATOM     38  C   UNL     1      -9.034   0.706 131.472  0.00  0.00    +0.000 A 
ATOM     39  N   UNL     1      -8.270   0.847 130.378  0.00  0.00    +0.000 NA
ATOM     40  C   UNL     1      -7.763   2.082 130.147  0.00  0.00    +0.000 A 
ATOM     41  C   UNL     1      -7.911   3.163 130.991  0.00  0.00    +0.000 A 
ENDBRANCH  35  36
ENDBRANCH  32  35
ENDBRANCH  28  29
ENDBRANCH   3  28
TORSDOF 7
ENDMDL
