MODEL 1
REMARK VINA RESULT:      -9.3      0.000      0.000
REMARK  Name = CHEMBL2037501
REMARK  9 active torsions:
REMARK  status: ('A' for Active; 'I' for Inactive)
REMARK    1  A    between atoms: CD1_1  and  CG1_2
REMARK    2  A    between atoms: CG1_2  and  CB_3
REMARK    3  A    between atoms: CB_3  and  CG2_4
REMARK    4  A    between atoms: CB_3  and  CA_5
REMARK    5  A    between atoms: C_9  and  C_10
REMARK    6  A    between atoms: N_21  and  C_22
REMARK    7  A    between atoms: C_22  and  C_23
REMARK    8  A    between atoms: C_22  and  C_31
REMARK    9  A    between atoms: C_34  and  C_35
REMARK                            x       y       z     vdW  Elec       q    Type
REMARK                         _______ _______ _______ _____ _____    ______ ____
ROOT
ATOM      1  CA  ILE A   2      -7.987   2.901 129.375  0.00  0.00    +0.000 C 
ATOM      2  C   ILE A   2      -8.207   4.228 128.654  0.00  0.00    +0.000 C 
ATOM      3  O   ILE A   2      -8.168   4.577 127.452  0.00  0.00    +0.000 OA
ATOM      4  N   UNK A   1      -8.722   5.171 129.386  0.00  0.00    +0.000 N 
ATOM      5  C   UNK A   1      -9.535   4.789 130.489  0.00  0.00    +0.000 C 
ATOM      6  C   UNK A   1      -8.615   4.053 131.450  0.00  0.00    +0.000 C 
ATOM      7  O   UNK A   1      -8.809   4.249 132.650  0.00  0.00    +0.000 OA
ATOM      8  N   ILE A   2      -7.662   3.201 130.855  0.00  0.00    +0.000 N 
ATOM      9  H   UNK A   1      -8.936   5.951 128.776  0.00  0.00    +0.000 HD
ENDROOT
BRANCH   5  10
ATOM     10  C   UNK A   1     -10.044   6.055 131.161  0.00  0.00    +0.000 C 
ATOM     11  C   UNK A   1     -11.580   6.092 131.134  0.00  0.00    +0.000 C 
ATOM     12  C   UNK A   1     -11.850   6.834 129.855  0.00  0.00    +0.000 A 
ATOM     13  C   UNK A   1     -12.988   6.769 129.070  0.00  0.00    +0.000 A 
ATOM     14  C   UNK A   1     -12.974   7.412 127.830  0.00  0.00    +0.000 A 
ATOM     15  C   UNK A   1     -11.825   8.081 127.377  0.00  0.00    +0.000 A 
ATOM     16  C   UNK A   1     -10.669   8.119 128.160  0.00  0.00    +0.000 A 
ATOM     17  C   UNK A   1     -10.703   7.510 129.406  0.00  0.00    +0.000 A 
ATOM     18  C   UNK A   1      -9.561   7.307 130.361  0.00  0.00    +0.000 C 
ENDBRANCH   5  10
BRANCH   1  19
ATOM     19  CB  ILE A   2      -6.970   2.095 128.634  0.00  0.00    +0.000 C 
ATOM     20  CG2 ILE A   2      -5.537   2.834 128.539  0.00  0.00    +0.000 C 
BRANCH  19  22
ATOM     21  CD1 ILE A   2      -6.450  -1.010 129.071  0.00  0.00    +0.000 C 
ATOM     22  CG1 ILE A   2      -7.501   0.331 128.618  0.00  0.00    +0.000 C 
ENDBRANCH  19  22
ENDBRANCH   1  19
BRANCH   8  23
ATOM     23  C   UNK A   0      -6.451   2.623 131.682  0.00  0.00    +0.000 C 
BRANCH  23  24
ATOM     24  C   UNK A   0      -5.614   3.592 132.850  0.00  0.00    +0.000 C 
ATOM     25  O   UNK A   0      -6.003   3.708 134.014  0.00  0.00    +0.000 OA
ATOM     26  N   UNK A   0      -4.330   4.129 132.572  0.00  0.00    +0.000 N 
ATOM     27  C   UNK A   0      -4.108   5.282 131.749  0.00  0.00    +0.000 C 
ATOM     28  C   UNK A   0      -2.762   5.248 130.892  0.00  0.00    +0.000 C 
ATOM     29  O   UNK A   0      -1.702   5.120 131.804  0.00  0.00    +0.000 OA
ATOM     30  C   UNK A   0      -2.018   4.131 132.789  0.00  0.00    +0.000 C 
ATOM     31  C   UNK A   0      -3.333   4.338 133.578  0.00  0.00    +0.000 C 
ENDBRANCH  23  24
BRANCH  23  32
ATOM     32  C   UNK A   0      -6.746   1.171 132.237  0.00  0.00    +0.000 A 
ATOM     33  C   UNK A   0      -5.716   0.252 132.560  0.00  0.00    +0.000 A 
ATOM     34  C   UNK A   0      -6.004  -1.111 132.763  0.00  0.00    +0.000 A 
ATOM     35  C   UNK A   0      -7.329  -1.513 132.798  0.00  0.00    +0.000 A 
ATOM     36  C   UNK A   0      -7.754  -2.915 133.071  0.00  0.00    +0.000 C 
ATOM     37  N   UNK A   0      -8.338  -0.652 132.609  0.00  0.00    +0.000 NA
ATOM     38  C   UNK A   0      -8.026   0.628 132.301  0.00  0.00    +0.000 A 
ENDBRANCH  23  32
ENDBRANCH   8  23
TORSDOF 6
ENDMDL
MODEL 2
REMARK VINA RESULT:      -9.2      2.976      6.907
REMARK  Name = CHEMBL2037501
REMARK  9 active torsions:
REMARK  status: ('A' for Active; 'I' for Inactive)
REMARK    1  A    between atoms: CD1_1  and  CG1_2
REMARK    2  A    between atoms: CG1_2  and  CB_3
REMARK    3  A    between atoms: CB_3  and  CG2_4
REMARK    4  A    between atoms: CB_3  and  CA_5
REMARK    5  A    between atoms: C_9  and  C_10
REMARK    6  A    between atoms: N_21  and  C_22
REMARK    7  A    between atoms: C_22  and  C_23
REMARK    8  A    between atoms: C_22  and  C_31
REMARK    9  A    between atoms: C_34  and  C_35
REMARK                            x       y       z     vdW  Elec       q    Type
REMARK                         _______ _______ _______ _____ _____    ______ ____
ROOT
ATOM      1  CA  ILE A   2      -8.163   0.908 129.457  0.00  0.00    +0.000 C 
ATOM      2  C   ILE A   2      -7.438  -0.184 128.676  0.00  0.00    +0.000 C 
ATOM      3  O   ILE A   2      -7.092  -1.358 128.946  0.00  0.00    +0.000 OA
ATOM      4  N   UNK A   1      -7.296   0.052 127.406  0.00  0.00    +0.000 N 
ATOM      5  C   UNK A   1      -8.252   0.898 126.776  0.00  0.00    +0.000 C 
ATOM      6  C   UNK A   1      -8.083   2.266 127.415  0.00  0.00    +0.000 C 
ATOM      7  O   UNK A   1      -8.203   3.237 126.666  0.00  0.00    +0.000 OA
ATOM      8  N   ILE A   2      -7.839   2.270 128.803  0.00  0.00    +0.000 N 
ATOM      9  H   UNK A   1      -6.921  -0.785 126.978  0.00  0.00    +0.000 HD
ENDROOT
BRANCH   5  10
ATOM     10  C   UNK A   1      -7.897   0.991 125.299  0.00  0.00    +0.000 C 
ATOM     11  C   UNK A   1      -9.011   0.370 124.442  0.00  0.00    +0.000 C 
ATOM     12  C   UNK A   1      -8.548  -1.054 124.316  0.00  0.00    +0.000 A 
ATOM     13  C   UNK A   1      -9.325  -2.174 124.078  0.00  0.00    +0.000 A 
ATOM     14  C   UNK A   1      -8.721  -3.430 124.161  0.00  0.00    +0.000 A 
ATOM     15  C   UNK A   1      -7.365  -3.556 124.508  0.00  0.00    +0.000 A 
ATOM     16  C   UNK A   1      -6.590  -2.425 124.775  0.00  0.00    +0.000 A 
ATOM     17  C   UNK A   1      -7.189  -1.180 124.654  0.00  0.00    +0.000 A 
ATOM     18  C   UNK A   1      -6.607   0.159 125.013  0.00  0.00    +0.000 C 
ENDBRANCH   5  10
BRANCH   1  19
ATOM     19  CB  ILE A   2      -7.830   0.786 130.909  0.00  0.00    +0.000 C 
ATOM     20  CG2 ILE A   2      -6.239   0.815 131.189  0.00  0.00    +0.000 C 
BRANCH  19  22
ATOM     21  CD1 ILE A   2      -9.357   2.625 133.003  0.00  0.00    +0.000 C 
ATOM     22  CG1 ILE A   2      -9.310   1.248 131.903  0.00  0.00    +0.000 C 
ENDBRANCH  19  22
ENDBRANCH   1  19
BRANCH   8  23
ATOM     23  C   UNK A   0      -7.335   3.567 129.544  0.00  0.00    +0.000 C 
BRANCH  23  24
ATOM     24  C   UNK A   0      -5.963   4.455 128.971  0.00  0.00    +0.000 C 
ATOM     25  O   UNK A   0      -5.940   4.998 127.864  0.00  0.00    +0.000 OA
ATOM     26  N   UNK A   0      -4.880   4.770 129.834  0.00  0.00    +0.000 N 
ATOM     27  C   UNK A   0      -3.865   3.833 130.218  0.00  0.00    +0.000 C 
ATOM     28  C   UNK A   0      -3.301   4.020 131.698  0.00  0.00    +0.000 C 
ATOM     29  O   UNK A   0      -2.781   5.322 131.774  0.00  0.00    +0.000 OA
ATOM     30  C   UNK A   0      -3.687   6.250 131.167  0.00  0.00    +0.000 C 
ATOM     31  C   UNK A   0      -4.094   5.959 129.703  0.00  0.00    +0.000 C 
ENDBRANCH  23  24
BRANCH  23  32
ATOM     32  C   UNK A   0      -8.527   4.530 129.937  0.00  0.00    +0.000 A 
ATOM     33  C   UNK A   0      -8.336   5.714 130.693  0.00  0.00    +0.000 A 
ATOM     34  C   UNK A   0      -9.430   6.382 131.273  0.00  0.00    +0.000 A 
ATOM     35  C   UNK A   0     -10.711   5.956 130.965  0.00  0.00    +0.000 A 
ATOM     36  C   UNK A   0     -11.943   6.628 131.466  0.00  0.00    +0.000 C 
ATOM     37  N   UNK A   0     -10.937   4.907 130.161  0.00  0.00    +0.000 NA
ATOM     38  C   UNK A   0      -9.865   4.215 129.712  0.00  0.00    +0.000 A 
ENDBRANCH  23  32
ENDBRANCH   8  23
TORSDOF 6
ENDMDL
MODEL 3
REMARK VINA RESULT:      -9.1      3.298      7.050
REMARK  Name = CHEMBL2037501
REMARK  9 active torsions:
REMARK  status: ('A' for Active; 'I' for Inactive)
REMARK    1  A    between atoms: CD1_1  and  CG1_2
REMARK    2  A    between atoms: CG1_2  and  CB_3
REMARK    3  A    between atoms: CB_3  and  CG2_4
REMARK    4  A    between atoms: CB_3  and  CA_5
REMARK    5  A    between atoms: C_9  and  C_10
REMARK    6  A    between atoms: N_21  and  C_22
REMARK    7  A    between atoms: C_22  and  C_23
REMARK    8  A    between atoms: C_22  and  C_31
REMARK    9  A    between atoms: C_34  and  C_35
REMARK                            x       y       z     vdW  Elec       q    Type
REMARK                         _______ _______ _______ _____ _____    ______ ____
ROOT
ATOM      1  CA  ILE A   2      -5.480   2.814 126.459  0.00  0.00    +0.000 C 
ATOM      2  C   ILE A   2      -6.429   2.408 125.335  0.00  0.00    +0.000 C 
ATOM      3  O   ILE A   2      -6.393   2.522 124.088  0.00  0.00    +0.000 OA
ATOM      4  N   UNK A   1      -7.396   1.616 125.693  0.00  0.00    +0.000 N 
ATOM      5  C   UNK A   1      -7.183   0.772 126.818  0.00  0.00    +0.000 C 
ATOM      6  C   UNK A   1      -7.022   1.700 128.011  0.00  0.00    +0.000 C 
ATOM      7  O   UNK A   1      -7.522   1.320 129.070  0.00  0.00    +0.000 OA
ATOM      8  N   ILE A   2      -6.287   2.880 127.775  0.00  0.00    +0.000 N 
ATOM      9  H   UNK A   1      -7.876   1.319 124.852  0.00  0.00    +0.000 HD
ENDROOT
BRANCH   5  10
ATOM     10  C   UNK A   1      -8.431  -0.076 127.013  0.00  0.00    +0.000 C 
ATOM     11  C   UNK A   1      -8.053  -1.560 127.147  0.00  0.00    +0.000 C 
ATOM     12  C   UNK A   1      -8.131  -2.030 125.722  0.00  0.00    +0.000 A 
ATOM     13  C   UNK A   1      -7.467  -3.102 125.153  0.00  0.00    +0.000 A 
ATOM     14  C   UNK A   1      -7.548  -3.272 123.769  0.00  0.00    +0.000 A 
ATOM     15  C   UNK A   1      -8.258  -2.361 122.971  0.00  0.00    +0.000 A 
ATOM     16  C   UNK A   1      -8.903  -1.263 123.546  0.00  0.00    +0.000 A 
ATOM     17  C   UNK A   1      -8.849  -1.122 124.924  0.00  0.00    +0.000 A 
ATOM     18  C   UNK A   1      -9.345   0.031 125.751  0.00  0.00    +0.000 C 
ENDBRANCH   5  10
BRANCH   1  19
ATOM     19  CB  ILE A   2      -4.758   4.065 126.074  0.00  0.00    +0.000 C 
ATOM     20  CG2 ILE A   2      -5.752   5.217 125.532  0.00  0.00    +0.000 C 
BRANCH  19  22
ATOM     21  CD1 ILE A   2      -1.805   2.968 126.493  0.00  0.00    +0.000 C 
ATOM     22  CG1 ILE A   2      -3.111   4.081 126.898  0.00  0.00    +0.000 C 
ENDBRANCH  19  22
ENDBRANCH   1  19
BRANCH   8  23
ATOM     23  C   UNK A   0      -6.301   4.073 128.805  0.00  0.00    +0.000 C 
BRANCH  23  24
ATOM     24  C   UNK A   0      -7.756   4.544 129.618  0.00  0.00    +0.000 C 
ATOM     25  O   UNK A   0      -8.537   5.376 129.150  0.00  0.00    +0.000 OA
ATOM     26  N   UNK A   0      -8.218   3.841 130.762  0.00  0.00    +0.000 N 
ATOM     27  C   UNK A   0      -7.666   4.003 132.075  0.00  0.00    +0.000 C 
ATOM     28  C   UNK A   0      -7.658   2.681 132.969  0.00  0.00    +0.000 C 
ATOM     29  O   UNK A   0      -8.991   2.254 133.077  0.00  0.00    +0.000 OA
ATOM     30  C   UNK A   0      -9.633   2.321 131.800  0.00  0.00    +0.000 C 
ATOM     31  C   UNK A   0      -9.605   3.692 131.083  0.00  0.00    +0.000 C 
ENDBRANCH  23  24
BRANCH  23  32
ATOM     32  C   UNK A   0      -5.072   4.016 129.800  0.00  0.00    +0.000 A 
ATOM     33  C   UNK A   0      -4.637   2.812 130.409  0.00  0.00    +0.000 A 
ATOM     34  C   UNK A   0      -3.748   2.837 131.500  0.00  0.00    +0.000 A 
ATOM     35  C   UNK A   0      -3.182   4.046 131.870  0.00  0.00    +0.000 A 
ATOM     36  C   UNK A   0      -2.180   4.182 132.964  0.00  0.00    +0.000 C 
ATOM     37  N   UNK A   0      -3.483   5.192 131.245  0.00  0.00    +0.000 NA
ATOM     38  C   UNK A   0      -4.426   5.153 130.277  0.00  0.00    +0.000 A 
ENDBRANCH  23  32
ENDBRANCH   8  23
TORSDOF 6
ENDMDL
MODEL 4
REMARK VINA RESULT:      -9.1      2.589      7.654
REMARK  Name = CHEMBL2037501
REMARK  9 active torsions:
REMARK  status: ('A' for Active; 'I' for Inactive)
REMARK    1  A    between atoms: CD1_1  and  CG1_2
REMARK    2  A    between atoms: CG1_2  and  CB_3
REMARK    3  A    between atoms: CB_3  and  CG2_4
REMARK    4  A    between atoms: CB_3  and  CA_5
REMARK    5  A    between atoms: C_9  and  C_10
REMARK    6  A    between atoms: N_21  and  C_22
REMARK    7  A    between atoms: C_22  and  C_23
REMARK    8  A    between atoms: C_22  and  C_31
REMARK    9  A    between atoms: C_34  and  C_35
REMARK                            x       y       z     vdW  Elec       q    Type
REMARK                         _______ _______ _______ _____ _____    ______ ____
ROOT
ATOM      1  CA  ILE A   2      -7.155   1.732 131.659  0.00  0.00    +0.000 C 
ATOM      2  C   ILE A   2      -6.231   0.521 131.566  0.00  0.00    +0.000 C 
ATOM      3  O   ILE A   2      -5.500  -0.075 132.390  0.00  0.00    +0.000 OA
ATOM      4  N   UNK A   1      -6.343  -0.171 130.471  0.00  0.00    +0.000 N 
ATOM      5  C   UNK A   1      -7.591  -0.143 129.790  0.00  0.00    +0.000 C 
ATOM      6  C   UNK A   1      -7.781   1.292 129.326  0.00  0.00    +0.000 C 
ATOM      7  O   UNK A   1      -8.301   1.445 128.221  0.00  0.00    +0.000 OA
ATOM      8  N   ILE A   2      -7.369   2.290 130.234  0.00  0.00    +0.000 N 
ATOM      9  H   UNK A   1      -5.781  -1.007 130.578  0.00  0.00    +0.000 HD
ENDROOT
BRANCH   5  10
ATOM     10  C   UNK A   1      -7.484  -1.048 128.572  0.00  0.00    +0.000 C 
ATOM     11  C   UNK A   1      -7.929  -2.476 128.927  0.00  0.00    +0.000 C 
ATOM     12  C   UNK A   1      -6.631  -3.113 129.337  0.00  0.00    +0.000 A 
ATOM     13  C   UNK A   1      -6.455  -4.195 130.180  0.00  0.00    +0.000 A 
ATOM     14  C   UNK A   1      -5.155  -4.530 130.565  0.00  0.00    +0.000 A 
ATOM     15  C   UNK A   1      -4.056  -3.769 130.132  0.00  0.00    +0.000 A 
ATOM     16  C   UNK A   1      -4.240  -2.661 129.303  0.00  0.00    +0.000 A 
ATOM     17  C   UNK A   1      -5.531  -2.357 128.896  0.00  0.00    +0.000 A 
ATOM     18  C   UNK A   1      -5.991  -1.153 128.122  0.00  0.00    +0.000 C 
ENDBRANCH   5  10
BRANCH   1  19
ATOM     19  CB  ILE A   2      -6.610   2.698 132.662  0.00  0.00    +0.000 C 
ATOM     20  CG2 ILE A   2      -5.156   3.269 132.252  0.00  0.00    +0.000 C 
BRANCH  19  22
ATOM     21  CD1 ILE A   2      -7.990   4.943 134.437  0.00  0.00    +0.000 C 
ATOM     22  CG1 ILE A   2      -8.001   3.353 133.677  0.00  0.00    +0.000 C 
ENDBRANCH  19  22
ENDBRANCH   1  19
BRANCH   8  23
ATOM     23  C   UNK A   0      -7.208   3.791 129.783  0.00  0.00    +0.000 C 
BRANCH  23  24
ATOM     24  C   UNK A   0      -6.612   4.200 128.208  0.00  0.00    +0.000 C 
ATOM     25  O   UNK A   0      -7.325   4.712 127.343  0.00  0.00    +0.000 OA
ATOM     26  N   UNK A   0      -5.224   4.152 127.914  0.00  0.00    +0.000 N 
ATOM     27  C   UNK A   0      -4.503   2.939 127.656  0.00  0.00    +0.000 C 
ATOM     28  C   UNK A   0      -2.992   2.932 128.168  0.00  0.00    +0.000 C 
ATOM     29  O   UNK A   0      -2.342   4.001 127.531  0.00  0.00    +0.000 OA
ATOM     30  C   UNK A   0      -3.166   5.171 127.568  0.00  0.00    +0.000 C 
ATOM     31  C   UNK A   0      -4.590   5.030 126.978  0.00  0.00    +0.000 C 
ENDBRANCH  23  24
BRANCH  23  32
ATOM     32  C   UNK A   0      -8.465   4.669 130.173  0.00  0.00    +0.000 A 
ATOM     33  C   UNK A   0      -8.347   5.970 130.724  0.00  0.00    +0.000 A 
ATOM     34  C   UNK A   0      -9.452   6.598 131.329  0.00  0.00    +0.000 A 
ATOM     35  C   UNK A   0     -10.695   5.992 131.240  0.00  0.00    +0.000 A 
ATOM     36  C   UNK A   0     -11.944   6.597 131.784  0.00  0.00    +0.000 C 
ATOM     37  N   UNK A   0     -10.867   4.813 130.627  0.00  0.00    +0.000 NA
ATOM     38  C   UNK A   0      -9.768   4.180 130.157  0.00  0.00    +0.000 A 
ENDBRANCH  23  32
ENDBRANCH   8  23
TORSDOF 6
ENDMDL
MODEL 5
REMARK VINA RESULT:      -9.0      1.099      1.789
REMARK  Name = CHEMBL2037501
REMARK  9 active torsions:
REMARK  status: ('A' for Active; 'I' for Inactive)
REMARK    1  A    between atoms: CD1_1  and  CG1_2
REMARK    2  A    between atoms: CG1_2  and  CB_3
REMARK    3  A    between atoms: CB_3  and  CG2_4
REMARK    4  A    between atoms: CB_3  and  CA_5
REMARK    5  A    between atoms: C_9  and  C_10
REMARK    6  A    between atoms: N_21  and  C_22
REMARK    7  A    between atoms: C_22  and  C_23
REMARK    8  A    between atoms: C_22  and  C_31
REMARK    9  A    between atoms: C_34  and  C_35
REMARK                            x       y       z     vdW  Elec       q    Type
REMARK                         _______ _______ _______ _____ _____    ______ ____
ROOT
ATOM      1  CA  ILE A   2      -7.942   2.903 129.047  0.00  0.00    +0.000 C 
ATOM      2  C   ILE A   2      -8.178   4.257 128.385  0.00  0.00    +0.000 C 
ATOM      3  O   ILE A   2      -8.344   4.623 127.198  0.00  0.00    +0.000 OA
ATOM      4  N   UNK A   1      -8.453   5.228 129.205  0.00  0.00    +0.000 N 
ATOM      5  C   UNK A   1      -9.065   4.898 130.446  0.00  0.00    +0.000 C 
ATOM      6  C   UNK A   1      -8.045   4.066 131.206  0.00  0.00    +0.000 C 
ATOM      7  O   UNK A   1      -7.981   4.256 132.421  0.00  0.00    +0.000 OA
ATOM      8  N   ILE A   2      -7.307   3.145 130.435  0.00  0.00    +0.000 N 
ATOM      9  H   UNK A   1      -8.711   6.034 128.649  0.00  0.00    +0.000 HD
ENDROOT
BRANCH   5  10
ATOM     10  C   UNK A   1      -9.317   6.191 131.205  0.00  0.00    +0.000 C 
ATOM     11  C   UNK A   1     -10.798   6.295 131.605  0.00  0.00    +0.000 C 
ATOM     12  C   UNK A   1     -11.384   7.036 130.436  0.00  0.00    +0.000 A 
ATOM     13  C   UNK A   1     -12.696   7.014 129.999  0.00  0.00    +0.000 A 
ATOM     14  C   UNK A   1     -13.003   7.644 128.791  0.00  0.00    +0.000 A 
ATOM     15  C   UNK A   1     -11.999   8.257 128.023  0.00  0.00    +0.000 A 
ATOM     16  C   UNK A   1     -10.671   8.253 128.453  0.00  0.00    +0.000 A 
ATOM     17  C   UNK A   1     -10.381   7.657 129.672  0.00  0.00    +0.000 A 
ATOM     18  C   UNK A   1      -9.027   7.414 130.277  0.00  0.00    +0.000 C 
ENDBRANCH   5  10
BRANCH   1  19
ATOM     19  CB  ILE A   2      -7.165   2.024 128.119  0.00  0.00    +0.000 C 
ATOM     20  CG2 ILE A   2      -5.721   2.640 127.739  0.00  0.00    +0.000 C 
BRANCH  19  22
ATOM     21  CD1 ILE A   2      -6.936  -1.060 128.851  0.00  0.00    +0.000 C 
ATOM     22  CG1 ILE A   2      -7.840   0.313 128.213  0.00  0.00    +0.000 C 
ENDBRANCH  19  22
ENDBRANCH   1  19
BRANCH   8  23
ATOM     23  C   UNK A   0      -6.014   2.448 131.007  0.00  0.00    +0.000 C 
BRANCH  23  24
ATOM     24  C   UNK A   0      -4.762   3.366 131.777  0.00  0.00    +0.000 C 
ATOM     25  O   UNK A   0      -3.702   3.643 131.212  0.00  0.00    +0.000 OA
ATOM     26  N   UNK A   0      -4.987   4.014 133.019  0.00  0.00    +0.000 N 
ATOM     27  C   UNK A   0      -4.996   3.337 134.284  0.00  0.00    +0.000 C 
ATOM     28  C   UNK A   0      -6.017   3.930 135.357  0.00  0.00    +0.000 C 
ATOM     29  O   UNK A   0      -5.665   5.274 135.555  0.00  0.00    +0.000 OA
ATOM     30  C   UNK A   0      -5.411   5.907 134.296  0.00  0.00    +0.000 C 
ATOM     31  C   UNK A   0      -4.348   5.240 133.390  0.00  0.00    +0.000 C 
ENDBRANCH  23  24
BRANCH  23  32
ATOM     32  C   UNK A   0      -6.355   1.134 131.820  0.00  0.00    +0.000 A 
ATOM     33  C   UNK A   0      -5.391   0.130 132.088  0.00  0.00    +0.000 A 
ATOM     34  C   UNK A   0      -5.785  -1.142 132.545  0.00  0.00    +0.000 A 
ATOM     35  C   UNK A   0      -7.114  -1.348 132.878  0.00  0.00    +0.000 A 
ATOM     36  C   UNK A   0      -7.631  -2.631 133.434  0.00  0.00    +0.000 C 
ATOM     37  N   UNK A   0      -8.037  -0.386 132.745  0.00  0.00    +0.000 NA
ATOM     38  C   UNK A   0      -7.650   0.787 132.195  0.00  0.00    +0.000 A 
ENDBRANCH  23  32
ENDBRANCH   8  23
TORSDOF 6
ENDMDL
MODEL 6
REMARK VINA RESULT:      -8.9      3.334      7.210
REMARK  Name = CHEMBL2037501
REMARK  9 active torsions:
REMARK  status: ('A' for Active; 'I' for Inactive)
REMARK    1  A    between atoms: CD1_1  and  CG1_2
REMARK    2  A    between atoms: CG1_2  and  CB_3
REMARK    3  A    between atoms: CB_3  and  CG2_4
REMARK    4  A    between atoms: CB_3  and  CA_5
REMARK    5  A    between atoms: C_9  and  C_10
REMARK    6  A    between atoms: N_21  and  C_22
REMARK    7  A    between atoms: C_22  and  C_23
REMARK    8  A    between atoms: C_22  and  C_31
REMARK    9  A    between atoms: C_34  and  C_35
REMARK                            x       y       z     vdW  Elec       q    Type
REMARK                         _______ _______ _______ _____ _____    ______ ____
ROOT
ATOM      1  CA  ILE A   2      -7.896   0.277 129.707  0.00  0.00    +0.000 C 
ATOM      2  C   ILE A   2      -7.229  -0.958 129.110  0.00  0.00    +0.000 C 
ATOM      3  O   ILE A   2      -7.197  -2.168 129.434  0.00  0.00    +0.000 OA
ATOM      4  N   UNK A   1      -6.736  -0.793 127.918  0.00  0.00    +0.000 N 
ATOM      5  C   UNK A   1      -7.323   0.201 127.087  0.00  0.00    +0.000 C 
ATOM      6  C   UNK A   1      -7.051   1.530 127.773  0.00  0.00    +0.000 C 
ATOM      7  O   UNK A   1      -6.791   2.482 127.036  0.00  0.00    +0.000 OA
ATOM      8  N   ILE A   2      -7.161   1.529 129.178  0.00  0.00    +0.000 N 
ATOM      9  H   UNK A   1      -6.439  -1.701 127.581  0.00  0.00    +0.000 HD
ENDROOT
BRANCH   5  10
ATOM     10  C   UNK A   1      -6.605   0.179 125.746  0.00  0.00    +0.000 C 
ATOM     11  C   UNK A   1      -7.616   0.325 124.597  0.00  0.00    +0.000 C 
ATOM     12  C   UNK A   1      -7.942  -1.108 124.285  0.00  0.00    +0.000 A 
ATOM     13  C   UNK A   1      -9.094  -1.600 123.699  0.00  0.00    +0.000 A 
ATOM     14  C   UNK A   1      -9.272  -2.984 123.647  0.00  0.00    +0.000 A 
ATOM     15  C   UNK A   1      -8.320  -3.855 124.203  0.00  0.00    +0.000 A 
ATOM     16  C   UNK A   1      -7.171  -3.354 124.819  0.00  0.00    +0.000 A 
ATOM     17  C   UNK A   1      -6.985  -1.979 124.834  0.00  0.00    +0.000 A 
ATOM     18  C   UNK A   1      -5.909  -1.205 125.544  0.00  0.00    +0.000 C 
ENDBRANCH   5  10
BRANCH   1  19
ATOM     19  CB  ILE A   2      -7.960   0.138 131.194  0.00  0.00    +0.000 C 
ATOM     20  CG2 ILE A   2      -6.524  -0.202 131.851  0.00  0.00    +0.000 C 
BRANCH  19  22
ATOM     21  CD1 ILE A   2      -9.456   2.457 132.769  0.00  0.00    +0.000 C 
ATOM     22  CG1 ILE A   2      -9.479   0.980 131.808  0.00  0.00    +0.000 C 
ENDBRANCH  19  22
ENDBRANCH   1  19
BRANCH   8  23
ATOM     23  C   UNK A   0      -6.610   2.726 130.044  0.00  0.00    +0.000 C 
BRANCH  23  24
ATOM     24  C   UNK A   0      -4.938   3.178 129.994  0.00  0.00    +0.000 C 
ATOM     25  O   UNK A   0      -4.191   3.058 130.967  0.00  0.00    +0.000 OA
ATOM     26  N   UNK A   0      -4.306   3.516 128.769  0.00  0.00    +0.000 N 
ATOM     27  C   UNK A   0      -4.464   4.780 128.111  0.00  0.00    +0.000 C 
ATOM     28  C   UNK A   0      -4.439   4.717 126.517  0.00  0.00    +0.000 C 
ATOM     29  O   UNK A   0      -3.205   4.156 126.151  0.00  0.00    +0.000 OA
ATOM     30  C   UNK A   0      -2.916   3.022 126.976  0.00  0.00    +0.000 C 
ATOM     31  C   UNK A   0      -2.922   3.261 128.505  0.00  0.00    +0.000 C 
ENDBRANCH  23  24
BRANCH  23  32
ATOM     32  C   UNK A   0      -7.557   3.992 129.981  0.00  0.00    +0.000 A 
ATOM     33  C   UNK A   0      -7.227   5.224 130.601  0.00  0.00    +0.000 A 
ATOM     34  C   UNK A   0      -8.203   6.222 130.782  0.00  0.00    +0.000 A 
ATOM     35  C   UNK A   0      -9.450   6.047 130.205  0.00  0.00    +0.000 A 
ATOM     36  C   UNK A   0     -10.536   7.065 130.274  0.00  0.00    +0.000 C 
ATOM     37  N   UNK A   0      -9.764   4.943 129.513  0.00  0.00    +0.000 NA
ATOM     38  C   UNK A   0      -8.845   3.953 129.456  0.00  0.00    +0.000 A 
ENDBRANCH  23  32
ENDBRANCH   8  23
TORSDOF 6
ENDMDL
MODEL 7
REMARK VINA RESULT:      -8.8      2.303      7.450
REMARK  Name = CHEMBL2037501
REMARK  9 active torsions:
REMARK  status: ('A' for Active; 'I' for Inactive)
REMARK    1  A    between atoms: CD1_1  and  CG1_2
REMARK    2  A    between atoms: CG1_2  and  CB_3
REMARK    3  A    between atoms: CB_3  and  CG2_4
REMARK    4  A    between atoms: CB_3  and  CA_5
REMARK    5  A    between atoms: C_9  and  C_10
REMARK    6  A    between atoms: N_21  and  C_22
REMARK    7  A    between atoms: C_22  and  C_23
REMARK    8  A    between atoms: C_22  and  C_31
REMARK    9  A    between atoms: C_34  and  C_35
REMARK                            x       y       z     vdW  Elec       q    Type
REMARK                         _______ _______ _______ _____ _____    ______ ____
ROOT
ATOM      1  CA  ILE A   2      -4.792   2.507 128.851  0.00  0.00    +0.000 C 
ATOM      2  C   ILE A   2      -5.916   1.576 128.408  0.00  0.00    +0.000 C 
ATOM      3  O   ILE A   2      -6.222   1.046 127.314  0.00  0.00    +0.000 OA
ATOM      4  N   UNK A   1      -6.612   1.057 129.376  0.00  0.00    +0.000 N 
ATOM      5  C   UNK A   1      -5.980   0.899 130.640  0.00  0.00    +0.000 C 
ATOM      6  C   UNK A   1      -5.674   2.304 131.132  0.00  0.00    +0.000 C 
ATOM      7  O   UNK A   1      -5.813   2.502 132.340  0.00  0.00    +0.000 OA
ATOM      8  N   ILE A   2      -5.232   3.215 130.152  0.00  0.00    +0.000 N 
ATOM      9  H   UNK A   1      -7.236   0.370 128.971  0.00  0.00    +0.000 HD
ENDROOT
BRANCH   5  10
ATOM     10  C   UNK A   1      -6.975   0.246 131.587  0.00  0.00    +0.000 C 
ATOM     11  C   UNK A   1      -6.325  -0.946 132.306  0.00  0.00    +0.000 C 
ATOM     12  C   UNK A   1      -6.668  -2.087 131.389  0.00  0.00    +0.000 A 
ATOM     13  C   UNK A   1      -5.989  -3.284 131.247  0.00  0.00    +0.000 A 
ATOM     14  C   UNK A   1      -6.376  -4.146 130.219  0.00  0.00    +0.000 A 
ATOM     15  C   UNK A   1      -7.407  -3.794 129.332  0.00  0.00    +0.000 A 
ATOM     16  C   UNK A   1      -8.071  -2.572 129.462  0.00  0.00    +0.000 A 
ATOM     17  C   UNK A   1      -7.705  -1.738 130.508  0.00  0.00    +0.000 A 
ATOM     18  C   UNK A   1      -8.175  -0.335 130.772  0.00  0.00    +0.000 C 
ENDBRANCH   5  10
BRANCH   1  19
ATOM     19  CB  ILE A   2      -4.412   3.404 127.716  0.00  0.00    +0.000 C 
ATOM     20  CG2 ILE A   2      -5.654   4.284 127.175  0.00  0.00    +0.000 C 
BRANCH  19  22
ATOM     21  CD1 ILE A   2      -1.510   3.011 126.482  0.00  0.00    +0.000 C 
ATOM     22  CG1 ILE A   2      -2.586   3.642 127.729  0.00  0.00    +0.000 C 
ENDBRANCH  19  22
ENDBRANCH   1  19
BRANCH   8  23
ATOM     23  C   UNK A   0      -5.179   4.764 130.437  0.00  0.00    +0.000 C 
BRANCH  23  24
ATOM     24  C   UNK A   0      -6.460   5.568 131.283  0.00  0.00    +0.000 C 
ATOM     25  O   UNK A   0      -6.248   6.415 132.154  0.00  0.00    +0.000 OA
ATOM     26  N   UNK A   0      -7.811   5.436 130.867  0.00  0.00    +0.000 N 
ATOM     27  C   UNK A   0      -8.621   4.284 131.137  0.00  0.00    +0.000 C 
ATOM     28  C   UNK A   0      -9.675   3.920 129.997  0.00  0.00    +0.000 C 
ATOM     29  O   UNK A   0     -10.504   5.042 129.836  0.00  0.00    +0.000 OA
ATOM     30  C   UNK A   0      -9.716   6.237 129.809  0.00  0.00    +0.000 C 
ATOM     31  C   UNK A   0      -8.783   6.475 131.021  0.00  0.00    +0.000 C 
ENDBRANCH  23  24
BRANCH  23  32
ATOM     32  C   UNK A   0      -3.759   5.226 130.959  0.00  0.00    +0.000 A 
ATOM     33  C   UNK A   0      -3.026   4.496 131.928  0.00  0.00    +0.000 A 
ATOM     34  C   UNK A   0      -1.922   5.075 132.583  0.00  0.00    +0.000 A 
ATOM     35  C   UNK A   0      -1.466   6.310 132.154  0.00  0.00    +0.000 A 
ATOM     36  C   UNK A   0      -0.268   6.987 132.726  0.00  0.00    +0.000 C 
ATOM     37  N   UNK A   0      -2.065   6.983 131.161  0.00  0.00    +0.000 NA
ATOM     38  C   UNK A   0      -3.191   6.454 130.631  0.00  0.00    +0.000 A 
ENDBRANCH  23  32
ENDBRANCH   8  23
TORSDOF 6
ENDMDL
MODEL 8
REMARK VINA RESULT:      -8.7      3.936      7.395
REMARK  Name = CHEMBL2037501
REMARK  9 active torsions:
REMARK  status: ('A' for Active; 'I' for Inactive)
REMARK    1  A    between atoms: CD1_1  and  CG1_2
REMARK    2  A    between atoms: CG1_2  and  CB_3
REMARK    3  A    between atoms: CB_3  and  CG2_4
REMARK    4  A    between atoms: CB_3  and  CA_5
REMARK    5  A    between atoms: C_9  and  C_10
REMARK    6  A    between atoms: N_21  and  C_22
REMARK    7  A    between atoms: C_22  and  C_23
REMARK    8  A    between atoms: C_22  and  C_31
REMARK    9  A    between atoms: C_34  and  C_35
REMARK                            x       y       z     vdW  Elec       q    Type
REMARK                         _______ _______ _______ _____ _____    ______ ____
ROOT
ATOM      1  CA  ILE A   2      -6.103   3.095 128.588  0.00  0.00    +0.000 C 
ATOM      2  C   ILE A   2      -5.483   3.264 129.972  0.00  0.00    +0.000 C 
ATOM      3  O   ILE A   2      -4.656   4.069 130.458  0.00  0.00    +0.000 OA
ATOM      4  N   UNK A   1      -6.042   2.561 130.912  0.00  0.00    +0.000 N 
ATOM      5  C   UNK A   1      -7.411   2.210 130.756  0.00  0.00    +0.000 C 
ATOM      6  C   UNK A   1      -7.472   1.296 129.543  0.00  0.00    +0.000 C 
ATOM      7  O   UNK A   1      -8.265   0.356 129.606  0.00  0.00    +0.000 OA
ATOM      8  N   ILE A   2      -6.633   1.649 128.466  0.00  0.00    +0.000 N 
ATOM      9  H   UNK A   1      -5.634   2.848 131.793  0.00  0.00    +0.000 HD
ENDROOT
BRANCH   5  10
ATOM     10  C   UNK A   1      -7.841   1.429 131.988  0.00  0.00    +0.000 C 
ATOM     11  C   UNK A   1      -9.064   2.093 132.642  0.00  0.00    +0.000 C 
ATOM     12  C   UNK A   1      -8.420   3.022 133.632  0.00  0.00    +0.000 A 
ATOM     13  C   UNK A   1      -8.950   4.186 134.161  0.00  0.00    +0.000 A 
ATOM     14  C   UNK A   1      -8.123   4.995 134.942  0.00  0.00    +0.000 A 
ATOM     15  C   UNK A   1      -6.778   4.654 135.159  0.00  0.00    +0.000 A 
ATOM     16  C   UNK A   1      -6.238   3.493 134.601  0.00  0.00    +0.000 A 
ATOM     17  C   UNK A   1      -7.077   2.676 133.857  0.00  0.00    +0.000 A 
ATOM     18  C   UNK A   1      -6.702   1.460 133.057  0.00  0.00    +0.000 C 
ENDBRANCH   5  10
BRANCH   1  19
ATOM     19  CB  ILE A   2      -5.117   3.518 127.546  0.00  0.00    +0.000 C 
ATOM     20  CG2 ILE A   2      -3.711   2.731 127.663  0.00  0.00    +0.000 C 
BRANCH  19  22
ATOM     21  CD1 ILE A   2      -5.523   4.200 124.469  0.00  0.00    +0.000 C 
ATOM     22  CG1 ILE A   2      -6.022   4.318 126.156  0.00  0.00    +0.000 C 
ENDBRANCH  19  22
ENDBRANCH   1  19
BRANCH   8  23
ATOM     23  C   UNK A   0      -6.350   0.645 127.285  0.00  0.00    +0.000 C 
BRANCH  23  24
ATOM     24  C   UNK A   0      -6.013  -1.027 127.586  0.00  0.00    +0.000 C 
ATOM     25  O   UNK A   0      -4.929  -1.415 128.028  0.00  0.00    +0.000 OA
ATOM     26  N   UNK A   0      -7.042  -2.004 127.532  0.00  0.00    +0.000 N 
ATOM     27  C   UNK A   0      -7.575  -2.535 126.311  0.00  0.00    +0.000 C 
ATOM     28  C   UNK A   0      -9.128  -2.895 126.355  0.00  0.00    +0.000 C 
ATOM     29  O   UNK A   0      -9.299  -3.837 127.382  0.00  0.00    +0.000 OA
ATOM     30  C   UNK A   0      -8.563  -3.437 128.543  0.00  0.00    +0.000 C 
ATOM     31  C   UNK A   0      -7.050  -3.180 128.347  0.00  0.00    +0.000 C 
ENDBRANCH  23  24
BRANCH  23  32
ATOM     32  C   UNK A   0      -7.372   0.826 126.090  0.00  0.00    +0.000 A 
ATOM     33  C   UNK A   0      -8.768   0.959 126.293  0.00  0.00    +0.000 A 
ATOM     34  C   UNK A   0      -9.668   0.820 125.219  0.00  0.00    +0.000 A 
ATOM     35  C   UNK A   0      -9.161   0.709 123.935  0.00  0.00    +0.000 A 
ATOM     36  C   UNK A   0     -10.017   0.624 122.719  0.00  0.00    +0.000 C 
ATOM     37  N   UNK A   0      -7.843   0.693 123.691  0.00  0.00    +0.000 NA
ATOM     38  C   UNK A   0      -7.005   0.712 124.752  0.00  0.00    +0.000 A 
ENDBRANCH  23  32
ENDBRANCH   8  23
TORSDOF 6
ENDMDL
MODEL 9
REMARK VINA RESULT:      -8.7      2.263      5.483
REMARK  Name = CHEMBL2037501
REMARK  9 active torsions:
REMARK  status: ('A' for Active; 'I' for Inactive)
REMARK    1  A    between atoms: CD1_1  and  CG1_2
REMARK    2  A    between atoms: CG1_2  and  CB_3
REMARK    3  A    between atoms: CB_3  and  CG2_4
REMARK    4  A    between atoms: CB_3  and  CA_5
REMARK    5  A    between atoms: C_9  and  C_10
REMARK    6  A    between atoms: N_21  and  C_22
REMARK    7  A    between atoms: C_22  and  C_23
REMARK    8  A    between atoms: C_22  and  C_31
REMARK    9  A    between atoms: C_34  and  C_35
REMARK                            x       y       z     vdW  Elec       q    Type
REMARK                         _______ _______ _______ _____ _____    ______ ____
ROOT
ATOM      1  CA  ILE A   2      -6.425   5.800 132.514  0.00  0.00    +0.000 C 
ATOM      2  C   ILE A   2      -7.901   5.750 132.896  0.00  0.00    +0.000 C 
ATOM      3  O   ILE A   2      -8.563   6.206 133.858  0.00  0.00    +0.000 OA
ATOM      4  N   UNK A   1      -8.695   5.312 131.964  0.00  0.00    +0.000 N 
ATOM      5  C   UNK A   1      -8.290   5.482 130.611  0.00  0.00    +0.000 C 
ATOM      6  C   UNK A   1      -7.038   4.636 130.442  0.00  0.00    +0.000 C 
ATOM      7  O   UNK A   1      -6.916   4.050 129.366  0.00  0.00    +0.000 OA
ATOM      8  N   ILE A   2      -6.140   4.644 131.529  0.00  0.00    +0.000 N 
ATOM      9  H   UNK A   1      -9.647   5.444 132.285  0.00  0.00    +0.000 HD
ENDROOT
BRANCH   5  10
ATOM     10  C   UNK A   1      -9.388   4.928 129.717  0.00  0.00    +0.000 C 
ATOM     11  C   UNK A   1      -9.749   5.945 128.623  0.00  0.00    +0.000 C 
ATOM     12  C   UNK A   1     -10.864   6.717 129.271  0.00  0.00    +0.000 A 
ATOM     13  C   UNK A   1     -11.263   8.012 128.993  0.00  0.00    +0.000 A 
ATOM     14  C   UNK A   1     -12.216   8.605 129.824  0.00  0.00    +0.000 A 
ATOM     15  C   UNK A   1     -12.732   7.916 130.934  0.00  0.00    +0.000 A 
ATOM     16  C   UNK A   1     -12.306   6.619 131.229  0.00  0.00    +0.000 A 
ATOM     17  C   UNK A   1     -11.387   6.024 130.377  0.00  0.00    +0.000 A 
ATOM     18  C   UNK A   1     -10.688   4.705 130.555  0.00  0.00    +0.000 C 
ENDBRANCH   5  10
BRANCH   1  19
ATOM     19  CB  ILE A   2      -5.591   5.820 133.755  0.00  0.00    +0.000 C 
ATOM     20  CG2 ILE A   2      -6.031   4.689 134.821  0.00  0.00    +0.000 C 
BRANCH  19  22
ATOM     21  CD1 ILE A   2      -3.060   7.537 134.617  0.00  0.00    +0.000 C 
ATOM     22  CG1 ILE A   2      -4.008   6.690 133.395  0.00  0.00    +0.000 C 
ENDBRANCH  19  22
ENDBRANCH   1  19
BRANCH   8  23
ATOM     23  C   UNK A   0      -4.974   3.589 131.636  0.00  0.00    +0.000 C 
BRANCH  23  24
ATOM     24  C   UNK A   0      -5.265   1.982 132.213  0.00  0.00    +0.000 C 
ATOM     25  O   UNK A   0      -4.601   1.474 133.120  0.00  0.00    +0.000 OA
ATOM     26  N   UNK A   0      -6.414   1.253 131.808  0.00  0.00    +0.000 N 
ATOM     27  C   UNK A   0      -6.542   0.607 130.535  0.00  0.00    +0.000 C 
ATOM     28  C   UNK A   0      -8.019   0.600 129.929  0.00  0.00    +0.000 C 
ATOM     29  O   UNK A   0      -8.838  -0.053 130.864  0.00  0.00    +0.000 OA
ATOM     30  C   UNK A   0      -8.545   0.413 132.185  0.00  0.00    +0.000 C 
ATOM     31  C   UNK A   0      -7.073   0.299 132.647  0.00  0.00    +0.000 C 
ENDBRANCH  23  24
BRANCH  23  32
ATOM     32  C   UNK A   0      -4.052   3.587 130.350  0.00  0.00    +0.000 A 
ATOM     33  C   UNK A   0      -3.307   4.722 129.943  0.00  0.00    +0.000 A 
ATOM     34  C   UNK A   0      -2.741   4.787 128.655  0.00  0.00    +0.000 A 
ATOM     35  C   UNK A   0      -2.788   3.662 127.849  0.00  0.00    +0.000 A 
ATOM     36  C   UNK A   0      -2.165   3.594 126.497  0.00  0.00    +0.000 C 
ATOM     37  N   UNK A   0      -3.386   2.529 128.244  0.00  0.00    +0.000 NA
ATOM     38  C   UNK A   0      -4.021   2.536 129.439  0.00  0.00    +0.000 A 
ENDBRANCH  23  32
ENDBRANCH   8  23
TORSDOF 6
ENDMDL
