MODEL 1
REMARK VINA RESULT:      -7.6      0.000      0.000
REMARK  Name = CHEMBL1094049
REMARK  7 active torsions:
REMARK  status: ('A' for Active; 'I' for Inactive)
REMARK    1  A    between atoms: C_1  and  C_2
REMARK    2  A    between atoms: C_2  and  N_3
REMARK    3  A    between atoms: N_3  and  C_19
REMARK    4  A    between atoms: C_8  and  O_9
REMARK    5  A    between atoms: O_9  and  C_10
REMARK    6  A    between atoms: C_22  and  O_23
REMARK    7  A    between atoms: O_23  and  C_24
REMARK                            x       y       z     vdW  Elec       q    Type
REMARK                         _______ _______ _______ _____ _____    ______ ____
ROOT
ATOM      1  N   UNL     1      -6.152   3.638 125.880  0.00  0.00    +0.000 N 
ATOM      2  C   UNL     1      -7.310   4.084 126.600  0.00  0.00    +0.000 C 
ATOM      3  O   UNL     1      -8.343   4.423 125.995  0.00  0.00    +0.000 OA
ATOM      4  N   UNL     1      -7.355   3.942 127.990  0.00  0.00    +0.000 N 
ATOM      5  C   UNL     1      -8.498   3.714 128.884  0.00  0.00    +0.000 C 
ATOM      6  C   UNL     1      -7.872   4.734 129.869  0.00  0.00    +0.000 C 
ATOM      7  C   UNL     1      -6.582   4.480 129.124  0.00  0.00    +0.000 C 
ENDROOT
BRANCH   1   8
ATOM      8  C   UNL     1      -6.142   3.659 124.408  0.00  0.00    +0.000 A 
ATOM      9  C   UNL     1      -6.790   2.668 123.647  0.00  0.00    +0.000 A 
ATOM     10  C   UNL     1      -6.745   2.657 122.246  0.00  0.00    +0.000 A 
ATOM     11  C   UNL     1      -6.016   3.631 121.592  0.00  0.00    +0.000 A 
ATOM     12  N   UNL     1      -5.343   4.581 122.280  0.00  0.00    +0.000 NA
ATOM     13  C   UNL     1      -5.434   4.587 123.651  0.00  0.00    +0.000 A 
BRANCH  11  14
ATOM     14  O   UNL     1      -5.907   3.735 120.229  0.00  0.00    +0.000 OA
ATOM     15  C   UNL     1      -5.637   5.028 119.695  0.00  0.00    +0.000 C 
ENDBRANCH  11  14
ENDBRANCH   1   8
BRANCH   1  17
ATOM     16  C   UNL     1      -3.787   3.844 126.738  0.00  0.00    +0.000 C 
ATOM     17  C   UNL     1      -4.935   2.965 126.414  0.00  0.00    +0.000 C 
ENDBRANCH   1  17
BRANCH   6  18
ATOM     18  O   UNL     1      -8.331   6.105 129.855  0.00  0.00    +0.000 OA
BRANCH  18  19
ATOM     19  C   UNL     1      -9.630   6.307 130.271  0.00  0.00    +0.000 A 
ATOM     20  C   UNL     1     -10.013   6.161 131.614  0.00  0.00    +0.000 A 
ATOM     21  C   UNL     1     -11.314   6.463 132.016  0.00  0.00    +0.000 A 
ATOM     22  C   UNL     1     -12.218   6.939 131.079  0.00  0.00    +0.000 A 
ATOM     23  F   UNL     1     -13.457   7.260 131.473  0.00  0.00    +0.000 F 
ATOM     24  C   UNL     1     -11.856   7.101 129.747  0.00  0.00    +0.000 A 
ATOM     25  C   UNL     1     -10.561   6.777 129.342  0.00  0.00    +0.000 A 
ATOM     26 CL   UNL     1     -10.138   6.966 127.679  0.00  0.00    +0.000 Cl
ENDBRANCH  18  19
ENDBRANCH   6  18
TORSDOF 5
ENDMDL
MODEL 2
REMARK VINA RESULT:      -7.3      6.100      8.937
REMARK  Name = CHEMBL1094049
REMARK  7 active torsions:
REMARK  status: ('A' for Active; 'I' for Inactive)
REMARK    1  A    between atoms: C_1  and  C_2
REMARK    2  A    between atoms: C_2  and  N_3
REMARK    3  A    between atoms: N_3  and  C_19
REMARK    4  A    between atoms: C_8  and  O_9
REMARK    5  A    between atoms: O_9  and  C_10
REMARK    6  A    between atoms: C_22  and  O_23
REMARK    7  A    between atoms: O_23  and  C_24
REMARK                            x       y       z     vdW  Elec       q    Type
REMARK                         _______ _______ _______ _____ _____    ______ ____
ROOT
ATOM      1  N   UNL     1      -9.058   5.208 131.161  0.00  0.00    +0.000 N 
ATOM      2  C   UNL     1      -9.007   3.970 130.437  0.00  0.00    +0.000 C 
ATOM      3  O   UNL     1      -9.806   3.742 129.512  0.00  0.00    +0.000 OA
ATOM      4  N   UNL     1      -7.928   3.103 130.629  0.00  0.00    +0.000 N 
ATOM      5  C   UNL     1      -7.285   2.167 129.697  0.00  0.00    +0.000 C 
ATOM      6  C   UNL     1      -7.210   1.139 130.854  0.00  0.00    +0.000 C 
ATOM      7  C   UNL     1      -7.394   2.331 131.766  0.00  0.00    +0.000 C 
ENDROOT
BRANCH   1   8
ATOM      8  C   UNL     1     -10.116   6.191 130.874  0.00  0.00    +0.000 A 
ATOM      9  C   UNL     1     -11.338   6.190 131.574  0.00  0.00    +0.000 A 
ATOM     10  C   UNL     1     -12.367   7.094 131.274  0.00  0.00    +0.000 A 
ATOM     11  C   UNL     1     -12.189   7.993 130.241  0.00  0.00    +0.000 A 
ATOM     12  N   UNL     1     -11.050   8.005 129.513  0.00  0.00    +0.000 NA
ATOM     13  C   UNL     1     -10.045   7.132 129.852  0.00  0.00    +0.000 A 
BRANCH  11  14
ATOM     14  O   UNL     1     -13.113   8.933 129.862  0.00  0.00    +0.000 OA
ATOM     15  C   UNL     1     -13.272   9.163 128.465  0.00  0.00    +0.000 C 
ENDBRANCH  11  14
ENDBRANCH   1   8
BRANCH   1  17
ATOM     16  C   UNL     1      -6.922   6.509 131.509  0.00  0.00    +0.000 C 
ATOM     17  C   UNL     1      -8.054   5.765 132.110  0.00  0.00    +0.000 C 
ENDBRANCH   1  17
BRANCH   6  18
ATOM     18  O   UNL     1      -8.228   0.118 130.962  0.00  0.00    +0.000 OA
BRANCH  18  19
ATOM     19  C   UNL     1      -7.807  -1.175 130.731  0.00  0.00    +0.000 A 
ATOM     20  C   UNL     1      -7.784  -1.730 129.442  0.00  0.00    +0.000 A 
ATOM     21  C   UNL     1      -7.266  -3.007 129.231  0.00  0.00    +0.000 A 
ATOM     22  C   UNL     1      -6.744  -3.712 130.305  0.00  0.00    +0.000 A 
ATOM     23  F   UNL     1      -6.216  -4.924 130.096  0.00  0.00    +0.000 F 
ATOM     24  C   UNL     1      -6.747  -3.175 131.587  0.00  0.00    +0.000 A 
ATOM     25  C   UNL     1      -7.287  -1.907 131.801  0.00  0.00    +0.000 A 
ATOM     26 CL   UNL     1      -7.300  -1.267 133.404  0.00  0.00    +0.000 Cl
ENDBRANCH  18  19
ENDBRANCH   6  18
TORSDOF 5
ENDMDL
MODEL 3
REMARK VINA RESULT:      -7.3      5.823      8.765
REMARK  Name = CHEMBL1094049
REMARK  7 active torsions:
REMARK  status: ('A' for Active; 'I' for Inactive)
REMARK    1  A    between atoms: C_1  and  C_2
REMARK    2  A    between atoms: C_2  and  N_3
REMARK    3  A    between atoms: N_3  and  C_19
REMARK    4  A    between atoms: C_8  and  O_9
REMARK    5  A    between atoms: O_9  and  C_10
REMARK    6  A    between atoms: C_22  and  O_23
REMARK    7  A    between atoms: O_23  and  C_24
REMARK                            x       y       z     vdW  Elec       q    Type
REMARK                         _______ _______ _______ _____ _____    ______ ____
ROOT
ATOM      1  N   UNL     1      -9.206   5.381 131.051  0.00  0.00    +0.000 N 
ATOM      2  C   UNL     1      -8.985   4.213 130.247  0.00  0.00    +0.000 C 
ATOM      3  O   UNL     1      -9.608   4.048 129.183  0.00  0.00    +0.000 OA
ATOM      4  N   UNL     1      -7.920   3.359 130.549  0.00  0.00    +0.000 N 
ATOM      5  C   UNL     1      -7.093   2.525 129.667  0.00  0.00    +0.000 C 
ATOM      6  C   UNL     1      -7.174   1.402 130.731  0.00  0.00    +0.000 C 
ATOM      7  C   UNL     1      -7.555   2.503 131.693  0.00  0.00    +0.000 C 
ENDROOT
BRANCH   1   8
ATOM      8  C   UNL     1     -10.239   6.358 130.670  0.00  0.00    +0.000 A 
ATOM      9  C   UNL     1     -11.532   6.325 131.224  0.00  0.00    +0.000 A 
ATOM     10  C   UNL     1     -12.533   7.223 130.831  0.00  0.00    +0.000 A 
ATOM     11  C   UNL     1     -12.252   8.152 129.849  0.00  0.00    +0.000 A 
ATOM     12  N   UNL     1     -11.037   8.198 129.257  0.00  0.00    +0.000 NA
ATOM     13  C   UNL     1     -10.064   7.327 129.687  0.00  0.00    +0.000 A 
BRANCH  11  14
ATOM     14  O   UNL     1     -13.140   9.091 129.390  0.00  0.00    +0.000 OA
ATOM     15  C   UNL     1     -13.208  10.324 130.102  0.00  0.00    +0.000 C 
ENDBRANCH  11  14
ENDBRANCH   1   8
BRANCH   1  17
ATOM     16  C   UNL     1      -7.079   6.465 131.873  0.00  0.00    +0.000 C 
ATOM     17  C   UNL     1      -8.399   5.877 132.201  0.00  0.00    +0.000 C 
ENDBRANCH   1  17
BRANCH   6  18
ATOM     18  O   UNL     1      -8.154   0.350 130.578  0.00  0.00    +0.000 OA
BRANCH  18  19
ATOM     19  C   UNL     1      -7.650  -0.929 130.467  0.00  0.00    +0.000 A 
ATOM     20  C   UNL     1      -7.389  -1.726 131.592  0.00  0.00    +0.000 A 
ATOM     21  C   UNL     1      -6.967  -3.047 131.440  0.00  0.00    +0.000 A 
ATOM     22  C   UNL     1      -6.840  -3.575 130.165  0.00  0.00    +0.000 A 
ATOM     23  F   UNL     1      -6.468  -4.852 130.022  0.00  0.00    +0.000 F 
ATOM     24  C   UNL     1      -7.105  -2.805 129.038  0.00  0.00    +0.000 A 
ATOM     25  C   UNL     1      -7.503  -1.477 129.190  0.00  0.00    +0.000 A 
ATOM     26 CL   UNL     1      -7.808  -0.532 127.778  0.00  0.00    +0.000 Cl
ENDBRANCH  18  19
ENDBRANCH   6  18
TORSDOF 5
ENDMDL
MODEL 4
REMARK VINA RESULT:      -7.2      3.624      8.714
REMARK  Name = CHEMBL1094049
REMARK  7 active torsions:
REMARK  status: ('A' for Active; 'I' for Inactive)
REMARK    1  A    between atoms: C_1  and  C_2
REMARK    2  A    between atoms: C_2  and  N_3
REMARK    3  A    between atoms: N_3  and  C_19
REMARK    4  A    between atoms: C_8  and  O_9
REMARK    5  A    between atoms: O_9  and  C_10
REMARK    6  A    between atoms: C_22  and  O_23
REMARK    7  A    between atoms: O_23  and  C_24
REMARK                            x       y       z     vdW  Elec       q    Type
REMARK                         _______ _______ _______ _____ _____    ______ ____
ROOT
ATOM      1  N   UNL     1      -7.623   4.323 128.744  0.00  0.00    +0.000 N 
ATOM      2  C   UNL     1      -7.550   4.581 127.335  0.00  0.00    +0.000 C 
ATOM      3  O   UNL     1      -8.392   5.309 126.779  0.00  0.00    +0.000 OA
ATOM      4  N   UNL     1      -6.417   4.186 126.618  0.00  0.00    +0.000 N 
ATOM      5  C   UNL     1      -5.784   4.787 125.437  0.00  0.00    +0.000 C 
ATOM      6  C   UNL     1      -5.584   3.357 124.874  0.00  0.00    +0.000 C 
ATOM      7  C   UNL     1      -5.775   2.897 126.301  0.00  0.00    +0.000 C 
ENDROOT
BRANCH   1   8
ATOM      8  C   UNL     1      -8.747   4.847 129.537  0.00  0.00    +0.000 A 
ATOM      9  C   UNL     1      -8.618   6.000 130.334  0.00  0.00    +0.000 A 
ATOM     10  C   UNL     1      -9.671   6.478 131.127  0.00  0.00    +0.000 A 
ATOM     11  C   UNL     1     -10.862   5.779 131.150  0.00  0.00    +0.000 A 
ATOM     12  N   UNL     1     -11.021   4.644 130.433  0.00  0.00    +0.000 NA
ATOM     13  C   UNL     1      -9.984   4.218 129.639  0.00  0.00    +0.000 A 
BRANCH  11  14
ATOM     14  O   UNL     1     -11.967   6.152 131.872  0.00  0.00    +0.000 OA
ATOM     15  C   UNL     1     -12.741   7.234 131.364  0.00  0.00    +0.000 C 
ENDBRANCH  11  14
ENDBRANCH   1   8
BRANCH   1  17
ATOM     16  C   UNL     1      -6.766   2.257 129.917  0.00  0.00    +0.000 C 
ATOM     17  C   UNL     1      -6.594   3.700 129.623  0.00  0.00    +0.000 C 
ENDBRANCH   1  17
BRANCH   6  18
ATOM     18  O   UNL     1      -6.538   2.830 123.924  0.00  0.00    +0.000 OA
BRANCH  18  19
ATOM     19  C   UNL     1      -6.518   3.407 122.672  0.00  0.00    +0.000 A 
ATOM     20  C   UNL     1      -5.361   4.000 122.144  0.00  0.00    +0.000 A 
ATOM     21  C   UNL     1      -5.350   4.491 120.839  0.00  0.00    +0.000 A 
ATOM     22  C   UNL     1      -6.486   4.357 120.056  0.00  0.00    +0.000 A 
ATOM     23  F   UNL     1      -6.463   4.798 118.792  0.00  0.00    +0.000 F 
ATOM     24  C   UNL     1      -7.638   3.763 120.556  0.00  0.00    +0.000 A 
ATOM     25  C   UNL     1      -7.656   3.293 121.869  0.00  0.00    +0.000 A 
ATOM     26 CL   UNL     1      -9.104   2.577 122.478  0.00  0.00    +0.000 Cl
ENDBRANCH  18  19
ENDBRANCH   6  18
TORSDOF 5
ENDMDL
MODEL 5
REMARK VINA RESULT:      -7.2      5.466      9.272
REMARK  Name = CHEMBL1094049
REMARK  7 active torsions:
REMARK  status: ('A' for Active; 'I' for Inactive)
REMARK    1  A    between atoms: C_1  and  C_2
REMARK    2  A    between atoms: C_2  and  N_3
REMARK    3  A    between atoms: N_3  and  C_19
REMARK    4  A    between atoms: C_8  and  O_9
REMARK    5  A    between atoms: O_9  and  C_10
REMARK    6  A    between atoms: C_22  and  O_23
REMARK    7  A    between atoms: O_23  and  C_24
REMARK                            x       y       z     vdW  Elec       q    Type
REMARK                         _______ _______ _______ _____ _____    ______ ____
ROOT
ATOM      1  N   UNL     1      -8.980   3.252 130.105  0.00  0.00    +0.000 N 
ATOM      2  C   UNL     1      -8.439   2.767 128.868  0.00  0.00    +0.000 C 
ATOM      3  O   UNL     1      -8.550   3.431 127.823  0.00  0.00    +0.000 OA
ATOM      4  N   UNL     1      -7.606   1.645 128.873  0.00  0.00    +0.000 N 
ATOM      5  C   UNL     1      -6.483   1.293 127.994  0.00  0.00    +0.000 C 
ATOM      6  C   UNL     1      -7.011  -0.164 127.980  0.00  0.00    +0.000 C 
ATOM      7  C   UNL     1      -7.764   0.223 129.232  0.00  0.00    +0.000 C 
ENDROOT
BRANCH   1   8
ATOM      8  C   UNL     1      -9.751   4.507 130.135  0.00  0.00    +0.000 A 
ATOM      9  C   UNL     1      -9.121   5.763 130.215  0.00  0.00    +0.000 A 
ATOM     10  C   UNL     1      -9.850   6.957 130.290  0.00  0.00    +0.000 A 
ATOM     11  C   UNL     1     -11.230   6.899 130.318  0.00  0.00    +0.000 A 
ATOM     12  N   UNL     1     -11.881   5.715 130.285  0.00  0.00    +0.000 NA
ATOM     13  C   UNL     1     -11.141   4.561 130.176  0.00  0.00    +0.000 A 
BRANCH  11  14
ATOM     14  O   UNL     1     -12.052   7.995 130.376  0.00  0.00    +0.000 OA
ATOM     15  C   UNL     1     -12.253   8.722 129.167  0.00  0.00    +0.000 C 
ENDBRANCH  11  14
ENDBRANCH   1   8
BRANCH   1  17
ATOM     16  C   UNL     1      -9.741   1.785 132.013  0.00  0.00    +0.000 C 
ATOM     17  C   UNL     1      -8.740   2.740 131.483  0.00  0.00    +0.000 C 
ENDBRANCH   1  17
BRANCH   6  18
ATOM     18  O   UNL     1      -7.834  -0.609 126.879  0.00  0.00    +0.000 OA
BRANCH  18  19
ATOM     19  C   UNL     1      -7.207  -1.408 125.946  0.00  0.00    +0.000 A 
ATOM     20  C   UNL     1      -5.866  -1.212 125.580  0.00  0.00    +0.000 A 
ATOM     21  C   UNL     1      -5.235  -2.094 124.703  0.00  0.00    +0.000 A 
ATOM     22  C   UNL     1      -5.939  -3.188 124.221  0.00  0.00    +0.000 A 
ATOM     23  F   UNL     1      -5.322  -4.053 123.407  0.00  0.00    +0.000 F 
ATOM     24  C   UNL     1      -7.263  -3.406 124.581  0.00  0.00    +0.000 A 
ATOM     25  C   UNL     1      -7.900  -2.510 125.439  0.00  0.00    +0.000 A 
ATOM     26 CL   UNL     1      -9.552  -2.788 125.857  0.00  0.00    +0.000 Cl
ENDBRANCH  18  19
ENDBRANCH   6  18
TORSDOF 5
ENDMDL
MODEL 6
REMARK VINA RESULT:      -7.1      4.467      5.659
REMARK  Name = CHEMBL1094049
REMARK  7 active torsions:
REMARK  status: ('A' for Active; 'I' for Inactive)
REMARK    1  A    between atoms: C_1  and  C_2
REMARK    2  A    between atoms: C_2  and  N_3
REMARK    3  A    between atoms: N_3  and  C_19
REMARK    4  A    between atoms: C_8  and  O_9
REMARK    5  A    between atoms: O_9  and  C_10
REMARK    6  A    between atoms: C_22  and  O_23
REMARK    7  A    between atoms: O_23  and  C_24
REMARK                            x       y       z     vdW  Elec       q    Type
REMARK                         _______ _______ _______ _____ _____    ______ ____
ROOT
ATOM      1  N   UNL     1      -6.605   2.738 124.324  0.00  0.00    +0.000 N 
ATOM      2  C   UNL     1      -6.267   3.746 125.289  0.00  0.00    +0.000 C 
ATOM      3  O   UNL     1      -6.305   4.952 124.987  0.00  0.00    +0.000 OA
ATOM      4  N   UNL     1      -6.094   3.388 126.628  0.00  0.00    +0.000 N 
ATOM      5  C   UNL     1      -6.352   4.152 127.856  0.00  0.00    +0.000 C 
ATOM      6  C   UNL     1      -5.024   3.595 128.427  0.00  0.00    +0.000 C 
ATOM      7  C   UNL     1      -5.157   2.523 127.370  0.00  0.00    +0.000 C 
ENDROOT
BRANCH   1   8
ATOM      8  C   UNL     1      -6.919   3.117 122.936  0.00  0.00    +0.000 A 
ATOM      9  C   UNL     1      -5.928   3.586 122.054  0.00  0.00    +0.000 A 
ATOM     10  C   UNL     1      -6.228   3.991 120.746  0.00  0.00    +0.000 A 
ATOM     11  C   UNL     1      -7.541   3.957 120.319  0.00  0.00    +0.000 A 
ATOM     12  N   UNL     1      -8.534   3.553 121.143  0.00  0.00    +0.000 NA
ATOM     13  C   UNL     1      -8.206   3.129 122.408  0.00  0.00    +0.000 A 
BRANCH  11  14
ATOM     14  O   UNL     1      -7.959   4.314 119.063  0.00  0.00    +0.000 OA
ATOM     15  C   UNL     1      -9.364   4.329 118.824  0.00  0.00    +0.000 C 
ENDBRANCH  11  14
ENDBRANCH   1   8
BRANCH   1  17
ATOM     16  C   UNL     1      -8.110   0.946 125.271  0.00  0.00    +0.000 C 
ATOM     17  C   UNL     1      -6.859   1.289 124.554  0.00  0.00    +0.000 C 
ENDBRANCH   1  17
BRANCH   6  18
ATOM     18  O   UNL     1      -3.825   4.397 128.344  0.00  0.00    +0.000 OA
BRANCH  18  19
ATOM     19  C   UNL     1      -3.263   4.764 129.549  0.00  0.00    +0.000 A 
ATOM     20  C   UNL     1      -3.402   3.978 130.704  0.00  0.00    +0.000 A 
ATOM     21  C   UNL     1      -2.744   4.330 131.882  0.00  0.00    +0.000 A 
ATOM     22  C   UNL     1      -1.925   5.448 131.892  0.00  0.00    +0.000 A 
ATOM     23  F   UNL     1      -1.267   5.766 133.014  0.00  0.00    +0.000 F 
ATOM     24  C   UNL     1      -1.765   6.232 130.756  0.00  0.00    +0.000 A 
ATOM     25  C   UNL     1      -2.442   5.893 129.584  0.00  0.00    +0.000 A 
ATOM     26 CL   UNL     1      -2.246   6.892 128.190  0.00  0.00    +0.000 Cl
ENDBRANCH  18  19
ENDBRANCH   6  18
TORSDOF 5
ENDMDL
MODEL 7
REMARK VINA RESULT:      -7.1      2.619      2.853
REMARK  Name = CHEMBL1094049
REMARK  7 active torsions:
REMARK  status: ('A' for Active; 'I' for Inactive)
REMARK    1  A    between atoms: C_1  and  C_2
REMARK    2  A    between atoms: C_2  and  N_3
REMARK    3  A    between atoms: N_3  and  C_19
REMARK    4  A    between atoms: C_8  and  O_9
REMARK    5  A    between atoms: O_9  and  C_10
REMARK    6  A    between atoms: C_22  and  O_23
REMARK    7  A    between atoms: O_23  and  C_24
REMARK                            x       y       z     vdW  Elec       q    Type
REMARK                         _______ _______ _______ _____ _____    ______ ____
ROOT
ATOM      1  N   UNL     1      -6.216   2.768 125.930  0.00  0.00    +0.000 N 
ATOM      2  C   UNL     1      -7.377   3.029 126.732  0.00  0.00    +0.000 C 
ATOM      3  O   UNL     1      -8.387   3.556 126.234  0.00  0.00    +0.000 OA
ATOM      4  N   UNL     1      -7.454   2.503 128.025  0.00  0.00    +0.000 N 
ATOM      5  C   UNL     1      -8.621   2.068 128.804  0.00  0.00    +0.000 C 
ATOM      6  C   UNL     1      -7.989   2.751 130.044  0.00  0.00    +0.000 C 
ATOM      7  C   UNL     1      -6.690   2.677 129.274  0.00  0.00    +0.000 C 
ENDROOT
BRANCH   1   8
ATOM      8  C   UNL     1      -6.175   3.202 124.524  0.00  0.00    +0.000 A 
ATOM      9  C   UNL     1      -6.758   2.439 123.495  0.00  0.00    +0.000 A 
ATOM     10  C   UNL     1      -6.682   2.824 122.149  0.00  0.00    +0.000 A 
ATOM     11  C   UNL     1      -5.987   3.971 121.818  0.00  0.00    +0.000 A 
ATOM     12  N   UNL     1      -5.375   4.715 122.767  0.00  0.00    +0.000 NA
ATOM     13  C   UNL     1      -5.496   4.333 124.081  0.00  0.00    +0.000 A 
BRANCH  11  14
ATOM     14  O   UNL     1      -5.853   4.458 120.544  0.00  0.00    +0.000 OA
ATOM     15  C   UNL     1      -6.938   4.237 119.646  0.00  0.00    +0.000 C 
ENDBRANCH  11  14
ENDBRANCH   1   8
BRANCH   1  17
ATOM     16  C   UNL     1      -3.844   2.659 126.789  0.00  0.00    +0.000 C 
ATOM     17  C   UNL     1      -5.028   1.935 126.268  0.00  0.00    +0.000 C 
ENDBRANCH   1  17
BRANCH   6  18
ATOM     18  O   UNL     1      -8.411   4.083 130.412  0.00  0.00    +0.000 OA
BRANCH  18  19
ATOM     19  C   UNL     1      -8.429   4.355 131.764  0.00  0.00    +0.000 A 
ATOM     20  C   UNL     1      -8.760   3.377 132.715  0.00  0.00    +0.000 A 
ATOM     21  C   UNL     1      -8.678   3.660 134.078  0.00  0.00    +0.000 A 
ATOM     22  C   UNL     1      -8.233   4.908 134.485  0.00  0.00    +0.000 A 
ATOM     23  F   UNL     1      -8.122   5.167 135.794  0.00  0.00    +0.000 F 
ATOM     24  C   UNL     1      -7.889   5.886 133.559  0.00  0.00    +0.000 A 
ATOM     25  C   UNL     1      -7.994   5.610 132.196  0.00  0.00    +0.000 A 
ATOM     26 CL   UNL     1      -7.582   6.845 131.062  0.00  0.00    +0.000 Cl
ENDBRANCH  18  19
ENDBRANCH   6  18
TORSDOF 5
ENDMDL
MODEL 8
REMARK VINA RESULT:      -7.0      6.401      8.574
REMARK  Name = CHEMBL1094049
REMARK  7 active torsions:
REMARK  status: ('A' for Active; 'I' for Inactive)
REMARK    1  A    between atoms: C_1  and  C_2
REMARK    2  A    between atoms: C_2  and  N_3
REMARK    3  A    between atoms: N_3  and  C_19
REMARK    4  A    between atoms: C_8  and  O_9
REMARK    5  A    between atoms: O_9  and  C_10
REMARK    6  A    between atoms: C_22  and  O_23
REMARK    7  A    between atoms: O_23  and  C_24
REMARK                            x       y       z     vdW  Elec       q    Type
REMARK                         _______ _______ _______ _____ _____    ______ ____
ROOT
ATOM      1  N   UNL     1      -9.362   5.271 131.024  0.00  0.00    +0.000 N 
ATOM      2  C   UNL     1      -8.056   5.767 131.351  0.00  0.00    +0.000 C 
ATOM      3  O   UNL     1      -7.798   6.981 131.263  0.00  0.00    +0.000 OA
ATOM      4  N   UNL     1      -7.130   4.921 131.967  0.00  0.00    +0.000 N 
ATOM      5  C   UNL     1      -6.056   5.224 132.921  0.00  0.00    +0.000 C 
ATOM      6  C   UNL     1      -5.149   4.237 132.142  0.00  0.00    +0.000 C 
ATOM      7  C   UNL     1      -6.438   3.674 131.591  0.00  0.00    +0.000 C 
ENDROOT
BRANCH   1   8
ATOM      8  C   UNL     1     -10.391   6.182 130.496  0.00  0.00    +0.000 A 
ATOM      9  C   UNL     1     -11.491   6.589 131.274  0.00  0.00    +0.000 A 
ATOM     10  C   UNL     1     -12.497   7.419 130.762  0.00  0.00    +0.000 A 
ATOM     11  C   UNL     1     -12.424   7.827 129.444  0.00  0.00    +0.000 A 
ATOM     12  N   UNL     1     -11.408   7.430 128.645  0.00  0.00    +0.000 NA
ATOM     13  C   UNL     1     -10.418   6.644 129.183  0.00  0.00    +0.000 A 
BRANCH  11  14
ATOM     14  O   UNL     1     -13.336   8.648 128.834  0.00  0.00    +0.000 OA
ATOM     15  C   UNL     1     -13.258  10.040 129.127  0.00  0.00    +0.000 C 
ENDBRANCH  11  14
ENDBRANCH   1   8
BRANCH   1  17
ATOM     16  C   UNL     1      -9.854   2.939 130.190  0.00  0.00    +0.000 C 
ATOM     17  C   UNL     1      -9.932   3.922 131.297  0.00  0.00    +0.000 C 
ENDBRANCH   1  17
BRANCH   6  18
ATOM     18  O   UNL     1      -4.229   4.751 131.153  0.00  0.00    +0.000 OA
BRANCH  18  19
ATOM     19  C   UNL     1      -3.116   5.400 131.648  0.00  0.00    +0.000 A 
ATOM     20  C   UNL     1      -2.043   4.702 132.223  0.00  0.00    +0.000 A 
ATOM     21  C   UNL     1      -0.894   5.381 132.629  0.00  0.00    +0.000 A 
ATOM     22  C   UNL     1      -0.811   6.750 132.428  0.00  0.00    +0.000 A 
ATOM     23  F   UNL     1       0.306   7.395 132.787  0.00  0.00    +0.000 F 
ATOM     24  C   UNL     1      -1.858   7.457 131.850  0.00  0.00    +0.000 A 
ATOM     25  C   UNL     1      -3.016   6.781 131.466  0.00  0.00    +0.000 A 
ATOM     26 CL   UNL     1      -4.313   7.681 130.769  0.00  0.00    +0.000 Cl
ENDBRANCH  18  19
ENDBRANCH   6  18
TORSDOF 5
ENDMDL
MODEL 9
REMARK VINA RESULT:      -7.0      4.553      6.020
REMARK  Name = CHEMBL1094049
REMARK  7 active torsions:
REMARK  status: ('A' for Active; 'I' for Inactive)
REMARK    1  A    between atoms: C_1  and  C_2
REMARK    2  A    between atoms: C_2  and  N_3
REMARK    3  A    between atoms: N_3  and  C_19
REMARK    4  A    between atoms: C_8  and  O_9
REMARK    5  A    between atoms: O_9  and  C_10
REMARK    6  A    between atoms: C_22  and  O_23
REMARK    7  A    between atoms: O_23  and  C_24
REMARK                            x       y       z     vdW  Elec       q    Type
REMARK                         _______ _______ _______ _____ _____    ______ ____
ROOT
ATOM      1  N   UNL     1      -6.691   2.300 124.657  0.00  0.00    +0.000 N 
ATOM      2  C   UNL     1      -5.701   2.265 125.695  0.00  0.00    +0.000 C 
ATOM      3  O   UNL     1      -5.395   1.192 126.244  0.00  0.00    +0.000 OA
ATOM      4  N   UNL     1      -4.928   3.401 125.949  0.00  0.00    +0.000 N 
ATOM      5  C   UNL     1      -3.546   3.519 126.433  0.00  0.00    +0.000 C 
ATOM      6  C   UNL     1      -4.013   4.686 127.340  0.00  0.00    +0.000 C 
ATOM      7  C   UNL     1      -5.203   4.773 126.413  0.00  0.00    +0.000 C 
ENDROOT
BRANCH   1   8
ATOM      8  C   UNL     1      -7.422   1.076 124.288  0.00  0.00    +0.000 A 
ATOM      9  C   UNL     1      -6.938   0.191 123.306  0.00  0.00    +0.000 A 
ATOM     10  C   UNL     1      -7.652  -0.952 122.918  0.00  0.00    +0.000 A 
ATOM     11  C   UNL     1      -8.882  -1.201 123.495  0.00  0.00    +0.000 A 
ATOM     12  N   UNL     1      -9.407  -0.359 124.412  0.00  0.00    +0.000 NA
ATOM     13  C   UNL     1      -8.670   0.735 124.799  0.00  0.00    +0.000 A 
BRANCH  11  14
ATOM     14  O   UNL     1      -9.667  -2.288 123.210  0.00  0.00    +0.000 OA
ATOM     15  C   UNL     1      -9.386  -3.495 123.913  0.00  0.00    +0.000 C 
ENDBRANCH  11  14
ENDBRANCH   1   8
BRANCH   1  17
ATOM     16  C   UNL     1      -6.013   3.687 122.659  0.00  0.00    +0.000 C 
ATOM     17  C   UNL     1      -7.010   3.415 123.722  0.00  0.00    +0.000 C 
ENDBRANCH   1  17
BRANCH   6  18
ATOM     18  O   UNL     1      -4.330   4.422 128.726  0.00  0.00    +0.000 OA
BRANCH  18  19
ATOM     19  C   UNL     1      -3.914   5.378 129.629  0.00  0.00    +0.000 A 
ATOM     20  C   UNL     1      -2.582   5.820 129.684  0.00  0.00    +0.000 A 
ATOM     21  C   UNL     1      -2.215   6.853 130.545  0.00  0.00    +0.000 A 
ATOM     22  C   UNL     1      -3.187   7.463 131.323  0.00  0.00    +0.000 A 
ATOM     23  F   UNL     1      -2.839   8.478 132.124  0.00  0.00    +0.000 F 
ATOM     24  C   UNL     1      -4.512   7.049 131.274  0.00  0.00    +0.000 A 
ATOM     25  C   UNL     1      -4.875   5.999 130.430  0.00  0.00    +0.000 A 
ATOM     26 CL   UNL     1      -6.523   5.487 130.399  0.00  0.00    +0.000 Cl
ENDBRANCH  18  19
ENDBRANCH   6  18
TORSDOF 5
ENDMDL
