MODEL 1
REMARK VINA RESULT:      -8.1      0.000      0.000
REMARK  Name = CHEMBL475207
REMARK  6 active torsions:
REMARK  status: ('A' for Active; 'I' for Inactive)
REMARK    1  A    between atoms: C_2  and  C_3
REMARK    2  A    between atoms: C_6  and  C_7
REMARK    3  A    between atoms: N_15  and  C_16
REMARK    4  A    between atoms: N_15  and  C_20
REMARK    5  A    between atoms: C_16  and  C_17
REMARK    6  A    between atoms: C_20  and  C_21
REMARK                            x       y       z     vdW  Elec       q    Type
REMARK                         _______ _______ _______ _____ _____    ______ ____
ROOT
ATOM      1  O   UNL     1      -9.184   1.374 126.940  0.00  0.00    +0.000 OA
ATOM      2  C   UNL     1      -8.450   0.954 126.060  0.00  0.00    +0.000 C 
ATOM      3  N   UNL     1      -7.721  -0.233 126.188  0.00  0.00    +0.000 N 
ENDROOT
BRANCH   2   4
ATOM      4  C   UNL     1      -8.310   1.816 124.854  0.00  0.00    +0.000 A 
ATOM      5  C   UNL     1      -9.143   1.860 123.734  0.00  0.00    +0.000 A 
ATOM      6  C   UNL     1      -8.659   2.427 122.558  0.00  0.00    +0.000 A 
ATOM      7  C   UNL     1      -7.439   3.121 122.555  0.00  0.00    +0.000 A 
ATOM      8  C   UNL     1      -6.686   3.197 123.724  0.00  0.00    +0.000 A 
ATOM      9  C   UNL     1      -7.128   2.563 124.862  0.00  0.00    +0.000 A 
BRANCH   7  10
ATOM     10  C   UNL     1      -6.951   3.766 121.351  0.00  0.00    +0.000 A 
ATOM     11  C   UNL     1      -5.634   4.235 121.278  0.00  0.00    +0.000 A 
ATOM     12  C   UNL     1      -5.203   4.924 120.150  0.00  0.00    +0.000 A 
ATOM     13  C   UNL     1      -6.057   5.070 119.058  0.00  0.00    +0.000 A 
ATOM     14  C   UNL     1      -7.356   4.566 119.105  0.00  0.00    +0.000 A 
ATOM     15  C   UNL     1      -7.804   3.923 120.251  0.00  0.00    +0.000 A 
ENDBRANCH   7  10
ENDBRANCH   2   4
BRANCH   3  16
ATOM     16  C   UNL     1      -8.132  -1.175 127.225  0.00  0.00    +0.000 C 
BRANCH  16  17
ATOM     17  C   UNL     1      -8.081  -2.636 126.912  0.00  0.00    +0.000 C 
ATOM     18  C   UNL     1      -9.048  -3.685 127.444  0.00  0.00    +0.000 C 
ATOM     19  C   UNL     1      -9.135  -3.254 126.026  0.00  0.00    +0.000 C 
ENDBRANCH  16  17
ENDBRANCH   3  16
BRANCH   3  20
ATOM     20  C   UNL     1      -6.296  -0.169 125.867  0.00  0.00    +0.000 C 
BRANCH  20  21
ATOM     21  C   UNL     1      -5.689  -0.938 124.675  0.00  0.00    +0.000 C 
ATOM     22  C   UNL     1      -6.692  -0.959 123.530  0.00  0.00    +0.000 C 
ATOM     23  C   UNL     1      -6.408  -2.267 122.844  0.00  0.00    +0.000 C 
ATOM     24  C   UNL     1      -5.971  -3.157 123.977  0.00  0.00    +0.000 C 
ATOM     25  O   UNL     1      -5.334  -2.303 124.917  0.00  0.00    +0.000 OA
ENDBRANCH  20  21
ENDBRANCH   3  20
TORSDOF 6
ENDMDL
MODEL 2
REMARK VINA RESULT:      -7.8      2.571      7.850
REMARK  Name = CHEMBL475207
REMARK  6 active torsions:
REMARK  status: ('A' for Active; 'I' for Inactive)
REMARK    1  A    between atoms: C_2  and  C_3
REMARK    2  A    between atoms: C_6  and  C_7
REMARK    3  A    between atoms: N_15  and  C_16
REMARK    4  A    between atoms: N_15  and  C_20
REMARK    5  A    between atoms: C_16  and  C_17
REMARK    6  A    between atoms: C_20  and  C_21
REMARK                            x       y       z     vdW  Elec       q    Type
REMARK                         _______ _______ _______ _____ _____    ______ ____
ROOT
ATOM      1  O   UNL     1     -10.390   0.033 125.729  0.00  0.00    +0.000 OA
ATOM      2  C   UNL     1      -9.362  -0.506 125.347  0.00  0.00    +0.000 C 
ATOM      3  N   UNL     1      -8.894  -0.389 124.033  0.00  0.00    +0.000 N 
ENDROOT
BRANCH   2   4
ATOM      4  C   UNL     1      -8.659  -1.362 126.341  0.00  0.00    +0.000 A 
ATOM      5  C   UNL     1      -8.912  -2.702 126.644  0.00  0.00    +0.000 A 
ATOM      6  C   UNL     1      -8.433  -3.221 127.844  0.00  0.00    +0.000 A 
ATOM      7  C   UNL     1      -7.545  -2.476 128.635  0.00  0.00    +0.000 A 
ATOM      8  C   UNL     1      -7.182  -1.191 128.241  0.00  0.00    +0.000 A 
ATOM      9  C   UNL     1      -7.725  -0.650 127.098  0.00  0.00    +0.000 A 
BRANCH   7  10
ATOM     10  C   UNL     1      -6.993  -3.028 129.858  0.00  0.00    +0.000 A 
ATOM     11  C   UNL     1      -5.951  -3.960 129.811  0.00  0.00    +0.000 A 
ATOM     12  C   UNL     1      -5.485  -4.544 130.984  0.00  0.00    +0.000 A 
ATOM     13  C   UNL     1      -5.999  -4.132 132.214  0.00  0.00    +0.000 A 
ATOM     14  C   UNL     1      -7.005  -3.170 132.272  0.00  0.00    +0.000 A 
ATOM     15  C   UNL     1      -7.507  -2.626 131.097  0.00  0.00    +0.000 A 
ENDBRANCH   7  10
ENDBRANCH   2   4
BRANCH   3  16
ATOM     16  C   UNL     1      -9.431   0.692 123.213  0.00  0.00    +0.000 C 
BRANCH  16  17
ATOM     17  C   UNL     1      -8.663   1.974 123.144  0.00  0.00    +0.000 C 
ATOM     18  C   UNL     1      -8.524   2.980 124.278  0.00  0.00    +0.000 C 
ATOM     19  C   UNL     1      -7.371   2.120 123.911  0.00  0.00    +0.000 C 
ENDBRANCH  16  17
ENDBRANCH   3  16
BRANCH   3  20
ATOM     20  C   UNL     1      -8.530  -1.631 123.352  0.00  0.00    +0.000 C 
BRANCH  20  21
ATOM     21  C   UNL     1      -7.061  -2.075 123.187  0.00  0.00    +0.000 C 
ATOM     22  C   UNL     1      -6.865  -3.419 123.875  0.00  0.00    +0.000 C 
ATOM     23  C   UNL     1      -5.437  -3.364 124.342  0.00  0.00    +0.000 C 
ATOM     24  C   UNL     1      -5.234  -1.903 124.644  0.00  0.00    +0.000 C 
ATOM     25  O   UNL     1      -6.071  -1.201 123.735  0.00  0.00    +0.000 OA
ENDBRANCH  20  21
ENDBRANCH   3  20
TORSDOF 6
ENDMDL
MODEL 3
REMARK VINA RESULT:      -7.6      7.566      9.578
REMARK  Name = CHEMBL475207
REMARK  6 active torsions:
REMARK  status: ('A' for Active; 'I' for Inactive)
REMARK    1  A    between atoms: C_2  and  C_3
REMARK    2  A    between atoms: C_6  and  C_7
REMARK    3  A    between atoms: N_15  and  C_16
REMARK    4  A    between atoms: N_15  and  C_20
REMARK    5  A    between atoms: C_16  and  C_17
REMARK    6  A    between atoms: C_20  and  C_21
REMARK                            x       y       z     vdW  Elec       q    Type
REMARK                         _______ _______ _______ _____ _____    ______ ____
ROOT
ATOM      1  O   UNL     1      -5.413   6.222 133.305  0.00  0.00    +0.000 OA
ATOM      2  C   UNL     1      -6.146   5.479 132.671  0.00  0.00    +0.000 C 
ATOM      3  N   UNL     1      -5.768   4.184 132.301  0.00  0.00    +0.000 N 
ENDROOT
BRANCH   2   4
ATOM      4  C   UNL     1      -7.452   6.051 132.244  0.00  0.00    +0.000 A 
ATOM      5  C   UNL     1      -8.720   5.759 132.754  0.00  0.00    +0.000 A 
ATOM      6  C   UNL     1      -9.840   6.085 131.994  0.00  0.00    +0.000 A 
ATOM      7  C   UNL     1      -9.709   6.871 130.838  0.00  0.00    +0.000 A 
ATOM      8  C   UNL     1      -8.446   7.283 130.423  0.00  0.00    +0.000 A 
ATOM      9  C   UNL     1      -7.334   6.888 131.131  0.00  0.00    +0.000 A 
BRANCH   7  10
ATOM     10  C   UNL     1     -10.875   7.266 130.070  0.00  0.00    +0.000 A 
ATOM     11  C   UNL     1     -10.737   8.057 128.924  0.00  0.00    +0.000 A 
ATOM     12  C   UNL     1     -11.866   8.498 128.242  0.00  0.00    +0.000 A 
ATOM     13  C   UNL     1     -13.131   8.078 128.652  0.00  0.00    +0.000 A 
ATOM     14  C   UNL     1     -13.274   7.252 129.766  0.00  0.00    +0.000 A 
ATOM     15  C   UNL     1     -12.150   6.855 130.478  0.00  0.00    +0.000 A 
ENDBRANCH   7  10
ENDBRANCH   2   4
BRANCH   3  16
ATOM     16  C   UNL     1      -4.641   3.577 133.002  0.00  0.00    +0.000 C 
BRANCH  16  17
ATOM     17  C   UNL     1      -3.337   3.464 132.278  0.00  0.00    +0.000 C 
ATOM     18  C   UNL     1      -2.518   4.634 131.752  0.00  0.00    +0.000 C 
ATOM     19  C   UNL     1      -2.059   3.895 132.955  0.00  0.00    +0.000 C 
ENDBRANCH  16  17
ENDBRANCH   3  16
BRANCH   3  20
ATOM     20  C   UNL     1      -5.962   3.817 130.899  0.00  0.00    +0.000 C 
BRANCH  20  21
ATOM     21  C   UNL     1      -7.067   2.837 130.452  0.00  0.00    +0.000 C 
ATOM     22  C   UNL     1      -8.067   3.577 129.574  0.00  0.00    +0.000 C 
ATOM     23  C   UNL     1      -9.366   2.875 129.860  0.00  0.00    +0.000 C 
ATOM     24  C   UNL     1      -9.219   2.463 131.301  0.00  0.00    +0.000 C 
ATOM     25  O   UNL     1      -7.832   2.228 131.496  0.00  0.00    +0.000 OA
ENDBRANCH  20  21
ENDBRANCH   3  20
TORSDOF 6
ENDMDL
MODEL 4
REMARK VINA RESULT:      -7.6      7.772     10.212
REMARK  Name = CHEMBL475207
REMARK  6 active torsions:
REMARK  status: ('A' for Active; 'I' for Inactive)
REMARK    1  A    between atoms: C_2  and  C_3
REMARK    2  A    between atoms: C_6  and  C_7
REMARK    3  A    between atoms: N_15  and  C_16
REMARK    4  A    between atoms: N_15  and  C_20
REMARK    5  A    between atoms: C_16  and  C_17
REMARK    6  A    between atoms: C_20  and  C_21
REMARK                            x       y       z     vdW  Elec       q    Type
REMARK                         _______ _______ _______ _____ _____    ______ ____
ROOT
ATOM      1  O   UNL     1     -10.067   6.384 132.690  0.00  0.00    +0.000 OA
ATOM      2  C   UNL     1      -9.389   6.133 131.706  0.00  0.00    +0.000 C 
ATOM      3  N   UNL     1      -9.925   5.557 130.550  0.00  0.00    +0.000 N 
ENDROOT
BRANCH   2   4
ATOM      4  C   UNL     1      -7.930   6.408 131.824  0.00  0.00    +0.000 A 
ATOM      5  C   UNL     1      -7.121   7.119 130.936  0.00  0.00    +0.000 A 
ATOM      6  C   UNL     1      -5.741   6.950 131.002  0.00  0.00    +0.000 A 
ATOM      7  C   UNL     1      -5.163   6.239 132.065  0.00  0.00    +0.000 A 
ATOM      8  C   UNL     1      -5.980   5.659 133.032  0.00  0.00    +0.000 A 
ATOM      9  C   UNL     1      -7.348   5.758 132.916  0.00  0.00    +0.000 A 
BRANCH   7  10
ATOM     10  C   UNL     1      -3.723   6.105 132.177  0.00  0.00    +0.000 A 
ATOM     11  C   UNL     1      -2.884   7.198 131.932  0.00  0.00    +0.000 A 
ATOM     12  C   UNL     1      -1.504   7.037 131.962  0.00  0.00    +0.000 A 
ATOM     13  C   UNL     1      -0.958   5.806 132.324  0.00  0.00    +0.000 A 
ATOM     14  C   UNL     1      -1.787   4.724 132.615  0.00  0.00    +0.000 A 
ATOM     15  C   UNL     1      -3.165   4.870 132.534  0.00  0.00    +0.000 A 
ENDBRANCH   7  10
ENDBRANCH   2   4
BRANCH   3  16
ATOM     16  C   UNL     1     -11.373   5.606 130.374  0.00  0.00    +0.000 C 
BRANCH  16  17
ATOM     17  C   UNL     1     -11.946   6.708 129.540  0.00  0.00    +0.000 C 
ATOM     18  C   UNL     1     -12.405   8.061 130.065  0.00  0.00    +0.000 C 
ATOM     19  C   UNL     1     -11.141   7.961 129.293  0.00  0.00    +0.000 C 
ENDBRANCH  16  17
ENDBRANCH   3  16
BRANCH   3  20
ATOM     20  C   UNL     1      -9.222   4.395 130.006  0.00  0.00    +0.000 C 
BRANCH  20  21
ATOM     21  C   UNL     1      -9.701   2.951 130.266  0.00  0.00    +0.000 C 
ATOM     22  C   UNL     1      -9.674   2.678 131.764  0.00  0.00    +0.000 C 
ATOM     23  C   UNL     1      -9.368   1.207 131.842  0.00  0.00    +0.000 C 
ATOM     24  C   UNL     1      -8.493   0.978 130.638  0.00  0.00    +0.000 C 
ATOM     25  O   UNL     1      -8.931   1.910 129.659  0.00  0.00    +0.000 OA
ENDBRANCH  20  21
ENDBRANCH   3  20
TORSDOF 6
ENDMDL
MODEL 5
REMARK VINA RESULT:      -7.6      2.034      7.366
REMARK  Name = CHEMBL475207
REMARK  6 active torsions:
REMARK  status: ('A' for Active; 'I' for Inactive)
REMARK    1  A    between atoms: C_2  and  C_3
REMARK    2  A    between atoms: C_6  and  C_7
REMARK    3  A    between atoms: N_15  and  C_16
REMARK    4  A    between atoms: N_15  and  C_20
REMARK    5  A    between atoms: C_16  and  C_17
REMARK    6  A    between atoms: C_20  and  C_21
REMARK                            x       y       z     vdW  Elec       q    Type
REMARK                         _______ _______ _______ _____ _____    ______ ____
ROOT
ATOM      1  O   UNL     1      -4.831   3.887 125.693  0.00  0.00    +0.000 OA
ATOM      2  C   UNL     1      -5.549   3.071 125.136  0.00  0.00    +0.000 C 
ATOM      3  N   UNL     1      -6.104   3.295 123.872  0.00  0.00    +0.000 N 
ENDROOT
BRANCH   2   4
ATOM      4  C   UNL     1      -5.866   1.839 125.910  0.00  0.00    +0.000 A 
ATOM      5  C   UNL     1      -5.144   0.645 125.948  0.00  0.00    +0.000 A 
ATOM      6  C   UNL     1      -5.776  -0.509 126.404  0.00  0.00    +0.000 A 
ATOM      7  C   UNL     1      -7.044  -0.434 127.001  0.00  0.00    +0.000 A 
ATOM      8  C   UNL     1      -7.692   0.795 127.092  0.00  0.00    +0.000 A 
ATOM      9  C   UNL     1      -7.099   1.919 126.564  0.00  0.00    +0.000 A 
BRANCH   7  10
ATOM     10  C   UNL     1      -7.689  -1.619 127.533  0.00  0.00    +0.000 A 
ATOM     11  C   UNL     1      -7.612  -1.921 128.897  0.00  0.00    +0.000 A 
ATOM     12  C   UNL     1      -8.163  -3.102 129.381  0.00  0.00    +0.000 A 
ATOM     13  C   UNL     1      -8.870  -3.940 128.520  0.00  0.00    +0.000 A 
ATOM     14  C   UNL     1      -8.991  -3.624 127.168  0.00  0.00    +0.000 A 
ATOM     15  C   UNL     1      -8.395  -2.471 126.674  0.00  0.00    +0.000 A 
ENDBRANCH   7  10
ENDBRANCH   2   4
BRANCH   3  16
ATOM     16  C   UNL     1      -5.517   4.345 123.047  0.00  0.00    +0.000 C 
BRANCH  16  17
ATOM     17  C   UNL     1      -5.158   4.014 121.633  0.00  0.00    +0.000 C 
ATOM     18  C   UNL     1      -6.085   4.157 120.433  0.00  0.00    +0.000 C 
ATOM     19  C   UNL     1      -4.973   5.121 120.624  0.00  0.00    +0.000 C 
ENDBRANCH  16  17
ENDBRANCH   3  16
BRANCH   3  20
ATOM     20  C   UNL     1      -7.541   3.057 123.733  0.00  0.00    +0.000 C 
BRANCH  20  21
ATOM     21  C   UNL     1      -8.099   1.827 122.986  0.00  0.00    +0.000 C 
ATOM     22  C   UNL     1      -9.366   1.351 123.685  0.00  0.00    +0.000 C 
ATOM     23  C   UNL     1      -9.355  -0.134 123.448  0.00  0.00    +0.000 C 
ATOM     24  C   UNL     1      -7.885  -0.464 123.429  0.00  0.00    +0.000 C 
ATOM     25  O   UNL     1      -7.237   0.689 122.909  0.00  0.00    +0.000 OA
ENDBRANCH  20  21
ENDBRANCH   3  20
TORSDOF 6
ENDMDL
MODEL 6
REMARK VINA RESULT:      -7.6      7.991     10.050
REMARK  Name = CHEMBL475207
REMARK  6 active torsions:
REMARK  status: ('A' for Active; 'I' for Inactive)
REMARK    1  A    between atoms: C_2  and  C_3
REMARK    2  A    between atoms: C_6  and  C_7
REMARK    3  A    between atoms: N_15  and  C_16
REMARK    4  A    between atoms: N_15  and  C_20
REMARK    5  A    between atoms: C_16  and  C_17
REMARK    6  A    between atoms: C_20  and  C_21
REMARK                            x       y       z     vdW  Elec       q    Type
REMARK                         _______ _______ _______ _____ _____    ______ ____
ROOT
ATOM      1  O   UNL     1      -4.346   4.047 129.914  0.00  0.00    +0.000 OA
ATOM      2  C   UNL     1      -5.176   4.000 130.808  0.00  0.00    +0.000 C 
ATOM      3  N   UNL     1      -5.116   3.061 131.844  0.00  0.00    +0.000 N 
ENDROOT
BRANCH   2   4
ATOM      4  C   UNL     1      -6.312   4.958 130.703  0.00  0.00    +0.000 A 
ATOM      5  C   UNL     1      -6.556   6.082 131.494  0.00  0.00    +0.000 A 
ATOM      6  C   UNL     1      -7.837   6.627 131.509  0.00  0.00    +0.000 A 
ATOM      7  C   UNL     1      -8.808   6.183 130.598  0.00  0.00    +0.000 A 
ATOM      8  C   UNL     1      -8.500   5.157 129.708  0.00  0.00    +0.000 A 
ATOM      9  C   UNL     1      -7.259   4.565 129.754  0.00  0.00    +0.000 A 
BRANCH   7  10
ATOM     10  C   UNL     1     -10.129   6.783 130.564  0.00  0.00    +0.000 A 
ATOM     11  C   UNL     1     -11.075   6.477 131.548  0.00  0.00    +0.000 A 
ATOM     12  C   UNL     1     -12.363   6.992 131.460  0.00  0.00    +0.000 A 
ATOM     13  C   UNL     1     -12.683   7.885 130.437  0.00  0.00    +0.000 A 
ATOM     14  C   UNL     1     -11.732   8.230 129.478  0.00  0.00    +0.000 A 
ATOM     15  C   UNL     1     -10.462   7.674 129.536  0.00  0.00    +0.000 A 
ENDBRANCH   7  10
ENDBRANCH   2   4
BRANCH   3  16
ATOM     16  C   UNL     1      -3.846   2.379 132.070  0.00  0.00    +0.000 C 
BRANCH  16  17
ATOM     17  C   UNL     1      -2.894   2.969 133.063  0.00  0.00    +0.000 C 
ATOM     18  C   UNL     1      -1.994   4.170 132.812  0.00  0.00    +0.000 C 
ATOM     19  C   UNL     1      -3.189   4.314 133.681  0.00  0.00    +0.000 C 
ENDBRANCH  16  17
ENDBRANCH   3  16
BRANCH   3  20
ATOM     20  C   UNL     1      -6.340   2.312 132.126  0.00  0.00    +0.000 C 
BRANCH  20  21
ATOM     21  C   UNL     1      -7.175   2.555 133.400  0.00  0.00    +0.000 C 
ATOM     22  C   UNL     1      -8.555   3.062 133.004  0.00  0.00    +0.000 C 
ATOM     23  C   UNL     1      -8.937   3.958 134.149  0.00  0.00    +0.000 C 
ATOM     24  C   UNL     1      -7.613   4.522 134.595  0.00  0.00    +0.000 C 
ATOM     25  O   UNL     1      -6.652   3.511 134.326  0.00  0.00    +0.000 OA
ENDBRANCH  20  21
ENDBRANCH   3  20
TORSDOF 6
ENDMDL
MODEL 7
REMARK VINA RESULT:      -7.4      7.137     10.509
REMARK  Name = CHEMBL475207
REMARK  6 active torsions:
REMARK  status: ('A' for Active; 'I' for Inactive)
REMARK    1  A    between atoms: C_2  and  C_3
REMARK    2  A    between atoms: C_6  and  C_7
REMARK    3  A    between atoms: N_15  and  C_16
REMARK    4  A    between atoms: N_15  and  C_20
REMARK    5  A    between atoms: C_16  and  C_17
REMARK    6  A    between atoms: C_20  and  C_21
REMARK                            x       y       z     vdW  Elec       q    Type
REMARK                         _______ _______ _______ _____ _____    ______ ____
ROOT
ATOM      1  O   UNL     1     -11.624   4.034 129.873  0.00  0.00    +0.000 OA
ATOM      2  C   UNL     1     -10.670   4.147 130.627  0.00  0.00    +0.000 C 
ATOM      3  N   UNL     1     -10.416   5.317 131.350  0.00  0.00    +0.000 N 
ENDROOT
BRANCH   2   4
ATOM      4  C   UNL     1      -9.738   2.987 130.687  0.00  0.00    +0.000 A 
ATOM      5  C   UNL     1      -8.833   2.569 129.709  0.00  0.00    +0.000 A 
ATOM      6  C   UNL     1      -8.333   1.270 129.768  0.00  0.00    +0.000 A 
ATOM      7  C   UNL     1      -8.574   0.468 130.895  0.00  0.00    +0.000 A 
ATOM      8  C   UNL     1      -9.360   0.958 131.935  0.00  0.00    +0.000 A 
ATOM      9  C   UNL     1      -9.921   2.210 131.834  0.00  0.00    +0.000 A 
BRANCH   7  10
ATOM     10  C   UNL     1      -8.011  -0.865 130.995  0.00  0.00    +0.000 A 
ATOM     11  C   UNL     1      -7.847  -1.656 129.852  0.00  0.00    +0.000 A 
ATOM     12  C   UNL     1      -7.383  -2.962 129.970  0.00  0.00    +0.000 A 
ATOM     13  C   UNL     1      -6.998  -3.450 131.219  0.00  0.00    +0.000 A 
ATOM     14  C   UNL     1      -7.115  -2.652 132.356  0.00  0.00    +0.000 A 
ATOM     15  C   UNL     1      -7.628  -1.366 132.245  0.00  0.00    +0.000 A 
ENDBRANCH   7  10
ENDBRANCH   2   4
BRANCH   3  16
ATOM     16  C   UNL     1     -11.506   6.276 131.498  0.00  0.00    +0.000 C 
BRANCH  16  17
ATOM     17  C   UNL     1     -11.710   7.287 130.415  0.00  0.00    +0.000 C 
ATOM     18  C   UNL     1     -12.872   7.301 129.431  0.00  0.00    +0.000 C 
ATOM     19  C   UNL     1     -12.823   8.300 130.529  0.00  0.00    +0.000 C 
ENDBRANCH  16  17
ENDBRANCH   3  16
BRANCH   3  20
ATOM     20  C   UNL     1      -9.057   5.853 131.279  0.00  0.00    +0.000 C 
BRANCH  20  21
ATOM     21  C   UNL     1      -8.089   5.795 132.480  0.00  0.00    +0.000 C 
ATOM     22  C   UNL     1      -7.035   4.727 132.222  0.00  0.00    +0.000 C 
ATOM     23  C   UNL     1      -6.712   4.219 133.600  0.00  0.00    +0.000 C 
ATOM     24  C   UNL     1      -8.023   4.356 134.329  0.00  0.00    +0.000 C 
ATOM     25  O   UNL     1      -8.672   5.479 133.747  0.00  0.00    +0.000 OA
ENDBRANCH  20  21
ENDBRANCH   3  20
TORSDOF 6
ENDMDL
MODEL 8
REMARK VINA RESULT:      -7.4      4.521      7.599
REMARK  Name = CHEMBL475207
REMARK  6 active torsions:
REMARK  status: ('A' for Active; 'I' for Inactive)
REMARK    1  A    between atoms: C_2  and  C_3
REMARK    2  A    between atoms: C_6  and  C_7
REMARK    3  A    between atoms: N_15  and  C_16
REMARK    4  A    between atoms: N_15  and  C_20
REMARK    5  A    between atoms: C_16  and  C_17
REMARK    6  A    between atoms: C_20  and  C_21
REMARK                            x       y       z     vdW  Elec       q    Type
REMARK                         _______ _______ _______ _____ _____    ______ ____
ROOT
ATOM      1  O   UNL     1      -5.934  -4.997 130.477  0.00  0.00    +0.000 OA
ATOM      2  C   UNL     1      -6.293  -3.831 130.515  0.00  0.00    +0.000 C 
ATOM      3  N   UNL     1      -6.045  -3.002 131.614  0.00  0.00    +0.000 N 
ENDROOT
BRANCH   2   4
ATOM      4  C   UNL     1      -7.081  -3.347 129.348  0.00  0.00    +0.000 A 
ATOM      5  C   UNL     1      -8.371  -3.727 128.972  0.00  0.00    +0.000 A 
ATOM      6  C   UNL     1      -8.793  -3.474 127.669  0.00  0.00    +0.000 A 
ATOM      7  C   UNL     1      -8.016  -2.676 126.814  0.00  0.00    +0.000 A 
ATOM      8  C   UNL     1      -6.794  -2.177 127.257  0.00  0.00    +0.000 A 
ATOM      9  C   UNL     1      -6.343  -2.499 128.517  0.00  0.00    +0.000 A 
BRANCH   7  10
ATOM     10  C   UNL     1      -8.471  -2.357 125.474  0.00  0.00    +0.000 A 
ATOM     11  C   UNL     1      -8.929  -3.366 124.619  0.00  0.00    +0.000 A 
ATOM     12  C   UNL     1      -9.285  -3.060 123.310  0.00  0.00    +0.000 A 
ATOM     13  C   UNL     1      -9.269  -1.734 122.879  0.00  0.00    +0.000 A 
ATOM     14  C   UNL     1      -8.857  -0.718 123.739  0.00  0.00    +0.000 A 
ATOM     15  C   UNL     1      -8.452  -1.029 125.030  0.00  0.00    +0.000 A 
ENDBRANCH   7  10
ENDBRANCH   2   4
BRANCH   3  16
ATOM     16  C   UNL     1      -5.019  -3.420 132.564  0.00  0.00    +0.000 C 
BRANCH  16  17
ATOM     17  C   UNL     1      -5.461  -3.982 133.878  0.00  0.00    +0.000 C 
ATOM     18  C   UNL     1      -5.620  -5.463 134.193  0.00  0.00    +0.000 C 
ATOM     19  C   UNL     1      -4.472  -4.709 134.757  0.00  0.00    +0.000 C 
ENDBRANCH  16  17
ENDBRANCH   3  16
BRANCH   3  20
ATOM     20  C   UNL     1      -7.184  -2.252 132.144  0.00  0.00    +0.000 C 
BRANCH  20  21
ATOM     21  C   UNL     1      -7.312  -0.724 131.970  0.00  0.00    +0.000 C 
ATOM     22  C   UNL     1      -8.545  -0.418 131.129  0.00  0.00    +0.000 C 
ATOM     23  C   UNL     1      -8.161   0.837 130.395  0.00  0.00    +0.000 C 
ATOM     24  C   UNL     1      -6.675   0.677 130.202  0.00  0.00    +0.000 C 
ATOM     25  O   UNL     1      -6.219  -0.067 131.323  0.00  0.00    +0.000 OA
ENDBRANCH  20  21
ENDBRANCH   3  20
TORSDOF 6
ENDMDL
MODEL 9
REMARK VINA RESULT:      -7.2      2.775      7.894
REMARK  Name = CHEMBL475207
REMARK  6 active torsions:
REMARK  status: ('A' for Active; 'I' for Inactive)
REMARK    1  A    between atoms: C_2  and  C_3
REMARK    2  A    between atoms: C_6  and  C_7
REMARK    3  A    between atoms: N_15  and  C_16
REMARK    4  A    between atoms: N_15  and  C_20
REMARK    5  A    between atoms: C_16  and  C_17
REMARK    6  A    between atoms: C_20  and  C_21
REMARK                            x       y       z     vdW  Elec       q    Type
REMARK                         _______ _______ _______ _____ _____    ______ ____
ROOT
ATOM      1  O   UNL     1      -4.545   3.171 125.703  0.00  0.00    +0.000 OA
ATOM      2  C   UNL     1      -5.565   2.527 125.513  0.00  0.00    +0.000 C 
ATOM      3  N   UNL     1      -6.497   2.865 124.526  0.00  0.00    +0.000 N 
ENDROOT
BRANCH   2   4
ATOM      4  C   UNL     1      -5.808   1.390 126.443  0.00  0.00    +0.000 A 
ATOM      5  C   UNL     1      -6.106   1.451 127.806  0.00  0.00    +0.000 A 
ATOM      6  C   UNL     1      -5.921   0.312 128.586  0.00  0.00    +0.000 A 
ATOM      7  C   UNL     1      -5.635  -0.922 127.982  0.00  0.00    +0.000 A 
ATOM      8  C   UNL     1      -5.487  -0.996 126.600  0.00  0.00    +0.000 A 
ATOM      9  C   UNL     1      -5.588   0.147 125.842  0.00  0.00    +0.000 A 
BRANCH   7  10
ATOM     10  C   UNL     1      -5.497  -2.127 128.778  0.00  0.00    +0.000 A 
ATOM     11  C   UNL     1      -6.626  -2.774 129.294  0.00  0.00    +0.000 A 
ATOM     12  C   UNL     1      -6.477  -3.880 130.123  0.00  0.00    +0.000 A 
ATOM     13  C   UNL     1      -5.205  -4.396 130.367  0.00  0.00    +0.000 A 
ATOM     14  C   UNL     1      -4.078  -3.785 129.820  0.00  0.00    +0.000 A 
ATOM     15  C   UNL     1      -4.222  -2.649 129.035  0.00  0.00    +0.000 A 
ENDBRANCH   7  10
ENDBRANCH   2   4
BRANCH   3  16
ATOM     16  C   UNL     1      -6.064   3.767 123.463  0.00  0.00    +0.000 C 
BRANCH  16  17
ATOM     17  C   UNL     1      -6.011   3.237 122.066  0.00  0.00    +0.000 C 
ATOM     18  C   UNL     1      -6.683   3.873 120.857  0.00  0.00    +0.000 C 
ATOM     19  C   UNL     1      -5.210   3.966 121.014  0.00  0.00    +0.000 C 
ENDBRANCH  16  17
ENDBRANCH   3  16
BRANCH   3  20
ATOM     20  C   UNL     1      -7.897   2.938 124.940  0.00  0.00    +0.000 C 
BRANCH  20  21
ATOM     21  C   UNL     1      -8.908   1.818 124.614  0.00  0.00    +0.000 C 
ATOM     22  C   UNL     1      -9.234   1.053 125.889  0.00  0.00    +0.000 C 
ATOM     23  C   UNL     1      -9.506  -0.342 125.397  0.00  0.00    +0.000 C 
ATOM     24  C   UNL     1      -8.587  -0.467 124.210  0.00  0.00    +0.000 C 
ATOM     25  O   UNL     1      -8.482   0.839 123.662  0.00  0.00    +0.000 OA
ENDBRANCH  20  21
ENDBRANCH   3  20
TORSDOF 6
ENDMDL
