MODEL 1
REMARK VINA RESULT:      -8.7      0.000      0.000
REMARK  Name = CHEMBL514031
REMARK  7 active torsions:
REMARK  status: ('A' for Active; 'I' for Inactive)
REMARK    1  A    between atoms: C_1  and  C_2
REMARK    2  A    between atoms: C_4  and  C_5
REMARK    3  A    between atoms: C_13  and  C_14
REMARK    4  A    between atoms: N_16  and  C_17
REMARK    5  A    between atoms: N_16  and  C_21
REMARK    6  A    between atoms: C_17  and  C_18
REMARK    7  A    between atoms: C_21  and  C_22
REMARK                            x       y       z     vdW  Elec       q    Type
REMARK                         _______ _______ _______ _____ _____    ______ ____
ROOT
ATOM      1  C   UNL     1      -5.727   3.935 126.192  0.00  0.00    +0.000 C 
ATOM      2  C   UNL     1      -5.947   2.940 124.738  0.00  0.00    +0.000 A 
ATOM      3  C   UNL     1      -6.069   3.665 123.521  0.00  0.00    +0.000 A 
ATOM      4  C   UNL     1      -6.442   3.091 122.262  0.00  0.00    +0.000 A 
ATOM      5  C   UNL     1      -6.819   1.749 122.167  0.00  0.00    +0.000 A 
ATOM      6  C   UNL     1      -6.938   0.986 123.338  0.00  0.00    +0.000 A 
ATOM      7  C   UNL     1      -6.571   1.508 124.638  0.00  0.00    +0.000 A 
ENDROOT
BRANCH   4   8
ATOM      8  C   UNL     1      -6.330   3.985 121.106  0.00  0.00    +0.000 A 
ATOM      9  C   UNL     1      -7.386   3.925 120.174  0.00  0.00    +0.000 A 
ATOM     10  C   UNL     1      -7.324   4.577 118.960  0.00  0.00    +0.000 A 
ATOM     11  C   UNL     1      -6.248   5.413 118.707  0.00  0.00    +0.000 A 
ATOM     12  C   UNL     1      -5.192   5.507 119.621  0.00  0.00    +0.000 A 
ATOM     13  C   UNL     1      -5.215   4.776 120.811  0.00  0.00    +0.000 A 
ENDBRANCH   4   8
BRANCH   7  14
ATOM     14  C   UNL     1      -7.324   0.590 125.814  0.00  0.00    +0.000 C 
ATOM     15  O   UNL     1      -8.203   1.152 126.545  0.00  0.00    +0.000 OA
ATOM     16  N   UNL     1      -6.947  -0.752 126.144  0.00  0.00    +0.000 N 
BRANCH  16  17
ATOM     17  C   UNL     1      -5.645  -1.341 125.808  0.00  0.00    +0.000 C 
BRANCH  17  18
ATOM     18  C   UNL     1      -5.689  -2.291 124.728  0.00  0.00    +0.000 C 
ATOM     19  C   UNL     1      -5.662  -2.426 123.273  0.00  0.00    +0.000 C 
ATOM     20  C   UNL     1      -4.912  -3.469 124.064  0.00  0.00    +0.000 C 
ENDBRANCH  17  18
ENDBRANCH  16  17
BRANCH  16  21
ATOM     21  C   UNL     1      -7.863  -1.727 126.789  0.00  0.00    +0.000 C 
BRANCH  21  22
ATOM     22  C   UNL     1      -9.071  -2.307 125.893  0.00  0.00    +0.000 C 
ATOM     23  C   UNL     1      -8.688  -3.615 125.223  0.00  0.00    +0.000 C 
ATOM     24  C   UNL     1      -9.384  -3.576 123.876  0.00  0.00    +0.000 C 
ATOM     25  C   UNL     1      -9.384  -2.118 123.540  0.00  0.00    +0.000 C 
ATOM     26  O   UNL     1      -9.619  -1.504 124.811  0.00  0.00    +0.000 OA
ENDBRANCH  21  22
ENDBRANCH  16  21
ENDBRANCH   7  14
TORSDOF 6
ENDMDL
MODEL 2
REMARK VINA RESULT:      -8.5      1.734      2.951
REMARK  Name = CHEMBL514031
REMARK  7 active torsions:
REMARK  status: ('A' for Active; 'I' for Inactive)
REMARK    1  A    between atoms: C_1  and  C_2
REMARK    2  A    between atoms: C_4  and  C_5
REMARK    3  A    between atoms: C_13  and  C_14
REMARK    4  A    between atoms: N_16  and  C_17
REMARK    5  A    between atoms: N_16  and  C_21
REMARK    6  A    between atoms: C_17  and  C_18
REMARK    7  A    between atoms: C_21  and  C_22
REMARK                            x       y       z     vdW  Elec       q    Type
REMARK                         _______ _______ _______ _____ _____    ______ ____
ROOT
ATOM      1  C   UNL     1     -10.586   0.856 122.828  0.00  0.00    +0.000 C 
ATOM      2  C   UNL     1      -9.124   1.693 123.390  0.00  0.00    +0.000 A 
ATOM      3  C   UNL     1      -8.367   2.337 122.373  0.00  0.00    +0.000 A 
ATOM      4  C   UNL     1      -7.064   2.902 122.559  0.00  0.00    +0.000 A 
ATOM      5  C   UNL     1      -6.387   2.766 123.774  0.00  0.00    +0.000 A 
ATOM      6  C   UNL     1      -6.947   1.971 124.785  0.00  0.00    +0.000 A 
ATOM      7  C   UNL     1      -8.262   1.378 124.657  0.00  0.00    +0.000 A 
ENDROOT
BRANCH   4   8
ATOM      8  C   UNL     1      -6.546   3.675 121.426  0.00  0.00    +0.000 A 
ATOM      9  C   UNL     1      -5.283   4.274 121.613  0.00  0.00    +0.000 A 
ATOM     10  C   UNL     1      -4.760   5.168 120.701  0.00  0.00    +0.000 A 
ATOM     11  C   UNL     1      -5.440   5.383 119.513  0.00  0.00    +0.000 A 
ATOM     12  C   UNL     1      -6.688   4.789 119.291  0.00  0.00    +0.000 A 
ATOM     13  C   UNL     1      -7.257   3.953 120.255  0.00  0.00    +0.000 A 
ENDBRANCH   4   8
BRANCH   7  14
ATOM     14  C   UNL     1      -8.381   0.107 125.737  0.00  0.00    +0.000 C 
ATOM     15  O   UNL     1      -8.273   0.362 126.981  0.00  0.00    +0.000 OA
ATOM     16  N   UNL     1      -8.460  -1.269 125.347  0.00  0.00    +0.000 N 
BRANCH  16  17
ATOM     17  C   UNL     1      -8.048  -1.769 124.029  0.00  0.00    +0.000 C 
BRANCH  17  18
ATOM     18  C   UNL     1      -6.623  -1.890 123.863  0.00  0.00    +0.000 C 
ATOM     19  C   UNL     1      -5.340  -1.759 124.550  0.00  0.00    +0.000 C 
ATOM     20  C   UNL     1      -5.478  -2.911 123.585  0.00  0.00    +0.000 C 
ENDBRANCH  17  18
ENDBRANCH  16  17
BRANCH  16  21
ATOM     21  C   UNL     1      -9.046  -2.332 126.202  0.00  0.00    +0.000 C 
BRANCH  21  22
ATOM     22  C   UNL     1      -8.039  -3.143 127.165  0.00  0.00    +0.000 C 
ATOM     23  C   UNL     1      -8.713  -3.537 128.468  0.00  0.00    +0.000 C 
ATOM     24  C   UNL     1      -7.619  -3.434 129.514  0.00  0.00    +0.000 C 
ATOM     25  C   UNL     1      -6.768  -2.314 129.000  0.00  0.00    +0.000 C 
ATOM     26  O   UNL     1      -6.790  -2.528 127.586  0.00  0.00    +0.000 OA
ENDBRANCH  21  22
ENDBRANCH  16  21
ENDBRANCH   7  14
TORSDOF 6
ENDMDL
MODEL 3
REMARK VINA RESULT:      -8.2      3.410      8.232
REMARK  Name = CHEMBL514031
REMARK  7 active torsions:
REMARK  status: ('A' for Active; 'I' for Inactive)
REMARK    1  A    between atoms: C_1  and  C_2
REMARK    2  A    between atoms: C_4  and  C_5
REMARK    3  A    between atoms: C_13  and  C_14
REMARK    4  A    between atoms: N_16  and  C_17
REMARK    5  A    between atoms: N_16  and  C_21
REMARK    6  A    between atoms: C_17  and  C_18
REMARK    7  A    between atoms: C_21  and  C_22
REMARK                            x       y       z     vdW  Elec       q    Type
REMARK                         _______ _______ _______ _____ _____    ______ ____
ROOT
ATOM      1  C   UNL     1      -5.633  -0.516 126.243  0.00  0.00    +0.000 C 
ATOM      2  C   UNL     1      -6.581  -1.490 127.386  0.00  0.00    +0.000 A 
ATOM      3  C   UNL     1      -5.824  -2.145 128.396  0.00  0.00    +0.000 A 
ATOM      4  C   UNL     1      -6.345  -3.127 129.300  0.00  0.00    +0.000 A 
ATOM      5  C   UNL     1      -7.656  -3.594 129.177  0.00  0.00    +0.000 A 
ATOM      6  C   UNL     1      -8.434  -3.174 128.088  0.00  0.00    +0.000 A 
ATOM      7  C   UNL     1      -7.965  -2.180 127.145  0.00  0.00    +0.000 A 
ENDROOT
BRANCH   4   8
ATOM      8  C   UNL     1      -5.437  -3.537 130.375  0.00  0.00    +0.000 A 
ATOM      9  C   UNL     1      -5.745  -4.756 131.012  0.00  0.00    +0.000 A 
ATOM     10  C   UNL     1      -5.082  -5.171 132.149  0.00  0.00    +0.000 A 
ATOM     11  C   UNL     1      -4.003  -4.428 132.600  0.00  0.00    +0.000 A 
ATOM     12  C   UNL     1      -3.662  -3.221 131.978  0.00  0.00    +0.000 A 
ATOM     13  C   UNL     1      -4.391  -2.758 130.879  0.00  0.00    +0.000 A 
ENDBRANCH   4   8
BRANCH   7  14
ATOM     14  C   UNL     1      -8.855  -2.318 125.737  0.00  0.00    +0.000 C 
ATOM     15  O   UNL     1     -10.056  -1.892 125.740  0.00  0.00    +0.000 OA
ATOM     16  N   UNL     1      -8.400  -3.009 124.568  0.00  0.00    +0.000 N 
BRANCH  16  17
ATOM     17  C   UNL     1      -7.318  -4.002 124.575  0.00  0.00    +0.000 C 
BRANCH  17  18
ATOM     18  C   UNL     1      -6.031  -3.473 124.209  0.00  0.00    +0.000 C 
ATOM     19  C   UNL     1      -4.617  -3.808 124.058  0.00  0.00    +0.000 C 
ATOM     20  C   UNL     1      -5.210  -2.888 123.019  0.00  0.00    +0.000 C 
ENDBRANCH  17  18
ENDBRANCH  16  17
BRANCH  16  21
ATOM     21  C   UNL     1      -8.914  -2.736 123.202  0.00  0.00    +0.000 C 
BRANCH  21  22
ATOM     22  C   UNL     1      -8.823  -1.218 122.669  0.00  0.00    +0.000 C 
ATOM     23  C   UNL     1      -7.701  -0.455 123.352  0.00  0.00    +0.000 C 
ATOM     24  C   UNL     1      -8.228   0.960 123.495  0.00  0.00    +0.000 C 
ATOM     25  C   UNL     1      -9.699   0.753 123.680  0.00  0.00    +0.000 C 
ATOM     26  O   UNL     1      -9.975  -0.338 122.795  0.00  0.00    +0.000 OA
ENDBRANCH  21  22
ENDBRANCH  16  21
ENDBRANCH   7  14
TORSDOF 6
ENDMDL
MODEL 4
REMARK VINA RESULT:      -8.1      3.299      8.381
REMARK  Name = CHEMBL514031
REMARK  7 active torsions:
REMARK  status: ('A' for Active; 'I' for Inactive)
REMARK    1  A    between atoms: C_1  and  C_2
REMARK    2  A    between atoms: C_4  and  C_5
REMARK    3  A    between atoms: C_13  and  C_14
REMARK    4  A    between atoms: N_16  and  C_17
REMARK    5  A    between atoms: N_16  and  C_21
REMARK    6  A    between atoms: C_17  and  C_18
REMARK    7  A    between atoms: C_21  and  C_22
REMARK                            x       y       z     vdW  Elec       q    Type
REMARK                         _______ _______ _______ _____ _____    ______ ____
ROOT
ATOM      1  C   UNL     1      -7.035   0.835 127.862  0.00  0.00    +0.000 C 
ATOM      2  C   UNL     1      -7.661  -0.812 128.083  0.00  0.00    +0.000 A 
ATOM      3  C   UNL     1      -7.100  -1.531 129.174  0.00  0.00    +0.000 A 
ATOM      4  C   UNL     1      -7.307  -2.926 129.426  0.00  0.00    +0.000 A 
ATOM      5  C   UNL     1      -8.021  -3.721 128.526  0.00  0.00    +0.000 A 
ATOM      6  C   UNL     1      -8.445  -3.167 127.309  0.00  0.00    +0.000 A 
ATOM      7  C   UNL     1      -8.270  -1.763 127.000  0.00  0.00    +0.000 A 
ENDROOT
BRANCH   4   8
ATOM      8  C   UNL     1      -6.784  -3.419 130.704  0.00  0.00    +0.000 A 
ATOM      9  C   UNL     1      -5.820  -4.444 130.622  0.00  0.00    +0.000 A 
ATOM     10  C   UNL     1      -5.377  -5.118 131.741  0.00  0.00    +0.000 A 
ATOM     11  C   UNL     1      -5.799  -4.688 132.989  0.00  0.00    +0.000 A 
ATOM     12  C   UNL     1      -6.743  -3.660 133.104  0.00  0.00    +0.000 A 
ATOM     13  C   UNL     1      -7.257  -3.038 131.963  0.00  0.00    +0.000 A 
ENDBRANCH   4   8
BRANCH   7  14
ATOM     14  C   UNL     1      -8.368  -1.566 125.343  0.00  0.00    +0.000 C 
ATOM     15  O   UNL     1      -9.469  -1.851 124.768  0.00  0.00    +0.000 OA
ATOM     16  N   UNL     1      -7.254  -1.227 124.511  0.00  0.00    +0.000 N 
BRANCH  16  17
ATOM     17  C   UNL     1      -5.852  -1.405 124.910  0.00  0.00    +0.000 C 
BRANCH  17  18
ATOM     18  C   UNL     1      -5.281  -2.664 124.510  0.00  0.00    +0.000 C 
ATOM     19  C   UNL     1      -5.603  -4.027 124.093  0.00  0.00    +0.000 C 
ATOM     20  C   UNL     1      -4.443  -3.361 123.394  0.00  0.00    +0.000 C 
ENDBRANCH  17  18
ENDBRANCH  16  17
BRANCH  16  21
ATOM     21  C   UNL     1      -7.389  -0.578 123.182  0.00  0.00    +0.000 C 
BRANCH  21  22
ATOM     22  C   UNL     1      -8.044   0.894 123.143  0.00  0.00    +0.000 C 
ATOM     23  C   UNL     1      -7.602   1.731 124.331  0.00  0.00    +0.000 C 
ATOM     24  C   UNL     1      -8.812   2.577 124.679  0.00  0.00    +0.000 C 
ATOM     25  C   UNL     1      -9.959   1.686 124.317  0.00  0.00    +0.000 C 
ATOM     26  O   UNL     1      -9.491   1.041 123.128  0.00  0.00    +0.000 OA
ENDBRANCH  21  22
ENDBRANCH  16  21
ENDBRANCH   7  14
TORSDOF 6
ENDMDL
MODEL 5
REMARK VINA RESULT:      -8.0      2.139      3.380
REMARK  Name = CHEMBL514031
REMARK  7 active torsions:
REMARK  status: ('A' for Active; 'I' for Inactive)
REMARK    1  A    between atoms: C_1  and  C_2
REMARK    2  A    between atoms: C_4  and  C_5
REMARK    3  A    between atoms: C_13  and  C_14
REMARK    4  A    between atoms: N_16  and  C_17
REMARK    5  A    between atoms: N_16  and  C_21
REMARK    6  A    between atoms: C_17  and  C_18
REMARK    7  A    between atoms: C_21  and  C_22
REMARK                            x       y       z     vdW  Elec       q    Type
REMARK                         _______ _______ _______ _____ _____    ______ ____
ROOT
ATOM      1  C   UNL     1      -8.882  -0.488 123.254  0.00  0.00    +0.000 C 
ATOM      2  C   UNL     1      -8.079   0.953 123.909  0.00  0.00    +0.000 A 
ATOM      3  C   UNL     1      -7.453   1.789 122.944  0.00  0.00    +0.000 A 
ATOM      4  C   UNL     1      -6.590   2.890 123.253  0.00  0.00    +0.000 A 
ATOM      5  C   UNL     1      -6.215   3.162 124.571  0.00  0.00    +0.000 A 
ATOM      6  C   UNL     1      -6.603   2.280 125.590  0.00  0.00    +0.000 A 
ATOM      7  C   UNL     1      -7.478   1.153 125.340  0.00  0.00    +0.000 A 
ENDROOT
BRANCH   4   8
ATOM      8  C   UNL     1      -6.202   3.725 122.112  0.00  0.00    +0.000 A 
ATOM      9  C   UNL     1      -7.058   3.676 120.992  0.00  0.00    +0.000 A 
ATOM     10  C   UNL     1      -6.723   4.269 119.793  0.00  0.00    +0.000 A 
ATOM     11  C   UNL     1      -5.572   5.038 119.729  0.00  0.00    +0.000 A 
ATOM     12  C   UNL     1      -4.710   5.120 120.829  0.00  0.00    +0.000 A 
ATOM     13  C   UNL     1      -5.008   4.445 122.016  0.00  0.00    +0.000 A 
ENDBRANCH   4   8
BRANCH   7  14
ATOM     14  C   UNL     1      -7.293   0.048 126.582  0.00  0.00    +0.000 C 
ATOM     15  O   UNL     1      -7.856   0.297 127.698  0.00  0.00    +0.000 OA
ATOM     16  N   UNL     1      -6.430  -1.092 126.514  0.00  0.00    +0.000 N 
BRANCH  16  17
ATOM     17  C   UNL     1      -5.323  -1.224 125.559  0.00  0.00    +0.000 C 
BRANCH  17  18
ATOM     18  C   UNL     1      -5.539  -2.217 124.540  0.00  0.00    +0.000 C 
ATOM     19  C   UNL     1      -5.694  -2.417 123.101  0.00  0.00    +0.000 C 
ATOM     20  C   UNL     1      -4.901  -3.460 123.848  0.00  0.00    +0.000 C 
ENDBRANCH  17  18
ENDBRANCH  16  17
BRANCH  16  21
ATOM     21  C   UNL     1      -6.610  -2.308 127.347  0.00  0.00    +0.000 C 
BRANCH  21  22
ATOM     22  C   UNL     1      -5.854  -2.346 128.771  0.00  0.00    +0.000 C 
ATOM     23  C   UNL     1      -4.521  -3.066 128.673  0.00  0.00    +0.000 C 
ATOM     24  C   UNL     1      -4.374  -3.788 130.000  0.00  0.00    +0.000 C 
ATOM     25  C   UNL     1      -5.789  -4.119 130.359  0.00  0.00    +0.000 C 
ATOM     26  O   UNL     1      -6.504  -2.960 129.918  0.00  0.00    +0.000 OA
ENDBRANCH  21  22
ENDBRANCH  16  21
ENDBRANCH   7  14
TORSDOF 6
ENDMDL
MODEL 6
REMARK VINA RESULT:      -7.9      6.635     10.587
REMARK  Name = CHEMBL514031
REMARK  7 active torsions:
REMARK  status: ('A' for Active; 'I' for Inactive)
REMARK    1  A    between atoms: C_1  and  C_2
REMARK    2  A    between atoms: C_4  and  C_5
REMARK    3  A    between atoms: C_13  and  C_14
REMARK    4  A    between atoms: N_16  and  C_17
REMARK    5  A    between atoms: N_16  and  C_21
REMARK    6  A    between atoms: C_17  and  C_18
REMARK    7  A    between atoms: C_21  and  C_22
REMARK                            x       y       z     vdW  Elec       q    Type
REMARK                         _______ _______ _______ _____ _____    ______ ____
ROOT
ATOM      1  C   UNL     1      -7.256   3.743 128.898  0.00  0.00    +0.000 C 
ATOM      2  C   UNL     1      -8.009   2.770 130.178  0.00  0.00    +0.000 A 
ATOM      3  C   UNL     1      -7.739   1.375 130.116  0.00  0.00    +0.000 A 
ATOM      4  C   UNL     1      -8.388   0.381 130.919  0.00  0.00    +0.000 A 
ATOM      5  C   UNL     1      -9.437   0.721 131.776  0.00  0.00    +0.000 A 
ATOM      6  C   UNL     1      -9.931   2.034 131.768  0.00  0.00    +0.000 A 
ATOM      7  C   UNL     1      -9.314   3.083 130.983  0.00  0.00    +0.000 A 
ENDROOT
BRANCH   4   8
ATOM      8  C   UNL     1      -7.827  -0.970 130.820  0.00  0.00    +0.000 A 
ATOM      9  C   UNL     1      -7.829  -1.546 129.533  0.00  0.00    +0.000 A 
ATOM     10  C   UNL     1      -7.497  -2.870 129.328  0.00  0.00    +0.000 A 
ATOM     11  C   UNL     1      -7.030  -3.614 130.399  0.00  0.00    +0.000 A 
ATOM     12  C   UNL     1      -7.000  -3.064 131.687  0.00  0.00    +0.000 A 
ATOM     13  C   UNL     1      -7.421  -1.750 131.907  0.00  0.00    +0.000 A 
ENDBRANCH   4   8
BRANCH   7  14
ATOM     14  C   UNL     1     -10.424   4.315 130.774  0.00  0.00    +0.000 C 
ATOM     15  O   UNL     1     -11.198   4.263 129.762  0.00  0.00    +0.000 OA
ATOM     16  N   UNL     1     -10.470   5.496 131.582  0.00  0.00    +0.000 N 
BRANCH  16  17
ATOM     17  C   UNL     1      -9.347   5.969 132.402  0.00  0.00    +0.000 C 
BRANCH  17  18
ATOM     18  C   UNL     1      -8.132   6.193 131.663  0.00  0.00    +0.000 C 
ATOM     19  C   UNL     1      -7.422   7.156 130.825  0.00  0.00    +0.000 C 
ATOM     20  C   UNL     1      -6.591   6.378 131.815  0.00  0.00    +0.000 C 
ENDBRANCH  17  18
ENDBRANCH  16  17
BRANCH  16  21
ATOM     21  C   UNL     1     -11.687   6.330 131.750  0.00  0.00    +0.000 C 
BRANCH  21  22
ATOM     22  C   UNL     1     -11.941   7.491 130.662  0.00  0.00    +0.000 C 
ATOM     23  C   UNL     1     -13.154   7.189 129.798  0.00  0.00    +0.000 C 
ATOM     24  C   UNL     1     -12.793   7.726 128.426  0.00  0.00    +0.000 C 
ATOM     25  C   UNL     1     -11.312   7.522 128.365  0.00  0.00    +0.000 C 
ATOM     26  O   UNL     1     -10.899   7.823 129.702  0.00  0.00    +0.000 OA
ENDBRANCH  21  22
ENDBRANCH  16  21
ENDBRANCH   7  14
TORSDOF 6
ENDMDL
MODEL 7
REMARK VINA RESULT:      -7.6      8.399     10.787
REMARK  Name = CHEMBL514031
REMARK  7 active torsions:
REMARK  status: ('A' for Active; 'I' for Inactive)
REMARK    1  A    between atoms: C_1  and  C_2
REMARK    2  A    between atoms: C_4  and  C_5
REMARK    3  A    between atoms: C_13  and  C_14
REMARK    4  A    between atoms: N_16  and  C_17
REMARK    5  A    between atoms: N_16  and  C_21
REMARK    6  A    between atoms: C_17  and  C_18
REMARK    7  A    between atoms: C_21  and  C_22
REMARK                            x       y       z     vdW  Elec       q    Type
REMARK                         _______ _______ _______ _____ _____    ______ ____
ROOT
ATOM      1  C   UNL     1      -7.373   3.538 134.075  0.00  0.00    +0.000 C 
ATOM      2  C   UNL     1      -6.866   4.675 132.810  0.00  0.00    +0.000 A 
ATOM      3  C   UNL     1      -5.529   5.147 132.921  0.00  0.00    +0.000 A 
ATOM      4  C   UNL     1      -4.970   6.207 132.135  0.00  0.00    +0.000 A 
ATOM      5  C   UNL     1      -5.760   6.936 131.244  0.00  0.00    +0.000 A 
ATOM      6  C   UNL     1      -7.142   6.698 131.200  0.00  0.00    +0.000 A 
ATOM      7  C   UNL     1      -7.765   5.639 131.966  0.00  0.00    +0.000 A 
ENDROOT
BRANCH   4   8
ATOM      8  C   UNL     1      -3.526   6.407 132.289  0.00  0.00    +0.000 A 
ATOM      9  C   UNL     1      -3.109   7.732 132.533  0.00  0.00    +0.000 A 
ATOM     10  C   UNL     1      -1.776   8.089 132.522  0.00  0.00    +0.000 A 
ATOM     11  C   UNL     1      -0.820   7.095 132.391  0.00  0.00    +0.000 A 
ATOM     12  C   UNL     1      -1.203   5.767 132.164  0.00  0.00    +0.000 A 
ATOM     13  C   UNL     1      -2.555   5.421 132.087  0.00  0.00    +0.000 A 
ENDBRANCH   4   8
BRANCH   7  14
ATOM     14  C   UNL     1      -9.396   5.974 132.111  0.00  0.00    +0.000 C 
ATOM     15  O   UNL     1      -9.816   6.451 133.216  0.00  0.00    +0.000 OA
ATOM     16  N   UNL     1     -10.374   5.632 131.123  0.00  0.00    +0.000 N 
BRANCH  16  17
ATOM     17  C   UNL     1     -10.163   4.618 130.082  0.00  0.00    +0.000 C 
BRANCH  17  18
ATOM     18  C   UNL     1     -10.009   3.279 130.586  0.00  0.00    +0.000 C 
ATOM     19  C   UNL     1      -9.041   2.209 130.818  0.00  0.00    +0.000 C 
ATOM     20  C   UNL     1     -10.095   2.410 131.878  0.00  0.00    +0.000 C 
ENDBRANCH  17  18
ENDBRANCH  16  17
BRANCH  16  21
ATOM     21  C   UNL     1     -11.680   6.324 130.986  0.00  0.00    +0.000 C 
BRANCH  21  22
ATOM     22  C   UNL     1     -11.775   7.514 129.903  0.00  0.00    +0.000 C 
ATOM     23  C   UNL     1     -12.638   7.119 128.717  0.00  0.00    +0.000 C 
ATOM     24  C   UNL     1     -11.982   7.786 127.523  0.00  0.00    +0.000 C 
ATOM     25  C   UNL     1     -10.530   7.775 127.889  0.00  0.00    +0.000 C 
ATOM     26  O   UNL     1     -10.560   8.036 129.296  0.00  0.00    +0.000 OA
ENDBRANCH  21  22
ENDBRANCH  16  21
ENDBRANCH   7  14
TORSDOF 6
ENDMDL
MODEL 8
REMARK VINA RESULT:      -7.4      8.035     10.073
REMARK  Name = CHEMBL514031
REMARK  7 active torsions:
REMARK  status: ('A' for Active; 'I' for Inactive)
REMARK    1  A    between atoms: C_1  and  C_2
REMARK    2  A    between atoms: C_4  and  C_5
REMARK    3  A    between atoms: C_13  and  C_14
REMARK    4  A    between atoms: N_16  and  C_17
REMARK    5  A    between atoms: N_16  and  C_21
REMARK    6  A    between atoms: C_17  and  C_18
REMARK    7  A    between atoms: C_21  and  C_22
REMARK                            x       y       z     vdW  Elec       q    Type
REMARK                         _______ _______ _______ _____ _____    ______ ____
ROOT
ATOM      1  C   UNL     1      -9.621   3.997 133.433  0.00  0.00    +0.000 C 
ATOM      2  C   UNL     1      -9.105   5.417 132.501  0.00  0.00    +0.000 A 
ATOM      3  C   UNL     1     -10.059   5.906 131.566  0.00  0.00    +0.000 A 
ATOM      4  C   UNL     1      -9.794   6.910 130.578  0.00  0.00    +0.000 A 
ATOM      5  C   UNL     1      -8.506   7.422 130.400  0.00  0.00    +0.000 A 
ATOM      6  C   UNL     1      -7.441   6.865 131.124  0.00  0.00    +0.000 A 
ATOM      7  C   UNL     1      -7.647   5.853 132.138  0.00  0.00    +0.000 A 
ENDROOT
BRANCH   4   8
ATOM      8  C   UNL     1     -10.966   7.391 129.842  0.00  0.00    +0.000 A 
ATOM      9  C   UNL     1     -12.204   6.831 130.218  0.00  0.00    +0.000 A 
ATOM     10  C   UNL     1     -13.357   7.060 129.494  0.00  0.00    +0.000 A 
ATOM     11  C   UNL     1     -13.316   7.965 128.446  0.00  0.00    +0.000 A 
ATOM     12  C   UNL     1     -12.105   8.551 128.059  0.00  0.00    +0.000 A 
ATOM     13  C   UNL     1     -10.922   8.249 128.738  0.00  0.00    +0.000 A 
ENDBRANCH   4   8
BRANCH   7  14
ATOM     14  C   UNL     1      -6.202   5.050 132.391  0.00  0.00    +0.000 C 
ATOM     15  O   UNL     1      -5.357   5.570 133.191  0.00  0.00    +0.000 OA
ATOM     16  N   UNL     1      -5.795   3.887 131.662  0.00  0.00    +0.000 N 
BRANCH  16  17
ATOM     17  C   UNL     1      -6.366   3.493 130.368  0.00  0.00    +0.000 C 
BRANCH  17  18
ATOM     18  C   UNL     1      -7.627   2.806 130.464  0.00  0.00    +0.000 C 
ATOM     19  C   UNL     1      -8.935   2.646 129.834  0.00  0.00    +0.000 C 
ATOM     20  C   UNL     1      -8.294   1.398 130.390  0.00  0.00    +0.000 C 
ENDBRANCH  17  18
ENDBRANCH  16  17
BRANCH  16  21
ATOM     21  C   UNL     1      -4.811   2.900 132.174  0.00  0.00    +0.000 C 
BRANCH  21  22
ATOM     22  C   UNL     1      -3.253   3.191 131.877  0.00  0.00    +0.000 C 
ATOM     23  C   UNL     1      -2.512   3.595 133.139  0.00  0.00    +0.000 C 
ATOM     24  C   UNL     1      -1.490   4.617 132.676  0.00  0.00    +0.000 C 
ATOM     25  C   UNL     1      -2.185   5.292 131.535  0.00  0.00    +0.000 C 
ATOM     26  O   UNL     1      -2.880   4.210 130.908  0.00  0.00    +0.000 OA
ENDBRANCH  21  22
ENDBRANCH  16  21
ENDBRANCH   7  14
TORSDOF 6
ENDMDL
MODEL 9
REMARK VINA RESULT:      -7.3      5.063      8.712
REMARK  Name = CHEMBL514031
REMARK  7 active torsions:
REMARK  status: ('A' for Active; 'I' for Inactive)
REMARK    1  A    between atoms: C_1  and  C_2
REMARK    2  A    between atoms: C_4  and  C_5
REMARK    3  A    between atoms: C_13  and  C_14
REMARK    4  A    between atoms: N_16  and  C_17
REMARK    5  A    between atoms: N_16  and  C_21
REMARK    6  A    between atoms: C_17  and  C_18
REMARK    7  A    between atoms: C_21  and  C_22
REMARK                            x       y       z     vdW  Elec       q    Type
REMARK                         _______ _______ _______ _____ _____    ______ ____
ROOT
ATOM      1  C   UNL     1      -6.991   0.014 130.907  0.00  0.00    +0.000 C 
ATOM      2  C   UNL     1      -7.840   0.274 129.370  0.00  0.00    +0.000 A 
ATOM      3  C   UNL     1      -7.567  -0.686 128.358  0.00  0.00    +0.000 A 
ATOM      4  C   UNL     1      -7.983  -0.573 126.991  0.00  0.00    +0.000 A 
ATOM      5  C   UNL     1      -8.622   0.579 126.527  0.00  0.00    +0.000 A 
ATOM      6  C   UNL     1      -8.760   1.680 127.385  0.00  0.00    +0.000 A 
ATOM      7  C   UNL     1      -8.365   1.624 128.777  0.00  0.00    +0.000 A 
ENDROOT
BRANCH   4   8
ATOM      8  C   UNL     1      -7.751  -1.760 126.164  0.00  0.00    +0.000 A 
ATOM      9  C   UNL     1      -6.462  -1.881 125.604  0.00  0.00    +0.000 A 
ATOM     10  C   UNL     1      -6.162  -2.849 124.668  0.00  0.00    +0.000 A 
ATOM     11  C   UNL     1      -7.120  -3.804 124.367  0.00  0.00    +0.000 A 
ATOM     12  C   UNL     1      -8.404  -3.722 124.920  0.00  0.00    +0.000 A 
ATOM     13  C   UNL     1      -8.733  -2.687 125.800  0.00  0.00    +0.000 A 
ENDBRANCH   4   8
BRANCH   7  14
ATOM     14  C   UNL     1      -8.152   3.186 129.334  0.00  0.00    +0.000 C 
ATOM     15  O   UNL     1      -7.114   3.823 128.958  0.00  0.00    +0.000 OA
ATOM     16  N   UNL     1      -8.990   3.806 130.315  0.00  0.00    +0.000 N 
BRANCH  16  17
ATOM     17  C   UNL     1      -9.859   3.062 131.236  0.00  0.00    +0.000 C 
BRANCH  17  18
ATOM     18  C   UNL     1      -9.332   2.932 132.569  0.00  0.00    +0.000 C 
ATOM     19  C   UNL     1      -8.133   2.606 133.337  0.00  0.00    +0.000 C 
ATOM     20  C   UNL     1      -8.988   3.733 133.862  0.00  0.00    +0.000 C 
ENDBRANCH  17  18
ENDBRANCH  16  17
BRANCH  16  21
ATOM     21  C   UNL     1      -9.139   5.277 130.456  0.00  0.00    +0.000 C 
BRANCH  21  22
ATOM     22  C   UNL     1     -10.141   6.017 129.434  0.00  0.00    +0.000 C 
ATOM     23  C   UNL     1     -10.129   7.523 129.635  0.00  0.00    +0.000 C 
ATOM     24  C   UNL     1     -11.558   7.959 129.370  0.00  0.00    +0.000 C 
ATOM     25  C   UNL     1     -12.359   6.785 129.839  0.00  0.00    +0.000 C 
ATOM     26  O   UNL     1     -11.555   5.674 129.431  0.00  0.00    +0.000 OA
ENDBRANCH  21  22
ENDBRANCH  16  21
ENDBRANCH   7  14
TORSDOF 6
ENDMDL
