MODEL 1
REMARK VINA RESULT:      -9.6      0.000      0.000
REMARK  Name = CHEMBL282781
REMARK  6 active torsions:
REMARK  status: ('A' for Active; 'I' for Inactive)
REMARK    1  A    between atoms: C_1  and  S_2
REMARK    2  A    between atoms: S_2  and  N_5
REMARK    3  A    between atoms: N_8  and  C_9
REMARK    4  A    between atoms: C_9  and  C_10
REMARK    5  A    between atoms: C_14  and  C_15
REMARK    6  A    between atoms: C_20  and  N_21
REMARK                            x       y       z     vdW  Elec       q    Type
REMARK                         _______ _______ _______ _____ _____    ______ ____
ROOT
ATOM      1  C   UNL     1      -6.960   7.372 138.502  0.00  0.00    +0.000 A 
ATOM      2  C   UNL     1      -7.819   6.587 137.782  0.00  0.00    +0.000 A 
ATOM      3  C   UNL     1      -7.100   6.108 136.669  0.00  0.00    +0.000 A 
ATOM      4  C   UNL     1      -7.415   5.274 135.591  0.00  0.00    +0.000 A 
ATOM      5  C   UNL     1      -6.446   5.043 134.605  0.00  0.00    +0.000 A 
ATOM      6  C   UNL     1      -5.194   5.681 134.696  0.00  0.00    +0.000 A 
ATOM      7  C   UNL     1      -4.838   6.479 135.792  0.00  0.00    +0.000 A 
ATOM      8  C   UNL     1      -5.824   6.648 136.758  0.00  0.00    +0.000 A 
ATOM      9  O   UNL     1      -5.714   7.343 137.925  0.00  0.00    +0.000 OA
ENDROOT
BRANCH   5  10
ATOM     10  C   UNL     1      -6.820   4.154 133.456  0.00  0.00    +0.000 C 
ATOM     11  O   UNL     1      -6.269   3.069 133.295  0.00  0.00    +0.000 OA
ATOM     12  N   UNL     1      -7.767   4.628 132.567  0.00  0.00    +0.000 N 
ATOM     13  C   UNL     1      -9.068   3.976 132.409  0.00  0.00    +0.000 C 
ATOM     14  C   UNL     1      -9.448   3.881 130.941  0.00  0.00    +0.000 C 
ATOM     15  C   UNL     1      -9.317   5.249 130.235  0.00  0.00    +0.000 C 
ATOM     16  C   UNL     1      -7.912   5.824 130.437  0.00  0.00    +0.000 C 
ATOM     17  C   UNL     1      -7.538   5.894 131.896  0.00  0.00    +0.000 C 
BRANCH  15  18
ATOM     18  N   UNL     1     -10.458   6.179 130.540  0.00  0.00    +0.000 N 
ATOM     19  C   UNL     1     -10.990   6.389 131.823  0.00  0.00    +0.000 C 
ATOM     20  O   UNL     1     -10.403   6.551 132.867  0.00  0.00    +0.000 OA
ATOM     21  O   UNL     1     -12.349   6.313 131.848  0.00  0.00    +0.000 OA
ATOM     22  C   UNL     1     -12.928   7.391 131.148  0.00  0.00    +0.000 C 
ATOM     23  C   UNL     1     -12.323   7.531 129.788  0.00  0.00    +0.000 A 
ATOM     24  C   UNL     1     -12.975   8.315 128.834  0.00  0.00    +0.000 A 
ATOM     25  C   UNL     1     -12.413   8.480 127.576  0.00  0.00    +0.000 A 
ATOM     26  C   UNL     1     -11.199   7.872 127.273  0.00  0.00    +0.000 A 
ATOM     27  C   UNL     1     -10.542   7.089 128.224  0.00  0.00    +0.000 A 
ATOM     28  C   UNL     1     -11.100   6.902 129.491  0.00  0.00    +0.000 A 
ENDBRANCH  15  18
ENDBRANCH   5  10
BRANCH   1  29
ATOM     29  C   UNL     1      -7.200   8.205 139.719  0.00  0.00    +0.000 C 
BRANCH  29  33
ATOM     30  N   UNL     1      -9.559  10.968 140.386  0.00  0.00    +0.000 NA
ATOM     31  C   UNL     1      -9.493  10.241 139.051  0.00  0.00    +0.000 C 
ATOM     32  C   UNL     1      -8.065  10.168 138.475  0.00  0.00    +0.000 C 
ATOM     33  N   UNL     1      -7.057   9.632 139.431  0.00  0.00    +0.000 NA
ATOM     34  C   UNL     1      -7.202  10.381 140.689  0.00  0.00    +0.000 C 
ATOM     35  C   UNL     1      -8.627  10.243 141.306  0.00  0.00    +0.000 C 
BRANCH  30  37
ATOM     36  C   UNL     1     -10.765  13.529 140.400  0.00  0.00    +0.000 C 
ATOM     37  S   UNL     1      -9.318  12.624 140.771  0.00  0.00    +0.000 S 
ATOM     38  O   UNL     1      -8.321  13.235 139.916  0.00  0.00    +0.000 OA
ATOM     39  O   UNL     1      -9.076  12.659 142.197  0.00  0.00    +0.000 OA
ENDBRANCH  30  37
ENDBRANCH  29  33
ENDBRANCH   1  29
TORSDOF 5
ENDMDL
MODEL 2
REMARK VINA RESULT:      -9.5      6.508      9.864
REMARK  Name = CHEMBL282781
REMARK  6 active torsions:
REMARK  status: ('A' for Active; 'I' for Inactive)
REMARK    1  A    between atoms: C_1  and  S_2
REMARK    2  A    between atoms: S_2  and  N_5
REMARK    3  A    between atoms: N_8  and  C_9
REMARK    4  A    between atoms: C_9  and  C_10
REMARK    5  A    between atoms: C_14  and  C_15
REMARK    6  A    between atoms: C_20  and  N_21
REMARK                            x       y       z     vdW  Elec       q    Type
REMARK                         _______ _______ _______ _____ _____    ______ ____
ROOT
ATOM      1  C   UNL     1      -9.768   4.318 131.835  0.00  0.00    +0.000 A 
ATOM      2  C   UNL     1      -9.948   3.177 131.100  0.00  0.00    +0.000 A 
ATOM      3  C   UNL     1      -9.058   2.214 131.615  0.00  0.00    +0.000 A 
ATOM      4  C   UNL     1      -8.777   0.880 131.300  0.00  0.00    +0.000 A 
ATOM      5  C   UNL     1      -7.761   0.216 132.001  0.00  0.00    +0.000 A 
ATOM      6  C   UNL     1      -7.021   0.910 132.977  0.00  0.00    +0.000 A 
ATOM      7  C   UNL     1      -7.317   2.229 133.345  0.00  0.00    +0.000 A 
ATOM      8  C   UNL     1      -8.356   2.830 132.642  0.00  0.00    +0.000 A 
ATOM      9  O   UNL     1      -8.856   4.083 132.835  0.00  0.00    +0.000 OA
ENDROOT
BRANCH   5  10
ATOM     10  C   UNL     1      -7.477  -1.210 131.629  0.00  0.00    +0.000 C 
ATOM     11  O   UNL     1      -7.388  -2.078 132.493  0.00  0.00    +0.000 OA
ATOM     12  N   UNL     1      -7.272  -1.490 130.292  0.00  0.00    +0.000 N 
ATOM     13  C   UNL     1      -8.184  -2.351 129.537  0.00  0.00    +0.000 C 
ATOM     14  C   UNL     1      -7.409  -3.306 128.645  0.00  0.00    +0.000 C 
ATOM     15  C   UNL     1      -6.366  -2.556 127.788  0.00  0.00    +0.000 C 
ATOM     16  C   UNL     1      -5.446  -1.714 128.677  0.00  0.00    +0.000 C 
ATOM     17  C   UNL     1      -6.227  -0.785 129.572  0.00  0.00    +0.000 C 
BRANCH  15  18
ATOM     18  N   UNL     1      -6.974  -1.845 126.612  0.00  0.00    +0.000 N 
ATOM     19  C   UNL     1      -8.004  -0.894 126.705  0.00  0.00    +0.000 C 
ATOM     20  O   UNL     1      -8.121   0.019 127.487  0.00  0.00    +0.000 OA
ATOM     21  O   UNL     1      -9.015  -1.126 125.823  0.00  0.00    +0.000 OA
ATOM     22  C   UNL     1      -8.586  -0.915 124.497  0.00  0.00    +0.000 C 
ATOM     23  C   UNL     1      -7.318  -1.657 124.221  0.00  0.00    +0.000 A 
ATOM     24  C   UNL     1      -6.915  -1.840 122.896  0.00  0.00    +0.000 A 
ATOM     25  C   UNL     1      -5.726  -2.501 122.622  0.00  0.00    +0.000 A 
ATOM     26  C   UNL     1      -4.936  -2.970 123.667  0.00  0.00    +0.000 A 
ATOM     27  C   UNL     1      -5.334  -2.787 124.993  0.00  0.00    +0.000 A 
ATOM     28  C   UNL     1      -6.534  -2.136 125.286  0.00  0.00    +0.000 A 
ENDBRANCH  15  18
ENDBRANCH   5  10
BRANCH   1  29
ATOM     29  C   UNL     1     -10.371   5.676 131.678  0.00  0.00    +0.000 C 
BRANCH  29  33
ATOM     30  N   UNL     1     -11.959   8.470 129.857  0.00  0.00    +0.000 NA
ATOM     31  C   UNL     1     -12.457   7.971 131.205  0.00  0.00    +0.000 C 
ATOM     32  C   UNL     1     -12.686   6.446 131.237  0.00  0.00    +0.000 C 
ATOM     33  N   UNL     1     -11.516   5.653 130.768  0.00  0.00    +0.000 NA
ATOM     34  C   UNL     1     -11.098   6.211 129.473  0.00  0.00    +0.000 C 
ATOM     35  C   UNL     1     -10.698   7.715 129.570  0.00  0.00    +0.000 C 
BRANCH  30  37
ATOM     36  C   UNL     1     -13.828   7.194 128.157  0.00  0.00    +0.000 C 
ATOM     37  S   UNL     1     -12.748   8.555 128.334  0.00  0.00    +0.000 S 
ATOM     38  O   UNL     1     -11.820   8.381 127.237  0.00  0.00    +0.000 OA
ATOM     39  O   UNL     1     -13.514   9.781 128.364  0.00  0.00    +0.000 OA
ENDBRANCH  30  37
ENDBRANCH  29  33
ENDBRANCH   1  29
TORSDOF 5
ENDMDL
MODEL 3
REMARK VINA RESULT:      -9.3      6.593     12.746
REMARK  Name = CHEMBL282781
REMARK  6 active torsions:
REMARK  status: ('A' for Active; 'I' for Inactive)
REMARK    1  A    between atoms: C_1  and  S_2
REMARK    2  A    between atoms: S_2  and  N_5
REMARK    3  A    between atoms: N_8  and  C_9
REMARK    4  A    between atoms: C_9  and  C_10
REMARK    5  A    between atoms: C_14  and  C_15
REMARK    6  A    between atoms: C_20  and  N_21
REMARK                            x       y       z     vdW  Elec       q    Type
REMARK                         _______ _______ _______ _____ _____    ______ ____
ROOT
ATOM      1  C   UNL     1      -6.467   3.435 125.348  0.00  0.00    +0.000 A 
ATOM      2  C   UNL     1      -6.527   4.300 126.407  0.00  0.00    +0.000 A 
ATOM      3  C   UNL     1      -5.213   4.439 126.897  0.00  0.00    +0.000 A 
ATOM      4  C   UNL     1      -4.634   5.173 127.938  0.00  0.00    +0.000 A 
ATOM      5  C   UNL     1      -3.262   5.030 128.187  0.00  0.00    +0.000 A 
ATOM      6  C   UNL     1      -2.504   4.129 127.417  0.00  0.00    +0.000 A 
ATOM      7  C   UNL     1      -3.050   3.422 126.337  0.00  0.00    +0.000 A 
ATOM      8  C   UNL     1      -4.408   3.626 126.111  0.00  0.00    +0.000 A 
ATOM      9  O   UNL     1      -5.159   3.087 125.110  0.00  0.00    +0.000 OA
ENDROOT
BRANCH   5  10
ATOM     10  C   UNL     1      -2.675   5.822 129.319  0.00  0.00    +0.000 C 
ATOM     11  O   UNL     1      -1.774   6.631 129.119  0.00  0.00    +0.000 OA
ATOM     12  N   UNL     1      -3.154   5.565 130.590  0.00  0.00    +0.000 N 
ATOM     13  C   UNL     1      -3.877   6.579 131.360  0.00  0.00    +0.000 C 
ATOM     14  C   UNL     1      -3.418   6.586 132.808  0.00  0.00    +0.000 C 
ATOM     15  C   UNL     1      -3.449   5.166 133.415  0.00  0.00    +0.000 C 
ATOM     16  C   UNL     1      -2.637   4.195 132.552  0.00  0.00    +0.000 C 
ATOM     17  C   UNL     1      -3.088   4.213 131.113  0.00  0.00    +0.000 C 
BRANCH  15  18
ATOM     18  N   UNL     1      -4.834   4.715 133.786  0.00  0.00    +0.000 N 
ATOM     19  C   UNL     1      -5.501   3.630 133.193  0.00  0.00    +0.000 C 
ATOM     20  O   UNL     1      -5.070   2.533 132.927  0.00  0.00    +0.000 OA
ATOM     21  O   UNL     1      -6.774   3.935 132.820  0.00  0.00    +0.000 OA
ATOM     22  C   UNL     1      -7.591   4.157 133.947  0.00  0.00    +0.000 C 
ATOM     23  C   UNL     1      -6.952   5.130 134.886  0.00  0.00    +0.000 A 
ATOM     24  C   UNL     1      -7.733   5.722 135.881  0.00  0.00    +0.000 A 
ATOM     25  C   UNL     1      -7.151   6.605 136.780  0.00  0.00    +0.000 A 
ATOM     26  C   UNL     1      -5.792   6.889 136.693  0.00  0.00    +0.000 A 
ATOM     27  C   UNL     1      -5.007   6.297 135.701  0.00  0.00    +0.000 A 
ATOM     28  C   UNL     1      -5.580   5.417 134.780  0.00  0.00    +0.000 A 
ENDBRANCH  15  18
ENDBRANCH   5  10
BRANCH   1  29
ATOM     29  C   UNL     1      -7.558   2.854 124.510  0.00  0.00    +0.000 C 
BRANCH  29  33
ATOM     30  N   UNL     1      -8.460  -0.615 123.619  0.00  0.00    +0.000 NA
ATOM     31  C   UNL     1      -9.366   0.574 123.335  0.00  0.00    +0.000 C 
ATOM     32  C   UNL     1      -9.606   1.458 124.575  0.00  0.00    +0.000 C 
ATOM     33  N   UNL     1      -8.356   1.885 125.261  0.00  0.00    +0.000 NA
ATOM     34  C   UNL     1      -7.542   0.679 125.482  0.00  0.00    +0.000 C 
ATOM     35  C   UNL     1      -7.180  -0.051 124.153  0.00  0.00    +0.000 C 
BRANCH  30  37
ATOM     36  C   UNL     1      -9.450  -3.267 123.588  0.00  0.00    +0.000 C 
ATOM     37  S   UNL     1      -8.724  -2.020 124.571  0.00  0.00    +0.000 S 
ATOM     38  O   UNL     1      -9.717  -1.794 125.600  0.00  0.00    +0.000 OA
ATOM     39  O   UNL     1      -7.410  -2.447 125.003  0.00  0.00    +0.000 OA
ENDBRANCH  30  37
ENDBRANCH  29  33
ENDBRANCH   1  29
TORSDOF 5
ENDMDL
MODEL 4
REMARK VINA RESULT:      -8.9      4.726      6.158
REMARK  Name = CHEMBL282781
REMARK  6 active torsions:
REMARK  status: ('A' for Active; 'I' for Inactive)
REMARK    1  A    between atoms: C_1  and  S_2
REMARK    2  A    between atoms: S_2  and  N_5
REMARK    3  A    between atoms: N_8  and  C_9
REMARK    4  A    between atoms: C_9  and  C_10
REMARK    5  A    between atoms: C_14  and  C_15
REMARK    6  A    between atoms: C_20  and  N_21
REMARK                            x       y       z     vdW  Elec       q    Type
REMARK                         _______ _______ _______ _____ _____    ______ ____
ROOT
ATOM      1  C   UNL     1      -2.858   7.805 134.633  0.00  0.00    +0.000 A 
ATOM      2  C   UNL     1      -3.161   7.202 133.443  0.00  0.00    +0.000 A 
ATOM      3  C   UNL     1      -4.250   6.341 133.686  0.00  0.00    +0.000 A 
ATOM      4  C   UNL     1      -5.003   5.473 132.888  0.00  0.00    +0.000 A 
ATOM      5  C   UNL     1      -6.011   4.704 133.485  0.00  0.00    +0.000 A 
ATOM      6  C   UNL     1      -6.221   4.789 134.875  0.00  0.00    +0.000 A 
ATOM      7  C   UNL     1      -5.514   5.687 135.685  0.00  0.00    +0.000 A 
ATOM      8  C   UNL     1      -4.549   6.451 135.037  0.00  0.00    +0.000 A 
ATOM      9  O   UNL     1      -3.760   7.413 135.592  0.00  0.00    +0.000 OA
ENDROOT
BRANCH   5  10
ATOM     10  C   UNL     1      -6.792   3.774 132.603  0.00  0.00    +0.000 C 
ATOM     11  O   UNL     1      -6.444   2.606 132.457  0.00  0.00    +0.000 OA
ATOM     12  N   UNL     1      -7.878   4.299 131.929  0.00  0.00    +0.000 N 
ATOM     13  C   UNL     1      -9.244   3.846 132.199  0.00  0.00    +0.000 C 
ATOM     14  C   UNL     1     -10.018   3.667 130.904  0.00  0.00    +0.000 C 
ATOM     15  C   UNL     1      -9.915   4.921 130.008  0.00  0.00    +0.000 C 
ATOM     16  C   UNL     1      -8.448   5.286 129.763  0.00  0.00    +0.000 C 
ATOM     17  C   UNL     1      -7.686   5.441 131.054  0.00  0.00    +0.000 C 
BRANCH  15  18
ATOM     18  N   UNL     1     -10.805   6.043 130.463  0.00  0.00    +0.000 N 
ATOM     19  C   UNL     1     -11.068   6.352 131.808  0.00  0.00    +0.000 C 
ATOM     20  O   UNL     1     -10.295   6.411 132.735  0.00  0.00    +0.000 OA
ATOM     21  O   UNL     1     -12.395   6.522 132.059  0.00  0.00    +0.000 OA
ATOM     22  C   UNL     1     -12.883   7.684 131.426  0.00  0.00    +0.000 C 
ATOM     23  C   UNL     1     -12.500   7.705 129.981  0.00  0.00    +0.000 A 
ATOM     24  C   UNL     1     -13.154   8.590 129.121  0.00  0.00    +0.000 A 
ATOM     25  C   UNL     1     -12.792   8.644 127.782  0.00  0.00    +0.000 A 
ATOM     26  C   UNL     1     -11.774   7.826 127.305  0.00  0.00    +0.000 A 
ATOM     27  C   UNL     1     -11.115   6.941 128.162  0.00  0.00    +0.000 A 
ATOM     28  C   UNL     1     -11.477   6.864 129.509  0.00  0.00    +0.000 A 
ENDBRANCH  15  18
ENDBRANCH   5  10
BRANCH   1  29
ATOM     29  C   UNL     1      -1.746   8.737 134.990  0.00  0.00    +0.000 C 
BRANCH  29  33
ATOM     30  N   UNL     1       0.793  11.386 134.570  0.00  0.00    +0.000 NA
ATOM     31  C   UNL     1      -0.286  11.436 135.642  0.00  0.00    +0.000 C 
ATOM     32  C   UNL     1      -1.704  11.215 135.079  0.00  0.00    +0.000 C 
ATOM     33  N   UNL     1      -1.834   9.990 134.241  0.00  0.00    +0.000 NA
ATOM     34  C   UNL     1      -0.749  10.021 133.249  0.00  0.00    +0.000 C 
ATOM     35  C   UNL     1       0.664  10.050 133.906  0.00  0.00    +0.000 C 
BRANCH  30  37
ATOM     36  C   UNL     1       2.215  13.718 133.828  0.00  0.00    +0.000 C 
ATOM     37  S   UNL     1       1.136  12.462 133.276  0.00  0.00    +0.000 S 
ATOM     38  O   UNL     1      -0.040  13.199 132.863  0.00  0.00    +0.000 OA
ATOM     39  O   UNL     1       1.800  11.659 132.271  0.00  0.00    +0.000 OA
ENDBRANCH  30  37
ENDBRANCH  29  33
ENDBRANCH   1  29
TORSDOF 5
ENDMDL
MODEL 5
REMARK VINA RESULT:      -8.8      7.790     13.387
REMARK  Name = CHEMBL282781
REMARK  6 active torsions:
REMARK  status: ('A' for Active; 'I' for Inactive)
REMARK    1  A    between atoms: C_1  and  S_2
REMARK    2  A    between atoms: S_2  and  N_5
REMARK    3  A    between atoms: N_8  and  C_9
REMARK    4  A    between atoms: C_9  and  C_10
REMARK    5  A    between atoms: C_14  and  C_15
REMARK    6  A    between atoms: C_20  and  N_21
REMARK                            x       y       z     vdW  Elec       q    Type
REMARK                         _______ _______ _______ _____ _____    ______ ____
ROOT
ATOM      1  C   UNL     1      -5.104   4.702 127.351  0.00  0.00    +0.000 A 
ATOM      2  C   UNL     1      -4.900   4.223 128.617  0.00  0.00    +0.000 A 
ATOM      3  C   UNL     1      -3.888   5.013 129.196  0.00  0.00    +0.000 A 
ATOM      4  C   UNL     1      -3.254   5.025 130.443  0.00  0.00    +0.000 A 
ATOM      5  C   UNL     1      -2.219   5.943 130.670  0.00  0.00    +0.000 A 
ATOM      6  C   UNL     1      -1.812   6.804 129.633  0.00  0.00    +0.000 A 
ATOM      7  C   UNL     1      -2.465   6.845 128.394  0.00  0.00    +0.000 A 
ATOM      8  C   UNL     1      -3.507   5.938 128.233  0.00  0.00    +0.000 A 
ATOM      9  O   UNL     1      -4.314   5.806 127.143  0.00  0.00    +0.000 OA
ENDROOT
BRANCH   5  10
ATOM     10  C   UNL     1      -1.552   5.920 132.014  0.00  0.00    +0.000 C 
ATOM     11  O   UNL     1      -1.241   4.858 132.543  0.00  0.00    +0.000 OA
ATOM     12  N   UNL     1      -1.352   7.134 132.645  0.00  0.00    +0.000 N 
ATOM     13  C   UNL     1      -0.008   7.648 132.916  0.00  0.00    +0.000 C 
ATOM     14  C   UNL     1       0.070   8.245 134.311  0.00  0.00    +0.000 C 
ATOM     15  C   UNL     1      -1.074   9.254 134.556  0.00  0.00    +0.000 C 
ATOM     16  C   UNL     1      -2.432   8.605 134.275  0.00  0.00    +0.000 C 
ATOM     17  C   UNL     1      -2.490   7.999 132.896  0.00  0.00    +0.000 C 
BRANCH  15  18
ATOM     18  N   UNL     1      -0.833  10.585 133.901  0.00  0.00    +0.000 N 
ATOM     19  C   UNL     1      -1.760  11.241 133.073  0.00  0.00    +0.000 C 
ATOM     20  O   UNL     1      -2.948  11.385 133.235  0.00  0.00    +0.000 OA
ATOM     21  O   UNL     1      -1.205  11.687 131.913  0.00  0.00    +0.000 OA
ATOM     22  C   UNL     1      -0.291  12.732 132.159  0.00  0.00    +0.000 C 
ATOM     23  C   UNL     1       0.685  12.349 133.225  0.00  0.00    +0.000 A 
ATOM     24  C   UNL     1       1.849  13.103 133.380  0.00  0.00    +0.000 A 
ATOM     25  C   UNL     1       2.752  12.780 134.383  0.00  0.00    +0.000 A 
ATOM     26  C   UNL     1       2.489  11.713 135.236  0.00  0.00    +0.000 A 
ATOM     27  C   UNL     1       1.324  10.957 135.086  0.00  0.00    +0.000 A 
ATOM     28  C   UNL     1       0.412  11.260 134.073  0.00  0.00    +0.000 A 
ENDBRANCH  15  18
ENDBRANCH   5  10
BRANCH   1  29
ATOM     29  C   UNL     1      -5.987   4.197 126.256  0.00  0.00    +0.000 C 
BRANCH  29  33
ATOM     30  N   UNL     1      -7.953   1.935 124.098  0.00  0.00    +0.000 NA
ATOM     31  C   UNL     1      -8.587   2.841 125.143  0.00  0.00    +0.000 C 
ATOM     32  C   UNL     1      -7.942   2.699 126.536  0.00  0.00    +0.000 C 
ATOM     33  N   UNL     1      -6.460   2.841 126.529  0.00  0.00    +0.000 NA
ATOM     34  C   UNL     1      -5.937   1.944 125.487  0.00  0.00    +0.000 C 
ATOM     35  C   UNL     1      -6.496   2.281 124.071  0.00  0.00    +0.000 C 
BRANCH  30  37
ATOM     36  C   UNL     1      -9.422  -0.263 123.087  0.00  0.00    +0.000 C 
ATOM     37  S   UNL     1      -7.977   0.226 123.937  0.00  0.00    +0.000 S 
ATOM     38  O   UNL     1      -8.112  -0.434 125.218  0.00  0.00    +0.000 OA
ATOM     39  O   UNL     1      -6.813  -0.104 123.143  0.00  0.00    +0.000 OA
ENDBRANCH  30  37
ENDBRANCH  29  33
ENDBRANCH   1  29
TORSDOF 5
ENDMDL
MODEL 6
REMARK VINA RESULT:      -8.8      6.787     12.034
REMARK  Name = CHEMBL282781
REMARK  6 active torsions:
REMARK  status: ('A' for Active; 'I' for Inactive)
REMARK    1  A    between atoms: C_1  and  S_2
REMARK    2  A    between atoms: S_2  and  N_5
REMARK    3  A    between atoms: N_8  and  C_9
REMARK    4  A    between atoms: C_9  and  C_10
REMARK    5  A    between atoms: C_14  and  C_15
REMARK    6  A    between atoms: C_20  and  N_21
REMARK                            x       y       z     vdW  Elec       q    Type
REMARK                         _______ _______ _______ _____ _____    ______ ____
ROOT
ATOM      1  C   UNL     1      -5.459  -1.515 128.624  0.00  0.00    +0.000 A 
ATOM      2  C   UNL     1      -5.469  -0.176 128.908  0.00  0.00    +0.000 A 
ATOM      3  C   UNL     1      -5.814  -0.049 130.268  0.00  0.00    +0.000 A 
ATOM      4  C   UNL     1      -5.981   1.037 131.134  0.00  0.00    +0.000 A 
ATOM      5  C   UNL     1      -6.394   0.799 132.451  0.00  0.00    +0.000 A 
ATOM      6  C   UNL     1      -6.669  -0.518 132.867  0.00  0.00    +0.000 A 
ATOM      7  C   UNL     1      -6.461  -1.626 132.034  0.00  0.00    +0.000 A 
ATOM      8  C   UNL     1      -6.018  -1.335 130.748  0.00  0.00    +0.000 A 
ATOM      9  O   UNL     1      -5.711  -2.231 129.769  0.00  0.00    +0.000 OA
ENDROOT
BRANCH   5  10
ATOM     10  C   UNL     1      -6.575   1.987 133.350  0.00  0.00    +0.000 C 
ATOM     11  O   UNL     1      -5.999   2.049 134.432  0.00  0.00    +0.000 OA
ATOM     12  N   UNL     1      -7.449   2.973 132.933  0.00  0.00    +0.000 N 
ATOM     13  C   UNL     1      -6.990   4.328 132.623  0.00  0.00    +0.000 C 
ATOM     14  C   UNL     1      -7.945   5.364 133.191  0.00  0.00    +0.000 C 
ATOM     15  C   UNL     1      -9.406   5.065 132.786  0.00  0.00    +0.000 C 
ATOM     16  C   UNL     1      -9.791   3.637 133.184  0.00  0.00    +0.000 C 
ATOM     17  C   UNL     1      -8.824   2.620 132.632  0.00  0.00    +0.000 C 
BRANCH  15  18
ATOM     18  N   UNL     1      -9.714   5.458 131.369  0.00  0.00    +0.000 N 
ATOM     19  C   UNL     1      -9.014   4.990 130.244  0.00  0.00    +0.000 C 
ATOM     20  O   UNL     1      -8.651   3.866 129.994  0.00  0.00    +0.000 OA
ATOM     21  O   UNL     1      -8.655   5.992 129.395  0.00  0.00    +0.000 OA
ATOM     22  C   UNL     1      -9.787   6.560 128.777  0.00  0.00    +0.000 C 
ATOM     23  C   UNL     1     -10.822   6.927 129.792  0.00  0.00    +0.000 A 
ATOM     24  C   UNL     1     -11.858   7.787 129.422  0.00  0.00    +0.000 A 
ATOM     25  C   UNL     1     -12.843   8.115 130.342  0.00  0.00    +0.000 A 
ATOM     26  C   UNL     1     -12.801   7.580 131.625  0.00  0.00    +0.000 A 
ATOM     27  C   UNL     1     -11.767   6.717 131.999  0.00  0.00    +0.000 A 
ATOM     28  C   UNL     1     -10.761   6.388 131.089  0.00  0.00    +0.000 A 
ENDBRANCH  15  18
ENDBRANCH   5  10
BRANCH   1  29
ATOM     29  C   UNL     1      -5.251  -2.227 127.327  0.00  0.00    +0.000 C 
BRANCH  29  33
ATOM     30  N   UNL     1      -7.714  -3.341 124.810  0.00  0.00    +0.000 NA
ATOM     31  C   UNL     1      -6.211  -3.392 124.577  0.00  0.00    +0.000 C 
ATOM     32  C   UNL     1      -5.509  -2.051 124.867  0.00  0.00    +0.000 C 
ATOM     33  N   UNL     1      -5.828  -1.483 126.207  0.00  0.00    +0.000 NA
ATOM     34  C   UNL     1      -7.292  -1.484 126.348  0.00  0.00    +0.000 C 
ATOM     35  C   UNL     1      -7.904  -2.913 126.232  0.00  0.00    +0.000 C 
BRANCH  30  37
ATOM     36  C   UNL     1      -8.230  -1.421 122.795  0.00  0.00    +0.000 C 
ATOM     37  S   UNL     1      -8.950  -2.508 123.957  0.00  0.00    +0.000 S 
ATOM     38  O   UNL     1      -9.694  -1.617 124.822  0.00  0.00    +0.000 OA
ATOM     39  O   UNL     1      -9.699  -3.533 123.262  0.00  0.00    +0.000 OA
ENDBRANCH  30  37
ENDBRANCH  29  33
ENDBRANCH   1  29
TORSDOF 5
ENDMDL
MODEL 7
REMARK VINA RESULT:      -8.7      7.475      9.792
REMARK  Name = CHEMBL282781
REMARK  6 active torsions:
REMARK  status: ('A' for Active; 'I' for Inactive)
REMARK    1  A    between atoms: C_1  and  S_2
REMARK    2  A    between atoms: S_2  and  N_5
REMARK    3  A    between atoms: N_8  and  C_9
REMARK    4  A    between atoms: C_9  and  C_10
REMARK    5  A    between atoms: C_14  and  C_15
REMARK    6  A    between atoms: C_20  and  N_21
REMARK                            x       y       z     vdW  Elec       q    Type
REMARK                         _______ _______ _______ _____ _____    ______ ____
ROOT
ATOM      1  C   UNL     1      -3.428   5.437 130.262  0.00  0.00    +0.000 A 
ATOM      2  C   UNL     1      -4.503   5.659 129.445  0.00  0.00    +0.000 A 
ATOM      3  C   UNL     1      -4.246   4.982 128.236  0.00  0.00    +0.000 A 
ATOM      4  C   UNL     1      -4.950   4.827 127.038  0.00  0.00    +0.000 A 
ATOM      5  C   UNL     1      -4.357   4.110 125.990  0.00  0.00    +0.000 A 
ATOM      6  C   UNL     1      -3.056   3.595 126.147  0.00  0.00    +0.000 A 
ATOM      7  C   UNL     1      -2.352   3.694 127.355  0.00  0.00    +0.000 A 
ATOM      8  C   UNL     1      -3.000   4.385 128.373  0.00  0.00    +0.000 A 
ATOM      9  O   UNL     1      -2.545   4.586 129.641  0.00  0.00    +0.000 OA
ENDROOT
BRANCH   5  10
ATOM     10  C   UNL     1      -5.135   3.972 124.713  0.00  0.00    +0.000 C 
ATOM     11  O   UNL     1      -4.851   4.648 123.729  0.00  0.00    +0.000 OA
ATOM     12  N   UNL     1      -6.205   3.098 124.712  0.00  0.00    +0.000 N 
ATOM     13  C   UNL     1      -6.219   1.900 123.870  0.00  0.00    +0.000 C 
ATOM     14  C   UNL     1      -7.578   1.714 123.219  0.00  0.00    +0.000 C 
ATOM     15  C   UNL     1      -8.717   1.788 124.261  0.00  0.00    +0.000 C 
ATOM     16  C   UNL     1      -8.628   3.092 125.061  0.00  0.00    +0.000 C 
ATOM     17  C   UNL     1      -7.267   3.275 125.685  0.00  0.00    +0.000 C 
BRANCH  15  18
ATOM     18  N   UNL     1      -8.857   0.529 125.069  0.00  0.00    +0.000 N 
ATOM     19  C   UNL     1      -8.834   0.481 126.473  0.00  0.00    +0.000 C 
ATOM     20  O   UNL     1      -9.386   1.209 127.264  0.00  0.00    +0.000 OA
ATOM     21  O   UNL     1      -8.003  -0.485 126.953  0.00  0.00    +0.000 OA
ATOM     22  C   UNL     1      -8.500  -1.771 126.657  0.00  0.00    +0.000 C 
ATOM     23  C   UNL     1      -8.844  -1.890 125.207  0.00  0.00    +0.000 A 
ATOM     24  C   UNL     1      -9.038  -3.160 124.659  0.00  0.00    +0.000 A 
ATOM     25  C   UNL     1      -9.387  -3.288 123.322  0.00  0.00    +0.000 A 
ATOM     26  C   UNL     1      -9.552  -2.152 122.536  0.00  0.00    +0.000 A 
ATOM     27  C   UNL     1      -9.362  -0.880 123.080  0.00  0.00    +0.000 A 
ATOM     28  C   UNL     1      -8.997  -0.734 124.420  0.00  0.00    +0.000 A 
ENDBRANCH  15  18
ENDBRANCH   5  10
BRANCH   1  29
ATOM     29  C   UNL     1      -3.114   5.979 131.618  0.00  0.00    +0.000 C 
BRANCH  29  33
ATOM     30  N   UNL     1      -1.466   7.810 134.370  0.00  0.00    +0.000 NA
ATOM     31  C   UNL     1      -2.730   8.309 133.684  0.00  0.00    +0.000 C 
ATOM     32  C   UNL     1      -2.606   8.348 132.147  0.00  0.00    +0.000 C 
ATOM     33  N   UNL     1      -2.138   7.066 131.550  0.00  0.00    +0.000 NA
ATOM     34  C   UNL     1      -0.928   6.657 132.280  0.00  0.00    +0.000 C 
ATOM     35  C   UNL     1      -1.189   6.453 133.803  0.00  0.00    +0.000 C 
BRANCH  30  37
ATOM     36  C   UNL     1       0.076   9.701 135.805  0.00  0.00    +0.000 C 
ATOM     37  S   UNL     1       0.087   8.528 134.512  0.00  0.00    +0.000 S 
ATOM     38  O   UNL     1       0.420   9.325 133.350  0.00  0.00    +0.000 OA
ATOM     39  O   UNL     1       0.985   7.444 134.848  0.00  0.00    +0.000 OA
ENDBRANCH  30  37
ENDBRANCH  29  33
ENDBRANCH   1  29
TORSDOF 5
ENDMDL
MODEL 8
REMARK VINA RESULT:      -8.6     10.352     12.143
REMARK  Name = CHEMBL282781
REMARK  6 active torsions:
REMARK  status: ('A' for Active; 'I' for Inactive)
REMARK    1  A    between atoms: C_1  and  S_2
REMARK    2  A    between atoms: S_2  and  N_5
REMARK    3  A    between atoms: N_8  and  C_9
REMARK    4  A    between atoms: C_9  and  C_10
REMARK    5  A    between atoms: C_14  and  C_15
REMARK    6  A    between atoms: C_20  and  N_21
REMARK                            x       y       z     vdW  Elec       q    Type
REMARK                         _______ _______ _______ _____ _____    ______ ____
ROOT
ATOM      1  C   UNL     1      -6.438  -1.932 131.253  0.00  0.00    +0.000 A 
ATOM      2  C   UNL     1      -6.748  -1.062 130.242  0.00  0.00    +0.000 A 
ATOM      3  C   UNL     1      -7.434  -1.805 129.260  0.00  0.00    +0.000 A 
ATOM      4  C   UNL     1      -8.003  -1.491 128.022  0.00  0.00    +0.000 A 
ATOM      5  C   UNL     1      -8.577  -2.516 127.258  0.00  0.00    +0.000 A 
ATOM      6  C   UNL     1      -8.537  -3.842 127.730  0.00  0.00    +0.000 A 
ATOM      7  C   UNL     1      -8.019  -4.173 128.990  0.00  0.00    +0.000 A 
ATOM      8  C   UNL     1      -7.493  -3.113 129.721  0.00  0.00    +0.000 A 
ATOM      9  O   UNL     1      -6.967  -3.169 130.976  0.00  0.00    +0.000 OA
ENDROOT
BRANCH   5  10
ATOM     10  C   UNL     1      -9.167  -2.147 125.928  0.00  0.00    +0.000 C 
ATOM     11  O   UNL     1     -10.124  -2.765 125.473  0.00  0.00    +0.000 OA
ATOM     12  N   UNL     1      -8.559  -1.125 125.225  0.00  0.00    +0.000 N 
ATOM     13  C   UNL     1      -9.252   0.134 124.942  0.00  0.00    +0.000 C 
ATOM     14  C   UNL     1      -8.996   0.582 123.513  0.00  0.00    +0.000 C 
ATOM     15  C   UNL     1      -7.486   0.584 123.187  0.00  0.00    +0.000 C 
ATOM     16  C   UNL     1      -6.869  -0.785 123.487  0.00  0.00    +0.000 C 
ATOM     17  C   UNL     1      -7.148  -1.228 124.901  0.00  0.00    +0.000 C 
BRANCH  15  18
ATOM     18  N   UNL     1      -6.763   1.771 123.759  0.00  0.00    +0.000 N 
ATOM     19  C   UNL     1      -6.634   2.034 125.133  0.00  0.00    +0.000 C 
ATOM     20  O   UNL     1      -6.363   1.269 126.027  0.00  0.00    +0.000 OA
ATOM     21  O   UNL     1      -6.942   3.321 125.452  0.00  0.00    +0.000 OA
ATOM     22  C   UNL     1      -5.987   4.215 124.926  0.00  0.00    +0.000 C 
ATOM     23  C   UNL     1      -5.759   3.958 123.471  0.00  0.00    +0.000 A 
ATOM     24  C   UNL     1      -5.109   4.927 122.706  0.00  0.00    +0.000 A 
ATOM     25  C   UNL     1      -4.863   4.693 121.360  0.00  0.00    +0.000 A 
ATOM     26  C   UNL     1      -5.256   3.491 120.782  0.00  0.00    +0.000 A 
ATOM     27  C   UNL     1      -5.905   2.517 121.544  0.00  0.00    +0.000 A 
ATOM     28  C   UNL     1      -6.172   2.742 122.896  0.00  0.00    +0.000 A 
ENDBRANCH  15  18
ENDBRANCH   5  10
BRANCH   1  29
ATOM     29  C   UNL     1      -5.640  -1.721 132.499  0.00  0.00    +0.000 C 
BRANCH  29  33
ATOM     30  N   UNL     1      -2.781  -1.725 134.836  0.00  0.00    +0.000 NA
ATOM     31  C   UNL     1      -3.435  -0.447 134.331  0.00  0.00    +0.000 C 
ATOM     32  C   UNL     1      -3.562  -0.401 132.795  0.00  0.00    +0.000 C 
ATOM     33  N   UNL     1      -4.211  -1.607 132.209  0.00  0.00    +0.000 NA
ATOM     34  C   UNL     1      -3.526  -2.786 132.761  0.00  0.00    +0.000 C 
ATOM     35  C   UNL     1      -3.611  -2.856 134.316  0.00  0.00    +0.000 C 
BRANCH  30  37
ATOM     36  C   UNL     1      -0.279  -1.928 136.144  0.00  0.00    +0.000 C 
ATOM     37  S   UNL     1      -1.166  -2.290 134.684  0.00  0.00    +0.000 S 
ATOM     38  O   UNL     1      -0.435  -1.562 133.668  0.00  0.00    +0.000 OA
ATOM     39  O   UNL     1      -1.272  -3.724 134.524  0.00  0.00    +0.000 OA
ENDBRANCH  30  37
ENDBRANCH  29  33
ENDBRANCH   1  29
TORSDOF 5
ENDMDL
MODEL 9
REMARK VINA RESULT:      -8.5      6.200      9.664
REMARK  Name = CHEMBL282781
REMARK  6 active torsions:
REMARK  status: ('A' for Active; 'I' for Inactive)
REMARK    1  A    between atoms: C_1  and  S_2
REMARK    2  A    between atoms: S_2  and  N_5
REMARK    3  A    between atoms: N_8  and  C_9
REMARK    4  A    between atoms: C_9  and  C_10
REMARK    5  A    between atoms: C_14  and  C_15
REMARK    6  A    between atoms: C_20  and  N_21
REMARK                            x       y       z     vdW  Elec       q    Type
REMARK                         _______ _______ _______ _____ _____    ______ ____
ROOT
ATOM      1  C   UNL     1      -9.040   3.682 132.870  0.00  0.00    +0.000 A 
ATOM      2  C   UNL     1      -9.054   2.401 132.386  0.00  0.00    +0.000 A 
ATOM      3  C   UNL     1      -7.775   1.860 132.621  0.00  0.00    +0.000 A 
ATOM      4  C   UNL     1      -7.179   0.620 132.366  0.00  0.00    +0.000 A 
ATOM      5  C   UNL     1      -5.829   0.436 132.692  0.00  0.00    +0.000 A 
ATOM      6  C   UNL     1      -5.090   1.506 133.231  0.00  0.00    +0.000 A 
ATOM      7  C   UNL     1      -5.677   2.740 133.542  0.00  0.00    +0.000 A 
ATOM      8  C   UNL     1      -7.027   2.859 133.230  0.00  0.00    +0.000 A 
ATOM      9  O   UNL     1      -7.827   3.936 133.464  0.00  0.00    +0.000 OA
ENDROOT
BRANCH   5  10
ATOM     10  C   UNL     1      -5.218  -0.903 132.395  0.00  0.00    +0.000 C 
ATOM     11  O   UNL     1      -4.462  -1.440 133.198  0.00  0.00    +0.000 OA
ATOM     12  N   UNL     1      -5.502  -1.473 131.168  0.00  0.00    +0.000 N 
ATOM     13  C   UNL     1      -6.253  -2.724 131.056  0.00  0.00    +0.000 C 
ATOM     14  C   UNL     1      -5.627  -3.638 130.016  0.00  0.00    +0.000 C 
ATOM     15  C   UNL     1      -5.398  -2.896 128.680  0.00  0.00    +0.000 C 
ATOM     16  C   UNL     1      -4.577  -1.623 128.907  0.00  0.00    +0.000 C 
ATOM     17  C   UNL     1      -5.197  -0.735 129.956  0.00  0.00    +0.000 C 
BRANCH  15  18
ATOM     18  N   UNL     1      -6.657  -2.732 127.876  0.00  0.00    +0.000 N 
ATOM     19  C   UNL     1      -7.946  -2.646 128.429  0.00  0.00    +0.000 C 
ATOM     20  O   UNL     1      -8.316  -2.011 129.388  0.00  0.00    +0.000 OA
ATOM     21  O   UNL     1      -8.839  -3.466 127.810  0.00  0.00    +0.000 OA
ATOM     22  C   UNL     1      -9.093  -3.034 126.492  0.00  0.00    +0.000 C 
ATOM     23  C   UNL     1      -7.815  -2.808 125.749  0.00  0.00    +0.000 A 
ATOM     24  C   UNL     1      -7.851  -2.698 124.358  0.00  0.00    +0.000 A 
ATOM     25  C   UNL     1      -6.679  -2.459 123.654  0.00  0.00    +0.000 A 
ATOM     26  C   UNL     1      -5.476  -2.321 124.337  0.00  0.00    +0.000 A 
ATOM     27  C   UNL     1      -5.435  -2.429 125.729  0.00  0.00    +0.000 A 
ATOM     28  C   UNL     1      -6.603  -2.682 126.451  0.00  0.00    +0.000 A 
ENDBRANCH  15  18
ENDBRANCH   5  10
BRANCH   1  29
ATOM     29  C   UNL     1     -10.082   4.750 132.812  0.00  0.00    +0.000 C 
BRANCH  29  33
ATOM     30  N   UNL     1     -10.707   5.834 129.337  0.00  0.00    +0.000 NA
ATOM     31  C   UNL     1      -9.481   5.031 129.745  0.00  0.00    +0.000 C 
ATOM     32  C   UNL     1      -8.726   5.648 130.940  0.00  0.00    +0.000 C 
ATOM     33  N   UNL     1      -9.595   5.940 132.114  0.00  0.00    +0.000 NA
ATOM     34  C   UNL     1     -10.753   6.703 131.624  0.00  0.00    +0.000 C 
ATOM     35  C   UNL     1     -11.575   5.924 130.553  0.00  0.00    +0.000 C 
BRANCH  30  37
ATOM     36  C   UNL     1     -10.757   7.240 126.880  0.00  0.00    +0.000 C 
ATOM     37  S   UNL     1     -10.836   7.389 128.618  0.00  0.00    +0.000 S 
ATOM     38  O   UNL     1      -9.693   8.222 128.928  0.00  0.00    +0.000 OA
ATOM     39  O   UNL     1     -12.140   7.885 129.003  0.00  0.00    +0.000 OA
ENDBRANCH  30  37
ENDBRANCH  29  33
ENDBRANCH   1  29
TORSDOF 5
ENDMDL
