MODEL 1
REMARK VINA RESULT:     -11.0      0.000      0.000
REMARK  Name = CHEMBL142324
REMARK  6 active torsions:
REMARK  status: ('A' for Active; 'I' for Inactive)
REMARK    1  A    between atoms: C_1  and  C_2
REMARK    2  A    between atoms: C_8  and  C_9
REMARK    3  A    between atoms: C_9  and  O_10
REMARK    4  A    between atoms: O_10  and  C_11
REMARK    5  A    between atoms: C_14  and  C_15
REMARK    6  A    between atoms: C_20  and  N_21
REMARK                            x       y       z     vdW  Elec       q    Type
REMARK                         _______ _______ _______ _____ _____    ______ ____
ROOT
ATOM      1  C   UNL     1      -4.531   3.396 129.816  0.00  0.00    +0.000 C 
ATOM      2  O   UNL     1      -3.356   3.661 130.068  0.00  0.00    +0.000 OA
ATOM      3  N   UNL     1      -5.606   4.187 130.296  0.00  0.00    +0.000 N 
ATOM      4  C   UNL     1      -5.677   5.616 129.993  0.00  0.00    +0.000 C 
ATOM      5  C   UNL     1      -6.097   6.439 131.201  0.00  0.00    +0.000 C 
ATOM      6  C   UNL     1      -7.785   6.071 131.650  0.00  0.00    +0.000 C 
ATOM      7  C   UNL     1      -7.299   4.499 132.108  0.00  0.00    +0.000 C 
ATOM      8  C   UNL     1      -6.797   3.639 130.950  0.00  0.00    +0.000 C 
ENDROOT
BRANCH   6   9
ATOM      9  N   UNL     1      -9.061   6.984 130.678  0.00  0.00    +0.000 N 
ATOM     10  C   UNL     1      -9.961   6.445 131.655  0.00  0.00    +0.000 C 
ATOM     11  O   UNL     1      -9.887   6.425 132.914  0.00  0.00    +0.000 OA
ATOM     12  O   UNL     1     -10.886   5.651 131.175  0.00  0.00    +0.000 OA
ATOM     13  C   UNL     1     -11.892   6.583 131.153  0.00  0.00    +0.000 C 
ATOM     14  C   UNL     1     -11.719   6.846 129.733  0.00  0.00    +0.000 A 
ATOM     15  C   UNL     1     -13.095   6.807 129.087  0.00  0.00    +0.000 A 
ATOM     16  C   UNL     1     -13.371   7.185 127.818  0.00  0.00    +0.000 A 
ATOM     17  C   UNL     1     -12.280   7.874 127.340  0.00  0.00    +0.000 A 
ATOM     18  C   UNL     1     -10.801   7.917 128.088  0.00  0.00    +0.000 A 
ATOM     19  C   UNL     1     -10.344   7.156 129.346  0.00  0.00    +0.000 A 
ENDBRANCH   6   9
BRANCH   1  23
ATOM     20  C   UNL     1      -5.711   0.197 127.108  0.00  0.00    +0.000 A 
ATOM     21  C   UNL     1      -5.544   1.497 126.623  0.00  0.00    +0.000 A 
ATOM     22  C   UNL     1      -5.059   2.522 127.469  0.00  0.00    +0.000 A 
ATOM     23  C   UNL     1      -4.819   2.274 128.837  0.00  0.00    +0.000 A 
ATOM     24  C   UNL     1      -5.012   0.971 129.288  0.00  0.00    +0.000 A 
ATOM     25  C   UNL     1      -5.426  -0.056 128.440  0.00  0.00    +0.000 A 
BRANCH  20  26
ATOM     26  O   UNL     1      -6.049  -0.787 126.217  0.00  0.00    +0.000 OA
BRANCH  26  27
ATOM     27  C   UNL     1      -7.181  -1.594 126.580  0.00  0.00    +0.000 C 
BRANCH  27  35
ATOM     28  C   UNL     1      -9.237   1.919 122.972  0.00  0.00    +0.000 C 
ATOM     29  C   UNL     1      -9.737   0.488 122.984  0.00  0.00    +0.000 C 
ATOM     30  O   UNL     1     -10.873   0.223 122.596  0.00  0.00    +0.000 OA
ATOM     31  N   UNL     1      -8.800  -0.493 123.292  0.00  0.00    +0.000 N 
ATOM     32  C   UNL     1      -8.852  -1.782 122.616  0.00  0.00    +0.000 C 
ATOM     33  C   UNL     1      -9.215  -2.919 123.560  0.00  0.00    +0.000 C 
ATOM     34  C   UNL     1      -8.296  -2.944 124.775  0.00  0.00    +0.000 C 
ATOM     35  C   UNL     1      -8.228  -1.569 125.457  0.00  0.00    +0.000 C 
ATOM     36  C   UNL     1      -7.902  -0.445 124.441  0.00  0.00    +0.000 C 
ENDBRANCH  27  35
ENDBRANCH  26  27
ENDBRANCH  20  26
ENDBRANCH   1  23
TORSDOF 5
ENDMDL
MODEL 2
REMARK VINA RESULT:     -10.6      1.814      2.206
REMARK  Name = CHEMBL142324
REMARK  6 active torsions:
REMARK  status: ('A' for Active; 'I' for Inactive)
REMARK    1  A    between atoms: C_1  and  C_2
REMARK    2  A    between atoms: C_8  and  C_9
REMARK    3  A    between atoms: C_9  and  O_10
REMARK    4  A    between atoms: O_10  and  C_11
REMARK    5  A    between atoms: C_14  and  C_15
REMARK    6  A    between atoms: C_20  and  N_21
REMARK                            x       y       z     vdW  Elec       q    Type
REMARK                         _______ _______ _______ _____ _____    ______ ____
ROOT
ATOM      1  C   UNL     1      -6.639   1.336 131.445  0.00  0.00    +0.000 C 
ATOM      2  O   UNL     1      -5.519   1.236 131.946  0.00  0.00    +0.000 OA
ATOM      3  N   UNL     1      -7.426   2.508 131.574  0.00  0.00    +0.000 N 
ATOM      4  C   UNL     1      -6.915   3.805 131.130  0.00  0.00    +0.000 C 
ATOM      5  C   UNL     1      -7.232   4.917 132.118  0.00  0.00    +0.000 C 
ATOM      6  C   UNL     1      -8.992   5.213 132.179  0.00  0.00    +0.000 C 
ATOM      7  C   UNL     1      -9.205   3.673 132.887  0.00  0.00    +0.000 C 
ATOM      8  C   UNL     1      -8.836   2.509 131.971  0.00  0.00    +0.000 C 
ENDROOT
BRANCH   6   9
ATOM      9  N   UNL     1      -9.638   6.314 130.847  0.00  0.00    +0.000 N 
ATOM     10  C   UNL     1     -10.780   6.418 131.708  0.00  0.00    +0.000 C 
ATOM     11  O   UNL     1     -10.855   6.657 132.944  0.00  0.00    +0.000 OA
ATOM     12  O   UNL     1     -11.901   5.975 131.194  0.00  0.00    +0.000 OA
ATOM     13  C   UNL     1     -12.398   7.201 130.829  0.00  0.00    +0.000 C 
ATOM     14  C   UNL     1     -11.979   7.042 129.445  0.00  0.00    +0.000 A 
ATOM     15  C   UNL     1     -13.161   7.413 128.563  0.00  0.00    +0.000 A 
ATOM     16  C   UNL     1     -13.112   7.570 127.220  0.00  0.00    +0.000 A 
ATOM     17  C   UNL     1     -11.786   7.636 126.855  0.00  0.00    +0.000 A 
ATOM     18  C   UNL     1     -10.522   7.251 127.856  0.00  0.00    +0.000 A 
ATOM     19  C   UNL     1     -10.574   6.678 129.284  0.00  0.00    +0.000 A 
ENDBRANCH   6   9
BRANCH   1  23
ATOM     20  C   UNL     1      -7.679  -1.871 128.689  0.00  0.00    +0.000 A 
ATOM     21  C   UNL     1      -7.353  -2.168 130.015  0.00  0.00    +0.000 A 
ATOM     22  C   UNL     1      -7.117  -1.129 130.946  0.00  0.00    +0.000 A 
ATOM     23  C   UNL     1      -7.119   0.220 130.535  0.00  0.00    +0.000 A 
ATOM     24  C   UNL     1      -7.433   0.477 129.203  0.00  0.00    +0.000 A 
ATOM     25  C   UNL     1      -7.731  -0.543 128.299  0.00  0.00    +0.000 A 
BRANCH  20  26
ATOM     26  O   UNL     1      -8.034  -2.905 127.863  0.00  0.00    +0.000 OA
BRANCH  26  27
ATOM     27  C   UNL     1      -7.376  -2.937 126.586  0.00  0.00    +0.000 C 
BRANCH  27  35
ATOM     28  C   UNL     1      -8.572   1.540 123.737  0.00  0.00    +0.000 C 
ATOM     29  C   UNL     1      -9.328   0.256 123.457  0.00  0.00    +0.000 C 
ATOM     30  O   UNL     1     -10.475   0.295 123.013  0.00  0.00    +0.000 OA
ATOM     31  N   UNL     1      -8.606  -0.926 123.571  0.00  0.00    +0.000 N 
ATOM     32  C   UNL     1      -8.863  -2.025 122.649  0.00  0.00    +0.000 C 
ATOM     33  C   UNL     1      -9.476  -3.233 123.343  0.00  0.00    +0.000 C 
ATOM     34  C   UNL     1      -8.636  -3.670 124.537  0.00  0.00    +0.000 C 
ATOM     35  C   UNL     1      -8.347  -2.493 125.482  0.00  0.00    +0.000 C 
ATOM     36  C   UNL     1      -7.769  -1.276 124.715  0.00  0.00    +0.000 C 
ENDBRANCH  27  35
ENDBRANCH  26  27
ENDBRANCH  20  26
ENDBRANCH   1  23
TORSDOF 5
ENDMDL
MODEL 3
REMARK VINA RESULT:     -10.0      3.911      5.632
REMARK  Name = CHEMBL142324
REMARK  6 active torsions:
REMARK  status: ('A' for Active; 'I' for Inactive)
REMARK    1  A    between atoms: C_1  and  C_2
REMARK    2  A    between atoms: C_8  and  C_9
REMARK    3  A    between atoms: C_9  and  O_10
REMARK    4  A    between atoms: O_10  and  C_11
REMARK    5  A    between atoms: C_14  and  C_15
REMARK    6  A    between atoms: C_20  and  N_21
REMARK                            x       y       z     vdW  Elec       q    Type
REMARK                         _______ _______ _______ _____ _____    ______ ____
ROOT
ATOM      1  C   UNL     1      -7.416  -2.284 129.499  0.00  0.00    +0.000 C 
ATOM      2  O   UNL     1      -7.528  -3.215 130.296  0.00  0.00    +0.000 OA
ATOM      3  N   UNL     1      -7.119  -0.961 129.915  0.00  0.00    +0.000 N 
ATOM      4  C   UNL     1      -5.916  -0.674 130.694  0.00  0.00    +0.000 C 
ATOM      5  C   UNL     1      -6.185   0.301 131.830  0.00  0.00    +0.000 C 
ATOM      6  C   UNL     1      -6.602   1.912 131.184  0.00  0.00    +0.000 C 
ATOM      7  C   UNL     1      -8.055   1.264 130.563  0.00  0.00    +0.000 C 
ATOM      8  C   UNL     1      -7.854   0.223 129.464  0.00  0.00    +0.000 C 
ENDROOT
BRANCH   6   9
ATOM      9  N   UNL     1      -5.154   2.961 130.728  0.00  0.00    +0.000 N 
ATOM     10  C   UNL     1      -5.838   3.959 131.498  0.00  0.00    +0.000 C 
ATOM     11  O   UNL     1      -6.352   3.896 132.647  0.00  0.00    +0.000 OA
ATOM     12  O   UNL     1      -6.187   5.029 130.828  0.00  0.00    +0.000 OA
ATOM     13  C   UNL     1      -5.138   5.815 131.235  0.00  0.00    +0.000 C 
ATOM     14  C   UNL     1      -4.391   5.583 130.009  0.00  0.00    +0.000 A 
ATOM     15  C   UNL     1      -3.907   6.933 129.504  0.00  0.00    +0.000 A 
ATOM     16  C   UNL     1      -3.025   7.118 128.496  0.00  0.00    +0.000 A 
ATOM     17  C   UNL     1      -2.435   5.903 128.228  0.00  0.00    +0.000 A 
ATOM     18  C   UNL     1      -2.975   4.452 128.821  0.00  0.00    +0.000 A 
ATOM     19  C   UNL     1      -4.235   4.173 129.662  0.00  0.00    +0.000 A 
ENDBRANCH   6   9
BRANCH   1  23
ATOM     20  C   UNL     1      -7.705  -2.887 125.196  0.00  0.00    +0.000 A 
ATOM     21  C   UNL     1      -6.545  -2.337 125.748  0.00  0.00    +0.000 A 
ATOM     22  C   UNL     1      -6.397  -2.234 127.151  0.00  0.00    +0.000 A 
ATOM     23  C   UNL     1      -7.449  -2.602 128.016  0.00  0.00    +0.000 A 
ATOM     24  C   UNL     1      -8.595  -3.132 127.429  0.00  0.00    +0.000 A 
ATOM     25  C   UNL     1      -8.717  -3.296 126.050  0.00  0.00    +0.000 A 
BRANCH  20  26
ATOM     26  O   UNL     1      -7.742  -3.093 123.843  0.00  0.00    +0.000 OA
BRANCH  26  27
ATOM     27  C   UNL     1      -7.376  -1.965 123.031  0.00  0.00    +0.000 C 
BRANCH  27  35
ATOM     28  C   UNL     1      -6.538   3.066 124.920  0.00  0.00    +0.000 C 
ATOM     29  C   UNL     1      -7.954   2.600 124.649  0.00  0.00    +0.000 C 
ATOM     30  O   UNL     1      -8.897   3.080 125.278  0.00  0.00    +0.000 OA
ATOM     31  N   UNL     1      -8.130   1.749 123.564  0.00  0.00    +0.000 N 
ATOM     32  C   UNL     1      -9.324   1.864 122.738  0.00  0.00    +0.000 C 
ATOM     33  C   UNL     1     -10.232   0.648 122.857  0.00  0.00    +0.000 C 
ATOM     34  C   UNL     1      -9.468  -0.642 122.586  0.00  0.00    +0.000 C 
ATOM     35  C   UNL     1      -8.195  -0.732 123.441  0.00  0.00    +0.000 C 
ATOM     36  C   UNL     1      -7.334   0.551 123.317  0.00  0.00    +0.000 C 
ENDBRANCH  27  35
ENDBRANCH  26  27
ENDBRANCH  20  26
ENDBRANCH   1  23
TORSDOF 5
ENDMDL
MODEL 4
REMARK VINA RESULT:      -9.9      3.466      8.230
REMARK  Name = CHEMBL142324
REMARK  6 active torsions:
REMARK  status: ('A' for Active; 'I' for Inactive)
REMARK    1  A    between atoms: C_1  and  C_2
REMARK    2  A    between atoms: C_8  and  C_9
REMARK    3  A    between atoms: C_9  and  O_10
REMARK    4  A    between atoms: O_10  and  C_11
REMARK    5  A    between atoms: C_14  and  C_15
REMARK    6  A    between atoms: C_20  and  N_21
REMARK                            x       y       z     vdW  Elec       q    Type
REMARK                         _______ _______ _______ _____ _____    ______ ____
ROOT
ATOM      1  C   UNL     1      -4.637   5.320 127.594  0.00  0.00    +0.000 C 
ATOM      2  O   UNL     1      -3.998   6.322 127.274  0.00  0.00    +0.000 OA
ATOM      3  N   UNL     1      -5.402   4.577 126.659  0.00  0.00    +0.000 N 
ATOM      4  C   UNL     1      -4.780   4.016 125.461  0.00  0.00    +0.000 C 
ATOM      5  C   UNL     1      -5.644   4.200 124.223  0.00  0.00    +0.000 C 
ATOM      6  C   UNL     1      -7.136   3.229 124.355  0.00  0.00    +0.000 C 
ATOM      7  C   UNL     1      -7.655   4.239 125.631  0.00  0.00    +0.000 C 
ATOM      8  C   UNL     1      -6.787   4.155 126.885  0.00  0.00    +0.000 C 
ENDROOT
BRANCH   6   9
ATOM      9  N   UNL     1      -6.953   1.458 123.871  0.00  0.00    +0.000 N 
ATOM     10  C   UNL     1      -8.325   1.589 123.477  0.00  0.00    +0.000 C 
ATOM     11  O   UNL     1      -8.898   2.474 122.784  0.00  0.00    +0.000 OA
ATOM     12  O   UNL     1      -9.160   0.807 124.117  0.00  0.00    +0.000 OA
ATOM     13  C   UNL     1      -9.249  -0.153 123.141  0.00  0.00    +0.000 C 
ATOM     14  C   UNL     1      -8.296  -1.025 123.808  0.00  0.00    +0.000 A 
ATOM     15  C   UNL     1      -8.896  -2.422 123.840  0.00  0.00    +0.000 A 
ATOM     16  C   UNL     1      -8.238  -3.544 124.209  0.00  0.00    +0.000 A 
ATOM     17  C   UNL     1      -6.895  -3.248 124.250  0.00  0.00    +0.000 A 
ATOM     18  C   UNL     1      -6.275  -1.712 124.183  0.00  0.00    +0.000 A 
ATOM     19  C   UNL     1      -7.037  -0.374 124.163  0.00  0.00    +0.000 A 
ENDBRANCH   6   9
BRANCH   1  23
ATOM     20  C   UNL     1      -4.521   3.689 131.630  0.00  0.00    +0.000 A 
ATOM     21  C   UNL     1      -4.054   2.927 130.555  0.00  0.00    +0.000 A 
ATOM     22  C   UNL     1      -3.988   3.485 129.256  0.00  0.00    +0.000 A 
ATOM     23  C   UNL     1      -4.473   4.785 129.004  0.00  0.00    +0.000 A 
ATOM     24  C   UNL     1      -4.946   5.508 130.097  0.00  0.00    +0.000 A 
ATOM     25  C   UNL     1      -4.950   4.984 131.389  0.00  0.00    +0.000 A 
BRANCH  20  26
ATOM     26  O   UNL     1      -4.435   3.153 132.887  0.00  0.00    +0.000 OA
BRANCH  26  27
ATOM     27  C   UNL     1      -5.455   2.200 133.230  0.00  0.00    +0.000 C 
BRANCH  27  35
ATOM     28  C   UNL     1      -8.423   1.455 128.732  0.00  0.00    +0.000 C 
ATOM     29  C   UNL     1      -8.970   2.322 129.849  0.00  0.00    +0.000 C 
ATOM     30  O   UNL     1      -9.767   3.225 129.601  0.00  0.00    +0.000 OA
ATOM     31  N   UNL     1      -8.654   1.933 131.146  0.00  0.00    +0.000 N 
ATOM     32  C   UNL     1      -9.637   2.091 132.210  0.00  0.00    +0.000 C 
ATOM     33  C   UNL     1      -9.217   3.130 133.240  0.00  0.00    +0.000 C 
ATOM     34  C   UNL     1      -7.824   2.837 133.784  0.00  0.00    +0.000 C 
ATOM     35  C   UNL     1      -6.807   2.642 132.649  0.00  0.00    +0.000 C 
ATOM     36  C   UNL     1      -7.307   1.610 131.607  0.00  0.00    +0.000 C 
ENDBRANCH  27  35
ENDBRANCH  26  27
ENDBRANCH  20  26
ENDBRANCH   1  23
TORSDOF 5
ENDMDL
MODEL 5
REMARK VINA RESULT:      -9.4      3.945     10.280
REMARK  Name = CHEMBL142324
REMARK  6 active torsions:
REMARK  status: ('A' for Active; 'I' for Inactive)
REMARK    1  A    between atoms: C_1  and  C_2
REMARK    2  A    between atoms: C_8  and  C_9
REMARK    3  A    between atoms: C_9  and  O_10
REMARK    4  A    between atoms: O_10  and  C_11
REMARK    5  A    between atoms: C_14  and  C_15
REMARK    6  A    between atoms: C_20  and  N_21
REMARK                            x       y       z     vdW  Elec       q    Type
REMARK                         _______ _______ _______ _____ _____    ______ ____
ROOT
ATOM      1  C   UNL     1      -4.884   5.194 127.615  0.00  0.00    +0.000 C 
ATOM      2  O   UNL     1      -4.191   6.169 127.324  0.00  0.00    +0.000 OA
ATOM      3  N   UNL     1      -5.588   4.445 126.638  0.00  0.00    +0.000 N 
ATOM      4  C   UNL     1      -4.883   3.834 125.512  0.00  0.00    +0.000 C 
ATOM      5  C   UNL     1      -5.634   4.005 124.201  0.00  0.00    +0.000 C 
ATOM      6  C   UNL     1      -7.160   3.079 124.231  0.00  0.00    +0.000 C 
ATOM      7  C   UNL     1      -7.755   4.138 125.431  0.00  0.00    +0.000 C 
ATOM      8  C   UNL     1      -6.999   4.067 126.756  0.00  0.00    +0.000 C 
ENDROOT
BRANCH   6   9
ATOM      9  N   UNL     1      -6.988   1.290 123.810  0.00  0.00    +0.000 N 
ATOM     10  C   UNL     1      -8.348   1.425 123.377  0.00  0.00    +0.000 C 
ATOM     11  O   UNL     1      -8.890   2.293 122.640  0.00  0.00    +0.000 OA
ATOM     12  O   UNL     1      -9.209   0.676 124.020  0.00  0.00    +0.000 OA
ATOM     13  C   UNL     1      -9.286  -0.315 123.075  0.00  0.00    +0.000 C 
ATOM     14  C   UNL     1      -8.361  -1.177 123.794  0.00  0.00    +0.000 A 
ATOM     15  C   UNL     1      -8.981  -2.564 123.858  0.00  0.00    +0.000 A 
ATOM     16  C   UNL     1      -8.348  -3.682 124.281  0.00  0.00    +0.000 A 
ATOM     17  C   UNL     1      -7.002  -3.401 124.347  0.00  0.00    +0.000 A 
ATOM     18  C   UNL     1      -6.360  -1.875 124.245  0.00  0.00    +0.000 A 
ATOM     19  C   UNL     1      -7.104  -0.530 124.161  0.00  0.00    +0.000 A 
ENDBRANCH   6   9
BRANCH   1  23
ATOM     20  C   UNL     1      -4.464   3.915 131.756  0.00  0.00    +0.000 A 
ATOM     21  C   UNL     1      -5.199   5.064 131.451  0.00  0.00    +0.000 A 
ATOM     22  C   UNL     1      -5.431   5.430 130.104  0.00  0.00    +0.000 A 
ATOM     23  C   UNL     1      -4.854   4.695 129.047  0.00  0.00    +0.000 A 
ATOM     24  C   UNL     1      -4.116   3.565 129.390  0.00  0.00    +0.000 A 
ATOM     25  C   UNL     1      -3.941   3.165 130.715  0.00  0.00    +0.000 A 
BRANCH  20  26
ATOM     26  O   UNL     1      -4.386   3.527 133.067  0.00  0.00    +0.000 OA
BRANCH  26  27
ATOM     27  C   UNL     1      -3.131   3.783 133.719  0.00  0.00    +0.000 C 
BRANCH  27  35
ATOM     28  C   UNL     1      -3.030   8.896 135.573  0.00  0.00    +0.000 C 
ATOM     29  C   UNL     1      -2.340   8.566 134.264  0.00  0.00    +0.000 C 
ATOM     30  O   UNL     1      -2.209   9.428 133.396  0.00  0.00    +0.000 OA
ATOM     31  N   UNL     1      -1.735   7.317 134.180  0.00  0.00    +0.000 N 
ATOM     32  C   UNL     1      -0.480   7.167 133.457  0.00  0.00    +0.000 C 
ATOM     33  C   UNL     1      -0.632   6.325 132.198  0.00  0.00    +0.000 C 
ATOM     34  C   UNL     1      -1.282   4.982 132.506  0.00  0.00    +0.000 C 
ATOM     35  C   UNL     1      -2.588   5.157 133.297  0.00  0.00    +0.000 C 
ATOM     36  C   UNL     1      -2.384   6.059 134.540  0.00  0.00    +0.000 C 
ENDBRANCH  27  35
ENDBRANCH  26  27
ENDBRANCH  20  26
ENDBRANCH   1  23
TORSDOF 5
ENDMDL
MODEL 6
REMARK VINA RESULT:      -9.4      2.920      5.363
REMARK  Name = CHEMBL142324
REMARK  6 active torsions:
REMARK  status: ('A' for Active; 'I' for Inactive)
REMARK    1  A    between atoms: C_1  and  C_2
REMARK    2  A    between atoms: C_8  and  C_9
REMARK    3  A    between atoms: C_9  and  O_10
REMARK    4  A    between atoms: O_10  and  C_11
REMARK    5  A    between atoms: C_14  and  C_15
REMARK    6  A    between atoms: C_20  and  N_21
REMARK                            x       y       z     vdW  Elec       q    Type
REMARK                         _______ _______ _______ _____ _____    ______ ____
ROOT
ATOM      1  C   UNL     1      -9.060   1.408 131.381  0.00  0.00    +0.000 C 
ATOM      2  O   UNL     1      -9.989   1.000 132.078  0.00  0.00    +0.000 OA
ATOM      3  N   UNL     1      -8.529   2.716 131.516  0.00  0.00    +0.000 N 
ATOM      4  C   UNL     1      -8.008   3.183 132.800  0.00  0.00    +0.000 C 
ATOM      5  C   UNL     1      -8.435   4.610 133.109  0.00  0.00    +0.000 C 
ATOM      6  C   UNL     1      -7.675   5.749 131.964  0.00  0.00    +0.000 C 
ATOM      7  C   UNL     1      -8.615   5.078 130.705  0.00  0.00    +0.000 C 
ATOM      8  C   UNL     1      -8.286   3.621 130.390  0.00  0.00    +0.000 C 
ENDROOT
BRANCH   6   9
ATOM      9  N   UNL     1      -5.953   6.250 132.398  0.00  0.00    +0.000 N 
ATOM     10  C   UNL     1      -5.965   6.840 131.091  0.00  0.00    +0.000 C 
ATOM     11  O   UNL     1      -6.818   7.586 130.538  0.00  0.00    +0.000 OA
ATOM     12  O   UNL     1      -5.079   6.354 130.257  0.00  0.00    +0.000 OA
ATOM     13  C   UNL     1      -4.157   7.359 130.411  0.00  0.00    +0.000 C 
ATOM     14  C   UNL     1      -3.354   6.582 131.342  0.00  0.00    +0.000 A 
ATOM     15  C   UNL     1      -1.906   6.678 130.891  0.00  0.00    +0.000 A 
ATOM     16  C   UNL     1      -0.838   6.246 131.600  0.00  0.00    +0.000 A 
ATOM     17  C   UNL     1      -1.263   5.997 132.885  0.00  0.00    +0.000 A 
ATOM     18  C   UNL     1      -2.854   5.929 133.346  0.00  0.00    +0.000 A 
ATOM     19  C   UNL     1      -4.110   6.024 132.461  0.00  0.00    +0.000 A 
ENDBRANCH   6   9
BRANCH   1  23
ATOM     20  C   UNL     1      -7.414  -1.538 128.629  0.00  0.00    +0.000 A 
ATOM     21  C   UNL     1      -7.522  -0.200 128.239  0.00  0.00    +0.000 A 
ATOM     22  C   UNL     1      -7.956   0.783 129.159  0.00  0.00    +0.000 A 
ATOM     23  C   UNL     1      -8.370   0.422 130.458  0.00  0.00    +0.000 A 
ATOM     24  C   UNL     1      -8.263  -0.922 130.807  0.00  0.00    +0.000 A 
ATOM     25  C   UNL     1      -7.773  -1.883 129.923  0.00  0.00    +0.000 A 
BRANCH  20  26
ATOM     26  O   UNL     1      -6.859  -2.426 127.747  0.00  0.00    +0.000 OA
BRANCH  26  27
ATOM     27  C   UNL     1      -6.426  -1.872 126.494  0.00  0.00    +0.000 C 
BRANCH  27  35
ATOM     28  C   UNL     1      -8.779   1.707 123.141  0.00  0.00    +0.000 C 
ATOM     29  C   UNL     1      -9.327   0.296 123.227  0.00  0.00    +0.000 C 
ATOM     30  O   UNL     1     -10.513   0.075 122.984  0.00  0.00    +0.000 OA
ATOM     31  N   UNL     1      -8.399  -0.719 123.424  0.00  0.00    +0.000 N 
ATOM     32  C   UNL     1      -8.583  -2.007 122.769  0.00  0.00    +0.000 C 
ATOM     33  C   UNL     1      -8.870  -3.126 123.760  0.00  0.00    +0.000 C 
ATOM     34  C   UNL     1      -7.809  -3.183 124.853  0.00  0.00    +0.000 C 
ATOM     35  C   UNL     1      -7.604  -1.810 125.510  0.00  0.00    +0.000 C 
ATOM     36  C   UNL     1      -7.363  -0.703 124.452  0.00  0.00    +0.000 C 
ENDBRANCH  27  35
ENDBRANCH  26  27
ENDBRANCH  20  26
ENDBRANCH   1  23
TORSDOF 5
ENDMDL
MODEL 7
REMARK VINA RESULT:      -9.3      3.732      7.888
REMARK  Name = CHEMBL142324
REMARK  6 active torsions:
REMARK  status: ('A' for Active; 'I' for Inactive)
REMARK    1  A    between atoms: C_1  and  C_2
REMARK    2  A    between atoms: C_8  and  C_9
REMARK    3  A    between atoms: C_9  and  O_10
REMARK    4  A    between atoms: O_10  and  C_11
REMARK    5  A    between atoms: C_14  and  C_15
REMARK    6  A    between atoms: C_20  and  N_21
REMARK                            x       y       z     vdW  Elec       q    Type
REMARK                         _______ _______ _______ _____ _____    ______ ____
ROOT
ATOM      1  C   UNL     1      -4.852   5.187 127.619  0.00  0.00    +0.000 C 
ATOM      2  O   UNL     1      -4.129   6.153 127.372  0.00  0.00    +0.000 OA
ATOM      3  N   UNL     1      -5.559   4.491 126.606  0.00  0.00    +0.000 N 
ATOM      4  C   UNL     1      -4.852   3.900 125.471  0.00  0.00    +0.000 C 
ATOM      5  C   UNL     1      -5.577   4.136 124.155  0.00  0.00    +0.000 C 
ATOM      6  C   UNL     1      -7.127   3.250 124.129  0.00  0.00    +0.000 C 
ATOM      7  C   UNL     1      -7.714   4.283 125.356  0.00  0.00    +0.000 C 
ATOM      8  C   UNL     1      -6.981   4.147 126.689  0.00  0.00    +0.000 C 
ENDROOT
BRANCH   6   9
ATOM      9  N   UNL     1      -6.994   1.473 123.650  0.00  0.00    +0.000 N 
ATOM     10  C   UNL     1      -8.385   1.620 123.334  0.00  0.00    +0.000 C 
ATOM     11  O   UNL     1      -8.984   2.507 122.666  0.00  0.00    +0.000 OA
ATOM     12  O   UNL     1      -9.193   0.855 124.025  0.00  0.00    +0.000 OA
ATOM     13  C   UNL     1      -9.350  -0.112 123.064  0.00  0.00    +0.000 C 
ATOM     14  C   UNL     1      -8.372  -0.992 123.684  0.00  0.00    +0.000 A 
ATOM     15  C   UNL     1      -8.989  -2.380 123.762  0.00  0.00    +0.000 A 
ATOM     16  C   UNL     1      -8.326  -3.509 124.103  0.00  0.00    +0.000 A 
ATOM     17  C   UNL     1      -6.979  -3.231 124.066  0.00  0.00    +0.000 A 
ATOM     18  C   UNL     1      -6.343  -1.704 123.951  0.00  0.00    +0.000 A 
ATOM     19  C   UNL     1      -7.087  -0.356 123.963  0.00  0.00    +0.000 A 
ENDBRANCH   6   9
BRANCH   1  23
ATOM     20  C   UNL     1      -5.117   3.365 131.565  0.00  0.00    +0.000 A 
ATOM     21  C   UNL     1      -4.056   3.040 130.715  0.00  0.00    +0.000 A 
ATOM     22  C   UNL     1      -3.901   3.703 129.475  0.00  0.00    +0.000 A 
ATOM     23  C   UNL     1      -4.859   4.640 129.034  0.00  0.00    +0.000 A 
ATOM     24  C   UNL     1      -5.910   4.927 129.900  0.00  0.00    +0.000 A 
ATOM     25  C   UNL     1      -6.029   4.323 131.152  0.00  0.00    +0.000 A 
BRANCH  20  26
ATOM     26  O   UNL     1      -5.145   2.797 132.811  0.00  0.00    +0.000 OA
BRANCH  26  27
ATOM     27  C   UNL     1      -5.215   1.362 132.840  0.00  0.00    +0.000 C 
BRANCH  27  35
ATOM     28  C   UNL     1      -5.413  -1.385 128.149  0.00  0.00    +0.000 C 
ATOM     29  C   UNL     1      -6.704  -0.918 128.792  0.00  0.00    +0.000 C 
ATOM     30  O   UNL     1      -7.695  -0.688 128.101  0.00  0.00    +0.000 OA
ATOM     31  N   UNL     1      -6.743  -0.929 130.182  0.00  0.00    +0.000 N 
ATOM     32  C   UNL     1      -7.975  -1.292 130.870  0.00  0.00    +0.000 C 
ATOM     33  C   UNL     1      -8.583  -0.122 131.628  0.00  0.00    +0.000 C 
ATOM     34  C   UNL     1      -7.568   0.517 132.568  0.00  0.00    +0.000 C 
ATOM     35  C   UNL     1      -6.263   0.864 131.834  0.00  0.00    +0.000 C 
ATOM     36  C   UNL     1      -5.715  -0.350 131.042  0.00  0.00    +0.000 C 
ENDBRANCH  27  35
ENDBRANCH  26  27
ENDBRANCH  20  26
ENDBRANCH   1  23
TORSDOF 5
ENDMDL
MODEL 8
REMARK VINA RESULT:      -9.3      2.798      9.104
REMARK  Name = CHEMBL142324
REMARK  6 active torsions:
REMARK  status: ('A' for Active; 'I' for Inactive)
REMARK    1  A    between atoms: C_1  and  C_2
REMARK    2  A    between atoms: C_8  and  C_9
REMARK    3  A    between atoms: C_9  and  O_10
REMARK    4  A    between atoms: O_10  and  C_11
REMARK    5  A    between atoms: C_14  and  C_15
REMARK    6  A    between atoms: C_20  and  N_21
REMARK                            x       y       z     vdW  Elec       q    Type
REMARK                         _______ _______ _______ _____ _____    ______ ____
ROOT
ATOM      1  C   UNL     1      -7.273  -0.643 132.477  0.00  0.00    +0.000 C 
ATOM      2  O   UNL     1      -7.344  -1.377 133.463  0.00  0.00    +0.000 OA
ATOM      3  N   UNL     1      -6.603  -1.032 131.289  0.00  0.00    +0.000 N 
ATOM      4  C   UNL     1      -6.986  -2.250 130.578  0.00  0.00    +0.000 C 
ATOM      5  C   UNL     1      -5.779  -3.044 130.103  0.00  0.00    +0.000 C 
ATOM      6  C   UNL     1      -4.896  -2.140 128.842  0.00  0.00    +0.000 C 
ATOM      7  C   UNL     1      -4.454  -0.978 130.013  0.00  0.00    +0.000 C 
ATOM      8  C   UNL     1      -5.631  -0.191 130.585  0.00  0.00    +0.000 C 
ENDROOT
BRANCH   6   9
ATOM      9  N   UNL     1      -5.585  -2.315 127.139  0.00  0.00    +0.000 N 
ATOM     10  C   UNL     1      -5.749  -0.893 127.233  0.00  0.00    +0.000 C 
ATOM     11  O   UNL     1      -4.939   0.002 127.598  0.00  0.00    +0.000 OA
ATOM     12  O   UNL     1      -6.988  -0.474 127.150  0.00  0.00    +0.000 OA
ATOM     13  C   UNL     1      -6.939  -0.113 125.827  0.00  0.00    +0.000 C 
ATOM     14  C   UNL     1      -7.580  -1.344 125.391  0.00  0.00    +0.000 A 
ATOM     15  C   UNL     1      -8.690  -0.967 124.423  0.00  0.00    +0.000 A 
ATOM     16  C   UNL     1      -9.390  -1.838 123.662  0.00  0.00    +0.000 A 
ATOM     17  C   UNL     1      -8.730  -3.046 123.693  0.00  0.00    +0.000 A 
ATOM     18  C   UNL     1      -7.502  -3.411 124.746  0.00  0.00    +0.000 A 
ATOM     19  C   UNL     1      -6.950  -2.559 125.903  0.00  0.00    +0.000 A 
ENDBRANCH   6   9
BRANCH   1  23
ATOM     20  C   UNL     1      -9.316   3.195 132.240  0.00  0.00    +0.000 A 
ATOM     21  C   UNL     1      -9.867   2.071 131.618  0.00  0.00    +0.000 A 
ATOM     22  C   UNL     1      -9.269   0.799 131.777  0.00  0.00    +0.000 A 
ATOM     23  C   UNL     1      -8.061   0.654 132.490  0.00  0.00    +0.000 A 
ATOM     24  C   UNL     1      -7.533   1.798 133.083  0.00  0.00    +0.000 A 
ATOM     25  C   UNL     1      -8.156   3.042 132.984  0.00  0.00    +0.000 A 
BRANCH  20  26
ATOM     26  O   UNL     1     -10.007   4.376 132.172  0.00  0.00    +0.000 OA
BRANCH  26  27
ATOM     27  C   UNL     1      -9.335   5.453 131.499  0.00  0.00    +0.000 C 
BRANCH  27  35
ATOM     28  C   UNL     1     -10.994   7.624 126.795  0.00  0.00    +0.000 C 
ATOM     29  C   UNL     1     -11.662   8.050 128.087  0.00  0.00    +0.000 C 
ATOM     30  O   UNL     1     -12.172   9.165 128.185  0.00  0.00    +0.000 OA
ATOM     31  N   UNL     1     -11.805   7.071 129.063  0.00  0.00    +0.000 N 
ATOM     32  C   UNL     1     -13.001   7.045 129.895  0.00  0.00    +0.000 C 
ATOM     33  C   UNL     1     -12.702   7.366 131.352  0.00  0.00    +0.000 C 
ATOM     34  C   UNL     1     -11.601   6.468 131.902  0.00  0.00    +0.000 C 
ATOM     35  C   UNL     1     -10.360   6.482 130.997  0.00  0.00    +0.000 C 
ATOM     36  C   UNL     1     -10.729   6.195 129.519  0.00  0.00    +0.000 C 
ENDBRANCH  27  35
ENDBRANCH  26  27
ENDBRANCH  20  26
ENDBRANCH   1  23
TORSDOF 5
ENDMDL
MODEL 9
REMARK VINA RESULT:      -9.3      4.602      9.253
REMARK  Name = CHEMBL142324
REMARK  6 active torsions:
REMARK  status: ('A' for Active; 'I' for Inactive)
REMARK    1  A    between atoms: C_1  and  C_2
REMARK    2  A    between atoms: C_8  and  C_9
REMARK    3  A    between atoms: C_9  and  O_10
REMARK    4  A    between atoms: O_10  and  C_11
REMARK    5  A    between atoms: C_14  and  C_15
REMARK    6  A    between atoms: C_20  and  N_21
REMARK                            x       y       z     vdW  Elec       q    Type
REMARK                         _______ _______ _______ _____ _____    ______ ____
ROOT
ATOM      1  C   UNL     1      -5.829  -1.522 132.311  0.00  0.00    +0.000 C 
ATOM      2  O   UNL     1      -6.000  -2.352 133.204  0.00  0.00    +0.000 OA
ATOM      3  N   UNL     1      -6.253  -1.746 130.977  0.00  0.00    +0.000 N 
ATOM      4  C   UNL     1      -7.652  -2.046 130.676  0.00  0.00    +0.000 C 
ATOM      5  C   UNL     1      -7.794  -3.158 129.648  0.00  0.00    +0.000 C 
ATOM      6  C   UNL     1      -7.181  -2.620 128.060  0.00  0.00    +0.000 C 
ATOM      7  C   UNL     1      -5.601  -2.572 128.709  0.00  0.00    +0.000 C 
ATOM      8  C   UNL     1      -5.408  -1.522 129.801  0.00  0.00    +0.000 C 
ENDROOT
BRANCH   6   9
ATOM      9  N   UNL     1      -8.382  -1.642 127.057  0.00  0.00    +0.000 N 
ATOM     10  C   UNL     1      -8.230  -2.716 126.120  0.00  0.00    +0.000 C 
ATOM     11  O   UNL     1      -8.277  -3.965 126.291  0.00  0.00    +0.000 OA
ATOM     12  O   UNL     1      -7.741  -2.368 124.955  0.00  0.00    +0.000 OA
ATOM     13  C   UNL     1      -8.943  -2.315 124.294  0.00  0.00    +0.000 C 
ATOM     14  C   UNL     1      -9.034  -0.869 124.420  0.00  0.00    +0.000 A 
ATOM     15  C   UNL     1      -9.391  -0.311 123.052  0.00  0.00    +0.000 A 
ATOM     16  C   UNL     1      -9.746   0.970 122.801  0.00  0.00    +0.000 A 
ATOM     17  C   UNL     1     -10.014   1.574 124.009  0.00  0.00    +0.000 A 
ATOM     18  C   UNL     1      -9.635   0.920 125.485  0.00  0.00    +0.000 A 
ATOM     19  C   UNL     1      -8.860  -0.376 125.784  0.00  0.00    +0.000 A 
ENDBRANCH   6   9
BRANCH   1  23
ATOM     20  C   UNL     1      -4.129   2.415 133.068  0.00  0.00    +0.000 A 
ATOM     21  C   UNL     1      -5.486   2.288 132.757  0.00  0.00    +0.000 A 
ATOM     22  C   UNL     1      -6.072   1.008 132.614  0.00  0.00    +0.000 A 
ATOM     23  C   UNL     1      -5.284  -0.159 132.694  0.00  0.00    +0.000 A 
ATOM     24  C   UNL     1      -3.933   0.007 132.990  0.00  0.00    +0.000 A 
ATOM     25  C   UNL     1      -3.367   1.265 133.197  0.00  0.00    +0.000 A 
BRANCH  20  26
ATOM     26  O   UNL     1      -3.641   3.667 133.333  0.00  0.00    +0.000 OA
BRANCH  26  27
ATOM     27  C   UNL     1      -2.296   3.917 132.894  0.00  0.00    +0.000 C 
BRANCH  27  35
ATOM     28  C   UNL     1      -2.690   4.715 127.527  0.00  0.00    +0.000 C 
ATOM     29  C   UNL     1      -2.526   5.908 128.446  0.00  0.00    +0.000 C 
ATOM     30  O   UNL     1      -1.994   6.939 128.037  0.00  0.00    +0.000 OA
ATOM     31  N   UNL     1      -3.147   5.826 129.687  0.00  0.00    +0.000 N 
ATOM     32  C   UNL     1      -3.750   7.014 130.278  0.00  0.00    +0.000 C 
ATOM     33  C   UNL     1      -3.020   7.472 131.532  0.00  0.00    +0.000 C 
ATOM     34  C   UNL     1      -2.883   6.337 132.539  0.00  0.00    +0.000 C 
ATOM     35  C   UNL     1      -2.277   5.082 131.892  0.00  0.00    +0.000 C 
ATOM     36  C   UNL     1      -3.029   4.689 130.596  0.00  0.00    +0.000 C 
ENDBRANCH  27  35
ENDBRANCH  26  27
ENDBRANCH  20  26
ENDBRANCH   1  23
TORSDOF 5
ENDMDL
