MODEL 1
REMARK VINA RESULT:      -9.9      0.000      0.000
REMARK  Name = CHEMBL2037514
REMARK  10 active torsions:
REMARK  status: ('A' for Active; 'I' for Inactive)
REMARK    1  A    between atoms: C_1  and  C_2
REMARK    2  A    between atoms: C_2  and  C_3
REMARK    3  A    between atoms: C_3  and  C_4
REMARK    4  A    between atoms: C_3  and  C_6
REMARK    5  A    between atoms: C_4  and  C_5
REMARK    6  A    between atoms: C_10  and  C_11
REMARK    7  A    between atoms: N_22  and  C_23
REMARK    8  A    between atoms: C_23  and  C_24
REMARK    9  A    between atoms: C_23  and  C_32
REMARK   10  A    between atoms: C_35  and  C_36
REMARK                            x       y       z     vdW  Elec       q    Type
REMARK                         _______ _______ _______ _____ _____    ______ ____
ROOT
ATOM      1  C   UNK A   2      -7.986   2.710 129.004  0.00  0.00    +0.000 C 
ATOM      2  C   UNK A   2      -8.103   4.113 128.377  0.00  0.00    +0.000 C 
ATOM      3  O   UNK A   2      -8.181   4.486 127.243  0.00  0.00    +0.000 OA
ATOM      4  N   UNK A   1      -8.330   5.073 129.272  0.00  0.00    +0.000 N 
ATOM      5  C   UNK A   1      -8.938   4.771 130.522  0.00  0.00    +0.000 C 
ATOM      6  C   UNK A   1      -7.958   3.880 131.266  0.00  0.00    +0.000 C 
ATOM      7  O   UNK A   1      -7.870   4.052 132.466  0.00  0.00    +0.000 OA
ATOM      8  N   UNK A   2      -7.288   2.917 130.452  0.00  0.00    +0.000 N 
ATOM      9  H   UNK A   1      -8.518   5.919 128.753  0.00  0.00    +0.000 HD
ENDROOT
BRANCH   5  10
ATOM     10  C   UNK A   1      -9.134   6.068 131.306  0.00  0.00    +0.000 C 
ATOM     11  C   UNK A   1     -10.605   6.179 131.743  0.00  0.00    +0.000 C 
ATOM     12  C   UNK A   1     -11.209   6.938 130.592  0.00  0.00    +0.000 A 
ATOM     13  C   UNK A   1     -12.525   6.905 130.165  0.00  0.00    +0.000 A 
ATOM     14  C   UNK A   1     -12.848   7.543 128.965  0.00  0.00    +0.000 A 
ATOM     15  C   UNK A   1     -11.857   8.174 128.195  0.00  0.00    +0.000 A 
ATOM     16  C   UNK A   1     -10.524   8.172 128.610  0.00  0.00    +0.000 A 
ATOM     17  C   UNK A   1     -10.216   7.564 129.817  0.00  0.00    +0.000 A 
ATOM     18  C   UNK A   1      -8.852   7.303 130.394  0.00  0.00    +0.000 C 
ENDBRANCH   5  10
BRANCH   1  19
ATOM     19  C   UNK A   2      -7.304   1.787 127.958  0.00  0.00    +0.000 C 
BRANCH  19  21
ATOM     20  C   UNK A   2      -9.233   1.051 125.868  0.00  0.00    +0.000 C 
ATOM     21  C   UNK A   2      -8.304   0.690 127.130  0.00  0.00    +0.000 C 
ENDBRANCH  19  21
BRANCH  19  22
ATOM     22  C   UNK A   2      -5.629   2.422 127.337  0.00  0.00    +0.000 C 
ATOM     23  C   UNK A   2      -5.141   3.133 125.843  0.00  0.00    +0.000 C 
ENDBRANCH  19  22
ENDBRANCH   1  19
BRANCH   8  24
ATOM     24  C   UNK A   0      -6.017   2.175 131.054  0.00  0.00    +0.000 C 
BRANCH  24  25
ATOM     25  C   UNK A   0      -5.532   0.593 130.569  0.00  0.00    +0.000 C 
ATOM     26  O   UNK A   0      -4.496   0.308 129.967  0.00  0.00    +0.000 OA
ATOM     27  N   UNK A   0      -6.156  -0.535 130.986  0.00  0.00    +0.000 N 
ATOM     28  C   UNK A   0      -7.517  -0.740 130.774  0.00  0.00    +0.000 C 
ATOM     29  C   UNK A   0      -7.845  -1.109 132.288  0.00  0.00    +0.000 C 
ATOM     30  O   UNK A   0      -7.437  -2.339 132.808  0.00  0.00    +0.000 OA
ATOM     31  C   UNK A   0      -6.030  -2.236 132.830  0.00  0.00    +0.000 C 
ATOM     32  C   UNK A   0      -5.561  -1.817 131.412  0.00  0.00    +0.000 C 
ENDBRANCH  24  25
BRANCH  24  33
ATOM     33  C   UNK A   0      -4.723   3.085 131.086  0.00  0.00    +0.000 A 
ATOM     34  C   UNK A   0      -3.770   3.052 132.124  0.00  0.00    +0.000 A 
ATOM     35  C   UNK A   0      -2.817   4.084 132.242  0.00  0.00    +0.000 A 
ATOM     36  C   UNK A   0      -2.724   5.036 131.239  0.00  0.00    +0.000 A 
ATOM     37  C   UNK A   0      -1.719   6.129 131.220  0.00  0.00    +0.000 C 
ATOM     38  N   UNK A   0      -3.533   5.034 130.182  0.00  0.00    +0.000 NA
ATOM     39  C   UNK A   0      -4.510   4.110 130.161  0.00  0.00    +0.000 A 
ENDBRANCH  24  33
ENDBRANCH   8  24
TORSDOF 7
ENDMDL
MODEL 2
REMARK VINA RESULT:      -9.8      1.842      4.571
REMARK  Name = CHEMBL2037514
REMARK  10 active torsions:
REMARK  status: ('A' for Active; 'I' for Inactive)
REMARK    1  A    between atoms: C_1  and  C_2
REMARK    2  A    between atoms: C_2  and  C_3
REMARK    3  A    between atoms: C_3  and  C_4
REMARK    4  A    between atoms: C_3  and  C_6
REMARK    5  A    between atoms: C_4  and  C_5
REMARK    6  A    between atoms: C_10  and  C_11
REMARK    7  A    between atoms: N_22  and  C_23
REMARK    8  A    between atoms: C_23  and  C_24
REMARK    9  A    between atoms: C_23  and  C_32
REMARK   10  A    between atoms: C_35  and  C_36
REMARK                            x       y       z     vdW  Elec       q    Type
REMARK                         _______ _______ _______ _____ _____    ______ ____
ROOT
ATOM      1  C   UNK A   2      -8.030   2.951 129.363  0.00  0.00    +0.000 C 
ATOM      2  C   UNK A   2      -8.183   4.278 128.595  0.00  0.00    +0.000 C 
ATOM      3  O   UNK A   2      -8.174   4.540 127.428  0.00  0.00    +0.000 OA
ATOM      4  N   UNK A   1      -8.565   5.294 129.369  0.00  0.00    +0.000 N 
ATOM      5  C   UNK A   1      -9.270   5.057 130.581  0.00  0.00    +0.000 C 
ATOM      6  C   UNK A   1      -8.309   4.318 131.494  0.00  0.00    +0.000 C 
ATOM      7  O   UNK A   1      -8.352   4.602 132.676  0.00  0.00    +0.000 OA
ATOM      8  N   UNK A   2      -7.495   3.341 130.843  0.00  0.00    +0.000 N 
ATOM      9  H   UNK A   1      -8.759   6.072 128.756  0.00  0.00    +0.000 HD
ENDROOT
BRANCH   5  10
ATOM     10  C   UNK A   1      -9.634   6.401 131.214  0.00  0.00    +0.000 C 
ATOM     11  C   UNK A   1     -11.151   6.450 131.464  0.00  0.00    +0.000 C 
ATOM     12  C   UNK A   1     -11.650   7.067 130.186  0.00  0.00    +0.000 A 
ATOM     13  C   UNK A   1     -12.900   6.910 129.611  0.00  0.00    +0.000 A 
ATOM     14  C   UNK A   1     -13.109   7.422 128.328  0.00  0.00    +0.000 A 
ATOM     15  C   UNK A   1     -12.067   8.051 127.626  0.00  0.00    +0.000 A 
ATOM     16  C   UNK A   1     -10.797   8.173 128.192  0.00  0.00    +0.000 A 
ATOM     17  C   UNK A   1     -10.606   7.690 129.478  0.00  0.00    +0.000 A 
ATOM     18  C   UNK A   1      -9.312   7.571 130.232  0.00  0.00    +0.000 C 
ENDBRANCH   5  10
BRANCH   1  19
ATOM     19  C   UNK A   2      -7.186   1.995 128.479  0.00  0.00    +0.000 C 
BRANCH  19  21
ATOM     20  C   UNK A   2      -4.263   1.890 128.757  0.00  0.00    +0.000 C 
ATOM     21  C   UNK A   2      -5.604   2.488 128.100  0.00  0.00    +0.000 C 
ENDBRANCH  19  21
BRANCH  19  22
ATOM     22  C   UNK A   2      -7.805   0.203 128.465  0.00  0.00    +0.000 C 
ATOM     23  C   UNK A   2      -6.995  -1.304 128.693  0.00  0.00    +0.000 C 
ENDBRANCH  19  22
ENDBRANCH   1  19
BRANCH   8  24
ATOM     24  C   UNK A   0      -6.241   2.759 131.628  0.00  0.00    +0.000 C 
BRANCH  24  25
ATOM     25  C   UNK A   0      -5.468   3.597 132.922  0.00  0.00    +0.000 C 
ATOM     26  O   UNK A   0      -5.680   3.423 134.122  0.00  0.00    +0.000 OA
ATOM     27  N   UNK A   0      -4.390   4.399 132.748  0.00  0.00    +0.000 N 
ATOM     28  C   UNK A   0      -4.421   5.488 131.882  0.00  0.00    +0.000 C 
ATOM     29  C   UNK A   0      -3.089   5.092 131.104  0.00  0.00    +0.000 C 
ATOM     30  O   UNK A   0      -1.848   5.242 131.727  0.00  0.00    +0.000 OA
ATOM     31  C   UNK A   0      -1.881   4.282 132.761  0.00  0.00    +0.000 C 
ATOM     32  C   UNK A   0      -3.177   4.512 133.582  0.00  0.00    +0.000 C 
ENDBRANCH  24  25
BRANCH  24  33
ATOM     33  C   UNK A   0      -6.430   1.254 132.075  0.00  0.00    +0.000 A 
ATOM     34  C   UNK A   0      -5.417   0.279 131.988  0.00  0.00    +0.000 A 
ATOM     35  C   UNK A   0      -5.737  -1.087 132.117  0.00  0.00    +0.000 A 
ATOM     36  C   UNK A   0      -7.022  -1.449 132.488  0.00  0.00    +0.000 A 
ATOM     37  C   UNK A   0      -7.459  -2.849 132.719  0.00  0.00    +0.000 C 
ATOM     38  N   UNK A   0      -7.981  -0.548 132.693  0.00  0.00    +0.000 NA
ATOM     39  C   UNK A   0      -7.676   0.738 132.443  0.00  0.00    +0.000 A 
ENDBRANCH  24  33
ENDBRANCH   8  24
TORSDOF 7
ENDMDL
MODEL 3
REMARK VINA RESULT:      -9.7      2.808      7.850
REMARK  Name = CHEMBL2037514
REMARK  10 active torsions:
REMARK  status: ('A' for Active; 'I' for Inactive)
REMARK    1  A    between atoms: C_1  and  C_2
REMARK    2  A    between atoms: C_2  and  C_3
REMARK    3  A    between atoms: C_3  and  C_4
REMARK    4  A    between atoms: C_3  and  C_6
REMARK    5  A    between atoms: C_4  and  C_5
REMARK    6  A    between atoms: C_10  and  C_11
REMARK    7  A    between atoms: N_22  and  C_23
REMARK    8  A    between atoms: C_23  and  C_24
REMARK    9  A    between atoms: C_23  and  C_32
REMARK   10  A    between atoms: C_35  and  C_36
REMARK                            x       y       z     vdW  Elec       q    Type
REMARK                         _______ _______ _______ _____ _____    ______ ____
ROOT
ATOM      1  C   UNK A   2      -7.437   1.011 129.043  0.00  0.00    +0.000 C 
ATOM      2  C   UNK A   2      -6.674  -0.261 128.626  0.00  0.00    +0.000 C 
ATOM      3  O   UNK A   2      -6.494  -1.309 129.173  0.00  0.00    +0.000 OA
ATOM      4  N   UNK A   1      -6.289  -0.249 127.350  0.00  0.00    +0.000 N 
ATOM      5  C   UNK A   1      -6.974   0.547 126.393  0.00  0.00    +0.000 C 
ATOM      6  C   UNK A   1      -6.743   1.992 126.798  0.00  0.00    +0.000 C 
ATOM      7  O   UNK A   1      -6.587   2.792 125.896  0.00  0.00    +0.000 OA
ATOM      8  N   UNK A   2      -6.778   2.232 128.205  0.00  0.00    +0.000 N 
ATOM      9  H   UNK A   1      -5.919  -1.167 127.148  0.00  0.00    +0.000 HD
ENDROOT
BRANCH   5  10
ATOM     10  C   UNK A   1      -6.358   0.306 125.014  0.00  0.00    +0.000 C 
ATOM     11  C   UNK A   1      -7.473   0.303 123.954  0.00  0.00    +0.000 C 
ATOM     12  C   UNK A   1      -7.837  -1.156 123.900  0.00  0.00    +0.000 A 
ATOM     13  C   UNK A   1      -9.056  -1.703 123.538  0.00  0.00    +0.000 A 
ATOM     14  C   UNK A   1      -9.251  -3.073 123.727  0.00  0.00    +0.000 A 
ATOM     15  C   UNK A   1      -8.247  -3.871 124.300  0.00  0.00    +0.000 A 
ATOM     16  C   UNK A   1      -7.033  -3.309 124.700  0.00  0.00    +0.000 A 
ATOM     17  C   UNK A   1      -6.835  -1.954 124.481  0.00  0.00    +0.000 A 
ATOM     18  C   UNK A   1      -5.691  -1.104 124.955  0.00  0.00    +0.000 C 
ENDBRANCH   5  10
BRANCH   1  19
ATOM     19  C   UNK A   2      -7.437   1.067 130.595  0.00  0.00    +0.000 C 
BRANCH  19  21
ATOM     20  C   UNK A   2      -5.354   2.441 132.145  0.00  0.00    +0.000 C 
ATOM     21  C   UNK A   2      -5.924   1.156 131.364  0.00  0.00    +0.000 C 
ENDBRANCH  19  21
BRANCH  19  22
ATOM     22  C   UNK A   2      -9.082   1.632 131.350  0.00  0.00    +0.000 C 
ATOM     23  C   UNK A   2      -9.452   2.580 132.743  0.00  0.00    +0.000 C 
ENDBRANCH  19  22
ENDBRANCH   1  19
BRANCH   8  24
ATOM     24  C   UNK A   0      -6.223   3.619 128.748  0.00  0.00    +0.000 C 
BRANCH  24  25
ATOM     25  C   UNK A   0      -5.189   4.646 127.827  0.00  0.00    +0.000 C 
ATOM     26  O   UNK A   0      -5.475   5.188 126.759  0.00  0.00    +0.000 OA
ATOM     27  N   UNK A   0      -4.011   5.126 128.294  0.00  0.00    +0.000 N 
ATOM     28  C   UNK A   0      -2.999   4.278 128.738  0.00  0.00    +0.000 C 
ATOM     29  C   UNK A   0      -2.791   5.019 130.132  0.00  0.00    +0.000 C 
ATOM     30  O   UNK A   0      -2.169   6.269 130.169  0.00  0.00    +0.000 OA
ATOM     31  C   UNK A   0      -3.094   7.116 129.523  0.00  0.00    +0.000 C 
ATOM     32  C   UNK A   0      -3.442   6.481 128.151  0.00  0.00    +0.000 C 
ENDBRANCH  24  25
BRANCH  24  33
ATOM     33  C   UNK A   0      -7.343   4.527 129.400  0.00  0.00    +0.000 A 
ATOM     34  C   UNK A   0      -7.157   5.272 130.581  0.00  0.00    +0.000 A 
ATOM     35  C   UNK A   0      -8.268   5.808 131.261  0.00  0.00    +0.000 A 
ATOM     36  C   UNK A   0      -9.521   5.734 130.673  0.00  0.00    +0.000 A 
ATOM     37  C   UNK A   0     -10.752   6.320 131.262  0.00  0.00    +0.000 C 
ATOM     38  N   UNK A   0      -9.720   5.138 129.500  0.00  0.00    +0.000 NA
ATOM     39  C   UNK A   0      -8.661   4.529 128.936  0.00  0.00    +0.000 A 
ENDBRANCH  24  33
ENDBRANCH   8  24
TORSDOF 7
ENDMDL
MODEL 4
REMARK VINA RESULT:      -9.7      2.296      8.081
REMARK  Name = CHEMBL2037514
REMARK  10 active torsions:
REMARK  status: ('A' for Active; 'I' for Inactive)
REMARK    1  A    between atoms: C_1  and  C_2
REMARK    2  A    between atoms: C_2  and  C_3
REMARK    3  A    between atoms: C_3  and  C_4
REMARK    4  A    between atoms: C_3  and  C_6
REMARK    5  A    between atoms: C_4  and  C_5
REMARK    6  A    between atoms: C_10  and  C_11
REMARK    7  A    between atoms: N_22  and  C_23
REMARK    8  A    between atoms: C_23  and  C_24
REMARK    9  A    between atoms: C_23  and  C_32
REMARK   10  A    between atoms: C_35  and  C_36
REMARK                            x       y       z     vdW  Elec       q    Type
REMARK                         _______ _______ _______ _____ _____    ______ ____
ROOT
ATOM      1  C   UNK A   2      -6.917   1.660 131.827  0.00  0.00    +0.000 C 
ATOM      2  C   UNK A   2      -5.996   0.443 131.618  0.00  0.00    +0.000 C 
ATOM      3  O   UNK A   2      -5.210  -0.107 132.334  0.00  0.00    +0.000 OA
ATOM      4  N   UNK A   1      -6.246  -0.221 130.490  0.00  0.00    +0.000 N 
ATOM      5  C   UNK A   1      -7.528  -0.152 129.878  0.00  0.00    +0.000 C 
ATOM      6  C   UNK A   1      -7.710   1.289 129.436  0.00  0.00    +0.000 C 
ATOM      7  O   UNK A   1      -8.284   1.466 128.378  0.00  0.00    +0.000 OA
ATOM      8  N   UNK A   2      -7.212   2.265 130.352  0.00  0.00    +0.000 N 
ATOM      9  H   UNK A   1      -5.686  -1.061 130.513  0.00  0.00    +0.000 HD
ENDROOT
BRANCH   5  10
ATOM     10  C   UNK A   1      -7.540  -1.061 128.649  0.00  0.00    +0.000 C 
ATOM     11  C   UNK A   1      -7.974  -2.476 129.068  0.00  0.00    +0.000 C 
ATOM     12  C   UNK A   1      -6.650  -3.124 129.370  0.00  0.00    +0.000 A 
ATOM     13  C   UNK A   1      -6.409  -4.173 130.240  0.00  0.00    +0.000 A 
ATOM     14  C   UNK A   1      -5.083  -4.512 130.518  0.00  0.00    +0.000 A 
ATOM     15  C   UNK A   1      -4.020  -3.787 129.954  0.00  0.00    +0.000 A 
ATOM     16  C   UNK A   1      -4.267  -2.705 129.107  0.00  0.00    +0.000 A 
ATOM     17  C   UNK A   1      -5.586  -2.394 128.811  0.00  0.00    +0.000 A 
ATOM     18  C   UNK A   1      -6.102  -1.199 128.059  0.00  0.00    +0.000 C 
ENDBRANCH   5  10
BRANCH   1  19
ATOM     19  C   UNK A   2      -6.256   2.566 132.901  0.00  0.00    +0.000 C 
BRANCH  19  21
ATOM     20  C   UNK A   2      -3.369   2.711 133.417  0.00  0.00    +0.000 C 
ATOM     21  C   UNK A   2      -4.681   3.118 132.582  0.00  0.00    +0.000 C 
ENDBRANCH  19  21
BRANCH  19  22
ATOM     22  C   UNK A   2      -7.489   3.396 134.078  0.00  0.00    +0.000 C 
ATOM     23  C   UNK A   2      -9.160   3.794 133.914  0.00  0.00    +0.000 C 
ENDBRANCH  19  22
ENDBRANCH   1  19
BRANCH   8  24
ATOM     24  C   UNK A   0      -7.049   3.762 129.845  0.00  0.00    +0.000 C 
BRANCH  24  25
ATOM     25  C   UNK A   0      -6.551   4.166 128.245  0.00  0.00    +0.000 C 
ATOM     26  O   UNK A   0      -7.262   4.663 127.371  0.00  0.00    +0.000 OA
ATOM     27  N   UNK A   0      -5.255   4.162 127.847  0.00  0.00    +0.000 N 
ATOM     28  C   UNK A   0      -4.461   3.023 127.952  0.00  0.00    +0.000 C 
ATOM     29  C   UNK A   0      -3.261   3.753 128.703  0.00  0.00    +0.000 C 
ATOM     30  O   UNK A   0      -2.432   4.631 128.000  0.00  0.00    +0.000 OA
ATOM     31  C   UNK A   0      -3.284   5.711 127.690  0.00  0.00    +0.000 C 
ATOM     32  C   UNK A   0      -4.547   5.137 126.995  0.00  0.00    +0.000 C 
ENDBRANCH  24  25
BRANCH  24  33
ATOM     33  C   UNK A   0      -8.283   4.682 130.210  0.00  0.00    +0.000 A 
ATOM     34  C   UNK A   0      -8.163   5.950 130.812  0.00  0.00    +0.000 A 
ATOM     35  C   UNK A   0      -9.293   6.574 131.378  0.00  0.00    +0.000 A 
ATOM     36  C   UNK A   0     -10.543   6.005 131.193  0.00  0.00    +0.000 A 
ATOM     37  C   UNK A   0     -11.810   6.604 131.684  0.00  0.00    +0.000 C 
ATOM     38  N   UNK A   0     -10.712   4.864 130.529  0.00  0.00    +0.000 NA
ATOM     39  C   UNK A   0      -9.602   4.231 130.109  0.00  0.00    +0.000 A 
ENDBRANCH  24  33
ENDBRANCH   8  24
TORSDOF 7
ENDMDL
MODEL 5
REMARK VINA RESULT:      -9.6      2.214      7.347
REMARK  Name = CHEMBL2037514
REMARK  10 active torsions:
REMARK  status: ('A' for Active; 'I' for Inactive)
REMARK    1  A    between atoms: C_1  and  C_2
REMARK    2  A    between atoms: C_2  and  C_3
REMARK    3  A    between atoms: C_3  and  C_4
REMARK    4  A    between atoms: C_3  and  C_6
REMARK    5  A    between atoms: C_4  and  C_5
REMARK    6  A    between atoms: C_10  and  C_11
REMARK    7  A    between atoms: N_22  and  C_23
REMARK    8  A    between atoms: C_23  and  C_24
REMARK    9  A    between atoms: C_23  and  C_32
REMARK   10  A    between atoms: C_35  and  C_36
REMARK                            x       y       z     vdW  Elec       q    Type
REMARK                         _______ _______ _______ _____ _____    ______ ____
ROOT
ATOM      1  C   UNK A   2      -4.862   2.699 129.491  0.00  0.00    +0.000 C 
ATOM      2  C   UNK A   2      -5.825   1.691 128.835  0.00  0.00    +0.000 C 
ATOM      3  O   UNK A   2      -5.851   1.190 127.749  0.00  0.00    +0.000 OA
ATOM      4  N   UNK A   1      -6.687   1.149 129.694  0.00  0.00    +0.000 N 
ATOM      5  C   UNK A   1      -6.383   1.083 131.082  0.00  0.00    +0.000 C 
ATOM      6  C   UNK A   1      -6.320   2.519 131.572  0.00  0.00    +0.000 C 
ATOM      7  O   UNK A   1      -6.762   2.735 132.684  0.00  0.00    +0.000 OA
ATOM      8  N   UNK A   2      -5.705   3.434 130.665  0.00  0.00    +0.000 N 
ATOM      9  H   UNK A   1      -7.177   0.419 129.197  0.00  0.00    +0.000 HD
ENDROOT
BRANCH   5  10
ATOM     10  C   UNK A   1      -7.517   0.354 131.804  0.00  0.00    +0.000 C 
ATOM     11  C   UNK A   1      -6.929  -0.796 132.640  0.00  0.00    +0.000 C 
ATOM     12  C   UNK A   1      -6.990  -1.942 131.667  0.00  0.00    +0.000 A 
ATOM     13  C   UNK A   1      -6.179  -3.064 131.641  0.00  0.00    +0.000 A 
ATOM     14  C   UNK A   1      -6.277  -3.927 130.548  0.00  0.00    +0.000 A 
ATOM     15  C   UNK A   1      -7.153  -3.648 129.485  0.00  0.00    +0.000 A 
ATOM     16  C   UNK A   1      -7.941  -2.495 129.496  0.00  0.00    +0.000 A 
ATOM     17  C   UNK A   1      -7.860  -1.659 130.599  0.00  0.00    +0.000 A 
ATOM     18  C   UNK A   1      -8.486  -0.304 130.773  0.00  0.00    +0.000 C 
ENDBRANCH   5  10
BRANCH   1  19
ATOM     19  C   UNK A   2      -4.236   3.553 128.356  0.00  0.00    +0.000 C 
BRANCH  19  21
ATOM     20  C   UNK A   2      -2.040   3.074 126.465  0.00  0.00    +0.000 C 
ATOM     21  C   UNK A   2      -2.614   3.239 127.958  0.00  0.00    +0.000 C 
ENDBRANCH  19  21
BRANCH  19  22
ATOM     22  C   UNK A   2      -5.507   4.364 127.206  0.00  0.00    +0.000 C 
ATOM     23  C   UNK A   2      -5.618   4.460 125.487  0.00  0.00    +0.000 C 
ENDBRANCH  19  22
ENDBRANCH   1  19
BRANCH   8  24
ATOM     24  C   UNK A   0      -5.887   4.992 130.925  0.00  0.00    +0.000 C 
BRANCH  24  25
ATOM     25  C   UNK A   0      -4.728   6.171 130.436  0.00  0.00    +0.000 C 
ATOM     26  O   UNK A   0      -4.888   7.019 129.558  0.00  0.00    +0.000 OA
ATOM     27  N   UNK A   0      -3.582   6.413 131.119  0.00  0.00    +0.000 N 
ATOM     28  C   UNK A   0      -2.653   5.407 131.370  0.00  0.00    +0.000 C 
ATOM     29  C   UNK A   0      -2.551   5.692 132.933  0.00  0.00    +0.000 C 
ATOM     30  O   UNK A   0      -1.885   6.832 133.390  0.00  0.00    +0.000 OA
ATOM     31  C   UNK A   0      -2.708   7.891 132.952  0.00  0.00    +0.000 C 
ATOM     32  C   UNK A   0      -2.948   7.709 131.430  0.00  0.00    +0.000 C 
ENDBRANCH  24  25
BRANCH  24  33
ATOM     33  C   UNK A   0      -7.318   5.528 130.518  0.00  0.00    +0.000 A 
ATOM     34  C   UNK A   0      -7.983   6.571 131.193  0.00  0.00    +0.000 A 
ATOM     35  C   UNK A   0      -9.358   6.792 130.973  0.00  0.00    +0.000 A 
ATOM     36  C   UNK A   0     -10.006   6.082 129.974  0.00  0.00    +0.000 A 
ATOM     37  C   UNK A   0     -11.432   6.275 129.607  0.00  0.00    +0.000 C 
ATOM     38  N   UNK A   0      -9.382   5.168 129.235  0.00  0.00    +0.000 NA
ATOM     39  C   UNK A   0      -8.103   4.894 129.551  0.00  0.00    +0.000 A 
ENDBRANCH  24  33
ENDBRANCH   8  24
TORSDOF 7
ENDMDL
MODEL 6
REMARK VINA RESULT:      -9.6      2.455      4.870
REMARK  Name = CHEMBL2037514
REMARK  10 active torsions:
REMARK  status: ('A' for Active; 'I' for Inactive)
REMARK    1  A    between atoms: C_1  and  C_2
REMARK    2  A    between atoms: C_2  and  C_3
REMARK    3  A    between atoms: C_3  and  C_4
REMARK    4  A    between atoms: C_3  and  C_6
REMARK    5  A    between atoms: C_4  and  C_5
REMARK    6  A    between atoms: C_10  and  C_11
REMARK    7  A    between atoms: N_22  and  C_23
REMARK    8  A    between atoms: C_23  and  C_24
REMARK    9  A    between atoms: C_23  and  C_32
REMARK   10  A    between atoms: C_35  and  C_36
REMARK                            x       y       z     vdW  Elec       q    Type
REMARK                         _______ _______ _______ _____ _____    ______ ____
ROOT
ATOM      1  C   UNK A   2      -7.056   2.691 127.083  0.00  0.00    +0.000 C 
ATOM      2  C   UNK A   2      -6.632   4.010 127.758  0.00  0.00    +0.000 C 
ATOM      3  O   UNK A   2      -5.999   4.947 127.370  0.00  0.00    +0.000 OA
ATOM      4  N   UNK A   1      -7.225   4.214 128.934  0.00  0.00    +0.000 N 
ATOM      5  C   UNK A   1      -8.471   3.600 129.234  0.00  0.00    +0.000 C 
ATOM      6  C   UNK A   1      -8.208   2.105 129.277  0.00  0.00    +0.000 C 
ATOM      7  O   UNK A   1      -8.810   1.470 130.121  0.00  0.00    +0.000 OA
ATOM      8  N   UNK A   2      -7.304   1.627 128.280  0.00  0.00    +0.000 N 
ATOM      9  H   UNK A   1      -6.982   5.150 129.225  0.00  0.00    +0.000 HD
ENDROOT
BRANCH   5  10
ATOM     10  C   UNK A   1      -8.937   4.069 130.613  0.00  0.00    +0.000 C 
ATOM     11  C   UNK A   1     -10.474   4.051 130.662  0.00  0.00    +0.000 C 
ATOM     12  C   UNK A   1     -10.809   5.450 130.219  0.00  0.00    +0.000 A 
ATOM     13  C   UNK A   1     -11.968   5.877 129.595  0.00  0.00    +0.000 A 
ATOM     14  C   UNK A   1     -12.013   7.182 129.100  0.00  0.00    +0.000 A 
ATOM     15  C   UNK A   1     -10.897   8.030 129.204  0.00  0.00    +0.000 A 
ATOM     16  C   UNK A   1      -9.716   7.584 129.799  0.00  0.00    +0.000 A 
ATOM     17  C   UNK A   1      -9.690   6.297 130.315  0.00  0.00    +0.000 A 
ATOM     18  C   UNK A   1      -8.506   5.548 130.859  0.00  0.00    +0.000 C 
ENDBRANCH   5  10
BRANCH   1  19
ATOM     19  C   UNK A   2      -6.005   2.369 125.986  0.00  0.00    +0.000 C 
BRANCH  19  21
ATOM     20  C   UNK A   2      -3.187   2.942 126.585  0.00  0.00    +0.000 C 
ATOM     21  C   UNK A   2      -4.446   1.944 126.512  0.00  0.00    +0.000 C 
ENDBRANCH  19  21
BRANCH  19  22
ATOM     22  C   UNK A   2      -6.754   1.914 124.305  0.00  0.00    +0.000 C 
ATOM     23  C   UNK A   2      -7.074   0.394 123.554  0.00  0.00    +0.000 C 
ENDBRANCH  19  22
ENDBRANCH   1  19
BRANCH   8  24
ATOM     24  C   UNK A   0      -6.706   0.163 128.443  0.00  0.00    +0.000 C 
BRANCH  24  25
ATOM     25  C   UNK A   0      -6.840  -0.753 129.898  0.00  0.00    +0.000 C 
ATOM     26  O   UNK A   0      -7.875  -1.246 130.348  0.00  0.00    +0.000 OA
ATOM     27  N   UNK A   0      -5.767  -1.199 130.595  0.00  0.00    +0.000 N 
ATOM     28  C   UNK A   0      -4.792  -0.327 131.073  0.00  0.00    +0.000 C 
ATOM     29  C   UNK A   0      -3.563  -1.137 130.464  0.00  0.00    +0.000 C 
ATOM     30  O   UNK A   0      -3.181  -2.354 131.034  0.00  0.00    +0.000 OA
ATOM     31  C   UNK A   0      -4.267  -3.208 130.746  0.00  0.00    +0.000 C 
ATOM     32  C   UNK A   0      -5.563  -2.512 131.239  0.00  0.00    +0.000 C 
ENDBRANCH  24  25
BRANCH  24  33
ATOM     33  C   UNK A   0      -7.068  -0.796 127.237  0.00  0.00    +0.000 A 
ATOM     34  C   UNK A   0      -8.383  -1.018 126.783  0.00  0.00    +0.000 A 
ATOM     35  C   UNK A   0      -8.660  -2.097 125.920  0.00  0.00    +0.000 A 
ATOM     36  C   UNK A   0      -7.607  -2.832 125.397  0.00  0.00    +0.000 A 
ATOM     37  C   UNK A   0      -7.770  -3.946 124.428  0.00  0.00    +0.000 C 
ATOM     38  N   UNK A   0      -6.339  -2.578 125.712  0.00  0.00    +0.000 NA
ATOM     39  C   UNK A   0      -6.117  -1.623 126.633  0.00  0.00    +0.000 A 
ENDBRANCH  24  33
ENDBRANCH   8  24
TORSDOF 7
ENDMDL
MODEL 7
REMARK VINA RESULT:      -9.4      2.468      5.520
REMARK  Name = CHEMBL2037514
REMARK  10 active torsions:
REMARK  status: ('A' for Active; 'I' for Inactive)
REMARK    1  A    between atoms: C_1  and  C_2
REMARK    2  A    between atoms: C_2  and  C_3
REMARK    3  A    between atoms: C_3  and  C_4
REMARK    4  A    between atoms: C_3  and  C_6
REMARK    5  A    between atoms: C_4  and  C_5
REMARK    6  A    between atoms: C_10  and  C_11
REMARK    7  A    between atoms: N_22  and  C_23
REMARK    8  A    between atoms: C_23  and  C_24
REMARK    9  A    between atoms: C_23  and  C_32
REMARK   10  A    between atoms: C_35  and  C_36
REMARK                            x       y       z     vdW  Elec       q    Type
REMARK                         _______ _______ _______ _____ _____    ______ ____
ROOT
ATOM      1  C   UNK A   2      -7.225   6.151 131.348  0.00  0.00    +0.000 C 
ATOM      2  C   UNK A   2      -8.466   6.075 132.258  0.00  0.00    +0.000 C 
ATOM      3  O   UNK A   2      -8.651   6.387 133.398  0.00  0.00    +0.000 OA
ATOM      4  N   UNK A   1      -9.583   5.762 131.601  0.00  0.00    +0.000 N 
ATOM      5  C   UNK A   1      -9.704   6.026 130.209  0.00  0.00    +0.000 C 
ATOM      6  C   UNK A   1      -8.682   5.141 129.519  0.00  0.00    +0.000 C 
ATOM      7  O   UNK A   1      -9.012   4.656 128.454  0.00  0.00    +0.000 OA
ATOM      8  N   UNK A   2      -7.433   5.023 130.201  0.00  0.00    +0.000 N 
ATOM      9  H   UNK A   1     -10.346   5.866 132.255  0.00  0.00    +0.000 HD
ENDROOT
BRANCH   5  10
ATOM     10  C   UNK A   1     -11.107   5.629 129.748  0.00  0.00    +0.000 C 
ATOM     11  C   UNK A   1     -11.507   6.493 128.540  0.00  0.00    +0.000 C 
ATOM     12  C   UNK A   1     -12.198   7.651 129.209  0.00  0.00    +0.000 A 
ATOM     13  C   UNK A   1     -12.322   8.943 128.730  0.00  0.00    +0.000 A 
ATOM     14  C   UNK A   1     -12.842   9.919 129.583  0.00  0.00    +0.000 A 
ATOM     15  C   UNK A   1     -13.202   9.603 130.904  0.00  0.00    +0.000 A 
ATOM     16  C   UNK A   1     -13.040   8.307 131.396  0.00  0.00    +0.000 A 
ATOM     17  C   UNK A   1     -12.551   7.337 130.534  0.00  0.00    +0.000 A 
ATOM     18  C   UNK A   1     -12.152   5.927 130.868  0.00  0.00    +0.000 C 
ENDBRANCH   5  10
BRANCH   1  19
ATOM     19  C   UNK A   2      -5.972   6.083 132.262  0.00  0.00    +0.000 C 
BRANCH  19  21
ATOM     20  C   UNK A   2      -5.887   4.826 134.915  0.00  0.00    +0.000 C 
ATOM     21  C   UNK A   2      -5.852   4.750 133.309  0.00  0.00    +0.000 C 
ENDBRANCH  19  21
BRANCH  19  22
ATOM     22  C   UNK A   2      -4.514   7.133 131.657  0.00  0.00    +0.000 C 
ATOM     23  C   UNK A   2      -4.193   7.911 130.151  0.00  0.00    +0.000 C 
ENDBRANCH  19  22
ENDBRANCH   1  19
BRANCH   8  24
ATOM     24  C   UNK A   0      -6.431   3.874 129.751  0.00  0.00    +0.000 C 
BRANCH  24  25
ATOM     25  C   UNK A   0      -4.726   4.103 129.631  0.00  0.00    +0.000 C 
ATOM     26  O   UNK A   0      -3.913   3.957 130.544  0.00  0.00    +0.000 OA
ATOM     27  N   UNK A   0      -4.081   4.273 128.452  0.00  0.00    +0.000 N 
ATOM     28  C   UNK A   0      -4.417   5.302 127.576  0.00  0.00    +0.000 C 
ATOM     29  C   UNK A   0      -4.562   4.362 126.298  0.00  0.00    +0.000 C 
ATOM     30  O   UNK A   0      -3.421   3.821 125.699  0.00  0.00    +0.000 OA
ATOM     31  C   UNK A   0      -2.934   2.922 126.671  0.00  0.00    +0.000 C 
ATOM     32  C   UNK A   0      -2.796   3.696 128.009  0.00  0.00    +0.000 C 
ENDBRANCH  24  25
BRANCH  24  33
ATOM     33  C   UNK A   0      -6.680   2.502 130.499  0.00  0.00    +0.000 A 
ATOM     34  C   UNK A   0      -6.276   1.251 129.992  0.00  0.00    +0.000 A 
ATOM     35  C   UNK A   0      -6.788   0.063 130.552  0.00  0.00    +0.000 A 
ATOM     36  C   UNK A   0      -7.560   0.135 131.701  0.00  0.00    +0.000 A 
ATOM     37  C   UNK A   0      -8.098  -1.050 132.417  0.00  0.00    +0.000 C 
ATOM     38  N   UNK A   0      -7.868   1.294 132.277  0.00  0.00    +0.000 NA
ATOM     39  C   UNK A   0      -7.468   2.415 131.649  0.00  0.00    +0.000 A 
ENDBRANCH  24  33
ENDBRANCH   8  24
TORSDOF 7
ENDMDL
MODEL 8
REMARK VINA RESULT:      -9.2      2.094      3.945
REMARK  Name = CHEMBL2037514
REMARK  10 active torsions:
REMARK  status: ('A' for Active; 'I' for Inactive)
REMARK    1  A    between atoms: C_1  and  C_2
REMARK    2  A    between atoms: C_2  and  C_3
REMARK    3  A    between atoms: C_3  and  C_4
REMARK    4  A    between atoms: C_3  and  C_6
REMARK    5  A    between atoms: C_4  and  C_5
REMARK    6  A    between atoms: C_10  and  C_11
REMARK    7  A    between atoms: N_22  and  C_23
REMARK    8  A    between atoms: C_23  and  C_24
REMARK    9  A    between atoms: C_23  and  C_32
REMARK   10  A    between atoms: C_35  and  C_36
REMARK                            x       y       z     vdW  Elec       q    Type
REMARK                         _______ _______ _______ _____ _____    ______ ____
ROOT
ATOM      1  C   UNK A   2      -7.679   5.890 131.858  0.00  0.00    +0.000 C 
ATOM      2  C   UNK A   2      -8.823   6.060 132.877  0.00  0.00    +0.000 C 
ATOM      3  O   UNK A   2      -8.859   6.521 133.980  0.00  0.00    +0.000 OA
ATOM      4  N   UNK A   1     -10.026   5.799 132.366  0.00  0.00    +0.000 N 
ATOM      5  C   UNK A   1     -10.260   5.911 130.968  0.00  0.00    +0.000 C 
ATOM      6  C   UNK A   1      -9.406   4.843 130.307  0.00  0.00    +0.000 C 
ATOM      7  O   UNK A   1      -9.889   4.277 129.346  0.00  0.00    +0.000 OA
ATOM      8  N   UNK A   2      -8.113   4.667 130.887  0.00  0.00    +0.000 N 
ATOM      9  H   UNK A   1     -10.704   6.062 133.066  0.00  0.00    +0.000 HD
ENDROOT
BRANCH   5  10
ATOM     10  C   UNK A   1     -11.735   5.621 130.687  0.00  0.00    +0.000 C 
ATOM     11  C   UNK A   1     -12.054   5.984 129.226  0.00  0.00    +0.000 C 
ATOM     12  C   UNK A   1     -12.496   7.417 129.359  0.00  0.00    +0.000 A 
ATOM     13  C   UNK A   1     -12.426   8.408 128.395  0.00  0.00    +0.000 A 
ATOM     14  C   UNK A   1     -12.722   9.720 128.771  0.00  0.00    +0.000 A 
ATOM     15  C   UNK A   1     -13.050  10.031 130.101  0.00  0.00    +0.000 A 
ATOM     16  C   UNK A   1     -13.083   9.035 131.079  0.00  0.00    +0.000 A 
ATOM     17  C   UNK A   1     -12.818   7.730 130.691  0.00  0.00    +0.000 A 
ATOM     18  C   UNK A   1     -12.646   6.526 131.574  0.00  0.00    +0.000 C 
ENDBRANCH   5  10
BRANCH   1  19
ATOM     19  C   UNK A   2      -6.353   5.790 132.659  0.00  0.00    +0.000 C 
BRANCH  19  21
ATOM     20  C   UNK A   2      -5.297   3.260 133.714  0.00  0.00    +0.000 C 
ATOM     21  C   UNK A   2      -6.244   4.555 133.821  0.00  0.00    +0.000 C 
ENDBRANCH  19  21
BRANCH  19  22
ATOM     22  C   UNK A   2      -4.877   6.637 131.824  0.00  0.00    +0.000 C 
ATOM     23  C   UNK A   2      -3.182   6.594 132.144  0.00  0.00    +0.000 C 
ENDBRANCH  19  22
ENDBRANCH   1  19
BRANCH   8  24
ATOM     24  C   UNK A   0      -7.282   3.369 130.498  0.00  0.00    +0.000 C 
BRANCH  24  25
ATOM     25  C   UNK A   0      -7.989   1.987 129.749  0.00  0.00    +0.000 C 
ATOM     26  O   UNK A   0      -8.220   1.856 128.546  0.00  0.00    +0.000 OA
ATOM     27  N   UNK A   0      -8.180   0.809 130.392  0.00  0.00    +0.000 N 
ATOM     28  C   UNK A   0      -8.931   0.729 131.562  0.00  0.00    +0.000 C 
ATOM     29  C   UNK A   0      -7.824  -0.063 132.390  0.00  0.00    +0.000 C 
ATOM     30  O   UNK A   0      -7.570  -1.407 132.105  0.00  0.00    +0.000 OA
ATOM     31  C   UNK A   0      -7.000  -1.368 130.815  0.00  0.00    +0.000 C 
ATOM     32  C   UNK A   0      -7.957  -0.563 129.896  0.00  0.00    +0.000 C 
ENDBRANCH  24  25
BRANCH  24  33
ATOM     33  C   UNK A   0      -5.938   3.697 129.729  0.00  0.00    +0.000 A 
ATOM     34  C   UNK A   0      -4.674   3.218 130.126  0.00  0.00    +0.000 A 
ATOM     35  C   UNK A   0      -3.502   3.784 129.585  0.00  0.00    +0.000 A 
ATOM     36  C   UNK A   0      -3.609   4.697 128.547  0.00  0.00    +0.000 A 
ATOM     37  C   UNK A   0      -2.446   5.310 127.855  0.00  0.00    +0.000 C 
ATOM     38  N   UNK A   0      -4.786   5.089 128.065  0.00  0.00    +0.000 NA
ATOM     39  C   UNK A   0      -5.886   4.623 128.684  0.00  0.00    +0.000 A 
ENDBRANCH  24  33
ENDBRANCH   8  24
TORSDOF 7
ENDMDL
MODEL 9
REMARK VINA RESULT:      -9.1      2.316      6.865
REMARK  Name = CHEMBL2037514
REMARK  10 active torsions:
REMARK  status: ('A' for Active; 'I' for Inactive)
REMARK    1  A    between atoms: C_1  and  C_2
REMARK    2  A    between atoms: C_2  and  C_3
REMARK    3  A    between atoms: C_3  and  C_4
REMARK    4  A    between atoms: C_3  and  C_6
REMARK    5  A    between atoms: C_4  and  C_5
REMARK    6  A    between atoms: C_10  and  C_11
REMARK    7  A    between atoms: N_22  and  C_23
REMARK    8  A    between atoms: C_23  and  C_24
REMARK    9  A    between atoms: C_23  and  C_32
REMARK   10  A    between atoms: C_35  and  C_36
REMARK                            x       y       z     vdW  Elec       q    Type
REMARK                         _______ _______ _______ _____ _____    ______ ____
ROOT
ATOM      1  C   UNK A   2      -5.321   2.662 130.021  0.00  0.00    +0.000 C 
ATOM      2  C   UNK A   2      -6.076   1.493 129.361  0.00  0.00    +0.000 C 
ATOM      3  O   UNK A   2      -5.997   0.991 128.279  0.00  0.00    +0.000 OA
ATOM      4  N   UNK A   1      -6.839   0.810 130.214  0.00  0.00    +0.000 N 
ATOM      5  C   UNK A   1      -6.548   0.808 131.606  0.00  0.00    +0.000 C 
ATOM      6  C   UNK A   1      -6.751   2.234 132.085  0.00  0.00    +0.000 C 
ATOM      7  O   UNK A   1      -7.240   2.373 133.189  0.00  0.00    +0.000 OA
ATOM      8  N   UNK A   2      -6.298   3.241 131.178  0.00  0.00    +0.000 N 
ATOM      9  H   UNK A   1      -7.182   0.001 129.716  0.00  0.00    +0.000 HD
ENDROOT
BRANCH   5  10
ATOM     10  C   UNK A   1      -7.541  -0.110 132.319  0.00  0.00    +0.000 C 
ATOM     11  C   UNK A   1      -6.767  -1.146 133.152  0.00  0.00    +0.000 C 
ATOM     12  C   UNK A   1      -6.626  -2.280 132.173  0.00  0.00    +0.000 A 
ATOM     13  C   UNK A   1      -5.634  -3.245 132.146  0.00  0.00    +0.000 A 
ATOM     14  C   UNK A   1      -5.578  -4.106 131.047  0.00  0.00    +0.000 A 
ATOM     15  C   UNK A   1      -6.485  -3.976 129.982  0.00  0.00    +0.000 A 
ATOM     16  C   UNK A   1      -7.459  -2.976 129.995  0.00  0.00    +0.000 A 
ATOM     17  C   UNK A   1      -7.528  -2.145 131.103  0.00  0.00    +0.000 A 
ATOM     18  C   UNK A   1      -8.379  -0.919 131.280  0.00  0.00    +0.000 C 
ENDBRANCH   5  10
BRANCH   1  19
ATOM     19  C   UNK A   2      -4.843   3.610 128.887  0.00  0.00    +0.000 C 
BRANCH  19  21
ATOM     20  C   UNK A   2      -5.908   4.378 126.260  0.00  0.00    +0.000 C 
ATOM     21  C   UNK A   2      -6.037   4.243 127.857  0.00  0.00    +0.000 C 
ENDBRANCH  19  21
BRANCH  19  22
ATOM     22  C   UNK A   2      -3.138   4.380 129.188  0.00  0.00    +0.000 C 
ATOM     23  C   UNK A   2      -2.367   5.779 128.534  0.00  0.00    +0.000 C 
ENDBRANCH  19  22
ENDBRANCH   1  19
BRANCH   8  24
ATOM     24  C   UNK A   0      -6.762   4.741 131.424  0.00  0.00    +0.000 C 
BRANCH  24  25
ATOM     25  C   UNK A   0      -8.079   5.164 132.454  0.00  0.00    +0.000 C 
ATOM     26  O   UNK A   0      -7.987   5.696 133.561  0.00  0.00    +0.000 OA
ATOM     27  N   UNK A   0      -9.373   5.135 132.054  0.00  0.00    +0.000 N 
ATOM     28  C   UNK A   0      -9.959   3.975 131.555  0.00  0.00    +0.000 C 
ATOM     29  C   UNK A   0     -10.535   4.660 130.237  0.00  0.00    +0.000 C 
ATOM     30  O   UNK A   0     -11.624   5.530 130.325  0.00  0.00    +0.000 OA
ATOM     31  C   UNK A   0     -11.105   6.637 131.028  0.00  0.00    +0.000 C 
ATOM     32  C   UNK A   0     -10.448   6.109 132.330  0.00  0.00    +0.000 C 
ENDBRANCH  24  25
BRANCH  24  33
ATOM     33  C   UNK A   0      -5.562   5.718 131.754  0.00  0.00    +0.000 A 
ATOM     34  C   UNK A   0      -5.316   6.917 131.058  0.00  0.00    +0.000 A 
ATOM     35  C   UNK A   0      -4.078   7.576 131.199  0.00  0.00    +0.000 A 
ATOM     36  C   UNK A   0      -3.174   7.121 132.146  0.00  0.00    +0.000 A 
ATOM     37  C   UNK A   0      -1.869   7.771 132.431  0.00  0.00    +0.000 C 
ATOM     38  N   UNK A   0      -3.419   6.057 132.906  0.00  0.00    +0.000 NA
ATOM     39  C   UNK A   0      -4.555   5.379 132.662  0.00  0.00    +0.000 A 
ENDBRANCH  24  33
ENDBRANCH   8  24
TORSDOF 7
ENDMDL
