MODEL 1
REMARK VINA RESULT:      -9.7      0.000      0.000
REMARK  Name = CHEMBL2037508
REMARK  10 active torsions:
REMARK  status: ('A' for Active; 'I' for Inactive)
REMARK    1  A    between atoms: CD1_1  and  CG1_2
REMARK    2  A    between atoms: CG1_2  and  CB_3
REMARK    3  A    between atoms: CB_3  and  CG2_4
REMARK    4  A    between atoms: CB_3  and  CA_5
REMARK    5  A    between atoms: C_9  and  C_10
REMARK    6  A    between atoms: N_21  and  C_22
REMARK    7  A    between atoms: C_22  and  C_23
REMARK    8  A    between atoms: C_22  and  C_31
REMARK    9  A    between atoms: C_34  and  C_35
REMARK   10  A    between atoms: C_37  and  C_38
REMARK                            x       y       z     vdW  Elec       q    Type
REMARK                         _______ _______ _______ _____ _____    ______ ____
ROOT
ATOM      1  CA  ILE A   2      -7.661   1.982 130.097  0.00  0.00    +0.000 C 
ATOM      2  C   ILE A   2      -7.011   0.630 129.621  0.00  0.00    +0.000 C 
ATOM      3  O   ILE A   2      -6.530  -0.250 130.308  0.00  0.00    +0.000 OA
ATOM      4  N   UNK A   1      -7.005   0.574 128.263  0.00  0.00    +0.000 N 
ATOM      5  C   UNK A   1      -8.072   1.318 127.645  0.00  0.00    +0.000 C 
ATOM      6  C   UNK A   1      -7.899   2.787 127.910  0.00  0.00    +0.000 C 
ATOM      7  O   UNK A   1      -8.203   3.615 127.019  0.00  0.00    +0.000 OA
ATOM      8  N   ILE A   2      -7.511   3.076 129.174  0.00  0.00    +0.000 N 
ATOM      9  H   UNK A   1      -6.589  -0.264 127.872  0.00  0.00    +0.000 HD
ENDROOT
BRANCH   5  10
ATOM     10  C   UNK A   1      -8.177   1.166 126.157  0.00  0.00    +0.000 C 
ATOM     11  C   UNK A   1      -9.411   0.326 125.883  0.00  0.00    +0.000 C 
ATOM     12  C   UNK A   1      -8.791  -1.013 125.633  0.00  0.00    +0.000 A 
ATOM     13  C   UNK A   1      -9.422  -2.239 125.657  0.00  0.00    +0.000 A 
ATOM     14  C   UNK A   1      -8.666  -3.375 125.370  0.00  0.00    +0.000 A 
ATOM     15  C   UNK A   1      -7.298  -3.275 125.070  0.00  0.00    +0.000 A 
ATOM     16  C   UNK A   1      -6.658  -2.038 125.087  0.00  0.00    +0.000 A 
ATOM     17  C   UNK A   1      -7.417  -0.922 125.389  0.00  0.00    +0.000 A 
ATOM     18  C   UNK A   1      -6.958   0.491 125.474  0.00  0.00    +0.000 C 
ENDBRANCH   5  10
BRANCH   1  19
ATOM     19  CB  ILE A   2      -6.793   2.416 131.159  0.00  0.00    +0.000 C 
ATOM     20  CG2 ILE A   2      -7.955   1.986 132.649  0.00  0.00    +0.000 C 
BRANCH  19  22
ATOM     21  CD1 ILE A   2      -3.940   2.990 131.372  0.00  0.00    +0.000 C 
ATOM     22  CG1 ILE A   2      -5.042   2.064 130.970  0.00  0.00    +0.000 C 
ENDBRANCH  19  22
ENDBRANCH   1  19
BRANCH   8  23
ATOM     23  C   UNK A   0      -7.028   4.403 129.685  0.00  0.00    +0.000 C 
BRANCH  23  24
ATOM     24  C   UNK A   0      -5.501   5.244 128.974  0.00  0.00    +0.000 C 
ATOM     25  O   UNK A   0      -5.111   6.291 129.516  0.00  0.00    +0.000 OA
ATOM     26  N   UNK A   0      -4.532   4.645 127.779  0.00  0.00    +0.000 N 
ATOM     27  C   UNK A   0      -4.630   3.770 126.237  0.00  0.00    +0.000 C 
ATOM     28  C   UNK A   0      -3.944   2.432 126.294  0.00  0.00    +0.000 C 
ATOM     29  O   UNK A   0      -2.593   2.805 126.445  0.00  0.00    +0.000 OA
ATOM     30  C   UNK A   0      -2.346   3.621 127.638  0.00  0.00    +0.000 C 
ATOM     31  C   UNK A   0      -3.152   4.957 127.882  0.00  0.00    +0.000 C 
ENDBRANCH  23  24
BRANCH  23  32
ATOM     32  C   UNK A   0      -8.197   5.275 130.141  0.00  0.00    +0.000 A 
ATOM     33  C   UNK A   0      -9.345   5.314 129.380  0.00  0.00    +0.000 A 
ATOM     34  N   UNK A   0     -10.509   5.789 129.830  0.00  0.00    +0.000 NA
ATOM     35  C   UNK A   0     -10.554   6.204 131.114  0.00  0.00    +0.000 A 
ATOM     36  C   UNK A   0     -11.908   6.604 131.581  0.00  0.00    +0.000 C 
ATOM     37  C   UNK A   0      -9.450   6.271 131.958  0.00  0.00    +0.000 A 
ATOM     38  C   UNK A   0      -8.213   5.860 131.464  0.00  0.00    +0.000 A 
ATOM     39  C   UNK A   0      -7.018   5.852 132.416  0.00  0.00    +0.000 C 
ENDBRANCH  23  32
ENDBRANCH   8  23
TORSDOF 6
ENDMDL
MODEL 2
REMARK VINA RESULT:      -9.6      2.644      6.782
REMARK  Name = CHEMBL2037508
REMARK  10 active torsions:
REMARK  status: ('A' for Active; 'I' for Inactive)
REMARK    1  A    between atoms: CD1_1  and  CG1_2
REMARK    2  A    between atoms: CG1_2  and  CB_3
REMARK    3  A    between atoms: CB_3  and  CG2_4
REMARK    4  A    between atoms: CB_3  and  CA_5
REMARK    5  A    between atoms: C_9  and  C_10
REMARK    6  A    between atoms: N_21  and  C_22
REMARK    7  A    between atoms: C_22  and  C_23
REMARK    8  A    between atoms: C_22  and  C_31
REMARK    9  A    between atoms: C_34  and  C_35
REMARK   10  A    between atoms: C_37  and  C_38
REMARK                            x       y       z     vdW  Elec       q    Type
REMARK                         _______ _______ _______ _____ _____    ______ ____
ROOT
ATOM      1  CA  ILE A   2      -7.593   2.566 129.471  0.00  0.00    +0.000 C 
ATOM      2  C   ILE A   2      -7.989   3.689 128.442  0.00  0.00    +0.000 C 
ATOM      3  O   ILE A   2      -8.002   3.618 127.228  0.00  0.00    +0.000 OA
ATOM      4  N   UNK A   1      -8.289   4.838 129.104  0.00  0.00    +0.000 N 
ATOM      5  C   UNK A   1      -8.799   4.626 130.435  0.00  0.00    +0.000 C 
ATOM      6  C   UNK A   1      -7.736   4.019 131.305  0.00  0.00    +0.000 C 
ATOM      7  O   UNK A   1      -7.656   4.356 132.510  0.00  0.00    +0.000 OA
ATOM      8  N   ILE A   2      -7.008   3.054 130.693  0.00  0.00    +0.000 N 
ATOM      9  H   UNK A   1      -8.543   5.618 128.510  0.00  0.00    +0.000 HD
ENDROOT
BRANCH   5  10
ATOM     10  C   UNK A   1      -9.269   5.862 131.141  0.00  0.00    +0.000 C 
ATOM     11  C   UNK A   1     -10.774   5.744 131.288  0.00  0.00    +0.000 C 
ATOM     12  C   UNK A   1     -11.238   6.621 130.167  0.00  0.00    +0.000 A 
ATOM     13  C   UNK A   1     -12.491   6.647 129.595  0.00  0.00    +0.000 A 
ATOM     14  C   UNK A   1     -12.730   7.563 128.571  0.00  0.00    +0.000 A 
ATOM     15  C   UNK A   1     -11.720   8.432 128.130  0.00  0.00    +0.000 A 
ATOM     16  C   UNK A   1     -10.443   8.373 128.684  0.00  0.00    +0.000 A 
ATOM     17  C   UNK A   1     -10.217   7.449 129.689  0.00  0.00    +0.000 A 
ATOM     18  C   UNK A   1      -8.946   7.198 130.420  0.00  0.00    +0.000 C 
ENDBRANCH   5  10
BRANCH   1  19
ATOM     19  CB  ILE A   2      -6.447   1.943 128.865  0.00  0.00    +0.000 C 
ATOM     20  CG2 ILE A   2      -7.313   0.318 128.261  0.00  0.00    +0.000 C 
BRANCH  19  22
ATOM     21  CD1 ILE A   2      -3.841   3.019 128.116  0.00  0.00    +0.000 C 
ATOM     22  CG1 ILE A   2      -5.326   3.014 127.959  0.00  0.00    +0.000 C 
ENDBRANCH  19  22
ENDBRANCH   1  19
BRANCH   8  23
ATOM     23  C   UNK A   0      -5.740   2.429 131.198  0.00  0.00    +0.000 C 
BRANCH  23  24
ATOM     24  C   UNK A   0      -4.281   3.471 131.773  0.00  0.00    +0.000 C 
ATOM     25  O   UNK A   0      -3.282   2.877 132.210  0.00  0.00    +0.000 OA
ATOM     26  N   UNK A   0      -4.138   5.108 131.618  0.00  0.00    +0.000 N 
ATOM     27  C   UNK A   0      -5.104   6.592 131.749  0.00  0.00    +0.000 C 
ATOM     28  C   UNK A   0      -5.197   7.330 130.441  0.00  0.00    +0.000 C 
ATOM     29  O   UNK A   0      -3.864   7.749 130.249  0.00  0.00    +0.000 OA
ATOM     30  C   UNK A   0      -2.908   6.639 130.208  0.00  0.00    +0.000 C 
ATOM     31  C   UNK A   0      -2.826   5.600 131.394  0.00  0.00    +0.000 C 
ENDBRANCH  23  24
BRANCH  23  32
ATOM     32  C   UNK A   0      -6.024   1.110 131.915  0.00  0.00    +0.000 A 
ATOM     33  C   UNK A   0      -7.107   1.024 132.762  0.00  0.00    +0.000 A 
ATOM     34  N   UNK A   0      -7.613  -0.135 133.192  0.00  0.00    +0.000 NA
ATOM     35  C   UNK A   0      -7.050  -1.269 132.723  0.00  0.00    +0.000 A 
ATOM     36  C   UNK A   0      -7.741  -2.516 133.147  0.00  0.00    +0.000 C 
ATOM     37  C   UNK A   0      -5.918  -1.310 131.915  0.00  0.00    +0.000 A 
ATOM     38  C   UNK A   0      -5.331  -0.103 131.537  0.00  0.00    +0.000 A 
ATOM     39  C   UNK A   0      -4.140  -0.144 130.581  0.00  0.00    +0.000 C 
ENDBRANCH  23  32
ENDBRANCH   8  23
TORSDOF 6
ENDMDL
MODEL 3
REMARK VINA RESULT:      -9.6      2.392      3.105
REMARK  Name = CHEMBL2037508
REMARK  10 active torsions:
REMARK  status: ('A' for Active; 'I' for Inactive)
REMARK    1  A    between atoms: CD1_1  and  CG1_2
REMARK    2  A    between atoms: CG1_2  and  CB_3
REMARK    3  A    between atoms: CB_3  and  CG2_4
REMARK    4  A    between atoms: CB_3  and  CA_5
REMARK    5  A    between atoms: C_9  and  C_10
REMARK    6  A    between atoms: N_21  and  C_22
REMARK    7  A    between atoms: C_22  and  C_23
REMARK    8  A    between atoms: C_22  and  C_31
REMARK    9  A    between atoms: C_34  and  C_35
REMARK   10  A    between atoms: C_37  and  C_38
REMARK                            x       y       z     vdW  Elec       q    Type
REMARK                         _______ _______ _______ _____ _____    ______ ____
ROOT
ATOM      1  CA  ILE A   2      -7.499   2.177 131.581  0.00  0.00    +0.000 C 
ATOM      2  C   ILE A   2      -6.656   0.910 131.982  0.00  0.00    +0.000 C 
ATOM      3  O   ILE A   2      -6.138   0.666 133.054  0.00  0.00    +0.000 OA
ATOM      4  N   UNK A   1      -6.521   0.086 130.909  0.00  0.00    +0.000 N 
ATOM      5  C   UNK A   1      -7.608   0.175 129.968  0.00  0.00    +0.000 C 
ATOM      6  C   UNK A   1      -7.632   1.535 129.331  0.00  0.00    +0.000 C 
ATOM      7  O   UNK A   1      -7.949   1.647 128.123  0.00  0.00    +0.000 OA
ATOM      8  N   ILE A   2      -7.395   2.551 130.195  0.00  0.00    +0.000 N 
ATOM      9  H   UNK A   1      -5.976  -0.751 131.079  0.00  0.00    +0.000 HD
ENDROOT
BRANCH   5  10
ATOM     10  C   UNK A   1      -7.561  -0.817 128.845  0.00  0.00    +0.000 C 
ATOM     11  C   UNK A   1      -8.025  -2.148 129.408  0.00  0.00    +0.000 C 
ATOM     12  C   UNK A   1      -6.714  -2.839 129.618  0.00  0.00    +0.000 A 
ATOM     13  C   UNK A   1      -6.473  -3.941 130.409  0.00  0.00    +0.000 A 
ATOM     14  C   UNK A   1      -5.176  -4.451 130.450  0.00  0.00    +0.000 A 
ATOM     15  C   UNK A   1      -4.142  -3.856 129.711  0.00  0.00    +0.000 A 
ATOM     16  C   UNK A   1      -4.383  -2.717 128.946  0.00  0.00    +0.000 A 
ATOM     17  C   UNK A   1      -5.671  -2.213 128.927  0.00  0.00    +0.000 A 
ATOM     18  C   UNK A   1      -6.165  -1.015 128.196  0.00  0.00    +0.000 C 
ENDBRANCH   5  10
BRANCH   1  19
ATOM     19  CB  ILE A   2      -6.786   3.264 132.197  0.00  0.00    +0.000 C 
ATOM     20  CG2 ILE A   2      -8.032   3.619 133.638  0.00  0.00    +0.000 C 
BRANCH  19  22
ATOM     21  CD1 ILE A   2      -4.135   3.794 133.293  0.00  0.00    +0.000 C 
ATOM     22  CG1 ILE A   2      -4.998   3.119 132.277  0.00  0.00    +0.000 C 
ENDBRANCH  19  22
ENDBRANCH   1  19
BRANCH   8  23
ATOM     23  C   UNK A   0      -7.119   3.984 129.842  0.00  0.00    +0.000 C 
BRANCH  23  24
ATOM     24  C   UNK A   0      -5.910   4.454 128.477  0.00  0.00    +0.000 C 
ATOM     25  O   UNK A   0      -6.344   4.515 127.315  0.00  0.00    +0.000 OA
ATOM     26  N   UNK A   0      -4.347   4.942 128.691  0.00  0.00    +0.000 N 
ATOM     27  C   UNK A   0      -2.917   4.582 129.678  0.00  0.00    +0.000 C 
ATOM     28  C   UNK A   0      -2.503   5.748 130.533  0.00  0.00    +0.000 C 
ATOM     29  O   UNK A   0      -2.082   6.683 129.565  0.00  0.00    +0.000 OA
ATOM     30  C   UNK A   0      -3.130   7.029 128.599  0.00  0.00    +0.000 C 
ATOM     31  C   UNK A   0      -3.864   5.905 127.767  0.00  0.00    +0.000 C 
ENDBRANCH  23  24
BRANCH  23  32
ATOM     32  C   UNK A   0      -8.359   4.851 130.050  0.00  0.00    +0.000 A 
ATOM     33  C   UNK A   0      -9.602   4.328 129.768  0.00  0.00    +0.000 A 
ATOM     34  N   UNK A   0     -10.743   4.876 130.191  0.00  0.00    +0.000 NA
ATOM     35  C   UNK A   0     -10.652   5.972 130.974  0.00  0.00    +0.000 A 
ATOM     36  C   UNK A   0     -11.954   6.455 131.508  0.00  0.00    +0.000 C 
ATOM     37  C   UNK A   0      -9.461   6.626 131.276  0.00  0.00    +0.000 A 
ATOM     38  C   UNK A   0      -8.273   6.108 130.761  0.00  0.00    +0.000 A 
ATOM     39  C   UNK A   0      -6.958   6.775 131.163  0.00  0.00    +0.000 C 
ENDBRANCH  23  32
ENDBRANCH   8  23
TORSDOF 6
ENDMDL
MODEL 4
REMARK VINA RESULT:      -9.5      1.623      1.821
REMARK  Name = CHEMBL2037508
REMARK  10 active torsions:
REMARK  status: ('A' for Active; 'I' for Inactive)
REMARK    1  A    between atoms: CD1_1  and  CG1_2
REMARK    2  A    between atoms: CG1_2  and  CB_3
REMARK    3  A    between atoms: CB_3  and  CG2_4
REMARK    4  A    between atoms: CB_3  and  CA_5
REMARK    5  A    between atoms: C_9  and  C_10
REMARK    6  A    between atoms: N_21  and  C_22
REMARK    7  A    between atoms: C_22  and  C_23
REMARK    8  A    between atoms: C_22  and  C_31
REMARK    9  A    between atoms: C_34  and  C_35
REMARK   10  A    between atoms: C_37  and  C_38
REMARK                            x       y       z     vdW  Elec       q    Type
REMARK                         _______ _______ _______ _____ _____    ______ ____
ROOT
ATOM      1  CA  ILE A   2      -8.637   2.606 129.547  0.00  0.00    +0.000 C 
ATOM      2  C   ILE A   2      -7.921   1.311 129.013  0.00  0.00    +0.000 C 
ATOM      3  O   ILE A   2      -7.823   0.231 129.563  0.00  0.00    +0.000 OA
ATOM      4  N   UNK A   1      -7.346   1.564 127.807  0.00  0.00    +0.000 N 
ATOM      5  C   UNK A   1      -8.012   2.594 127.051  0.00  0.00    +0.000 C 
ATOM      6  C   UNK A   1      -7.886   3.915 127.754  0.00  0.00    +0.000 C 
ATOM      7  O   UNK A   1      -7.740   4.962 127.081  0.00  0.00    +0.000 OA
ATOM      8  N   ILE A   2      -8.051   3.842 129.096  0.00  0.00    +0.000 N 
ATOM      9  H   UNK A   1      -6.851   0.780 127.398  0.00  0.00    +0.000 HD
ENDROOT
BRANCH   5  10
ATOM     10  C   UNK A   1      -7.488   2.803 125.662  0.00  0.00    +0.000 C 
ATOM     11  C   UNK A   1      -8.667   2.662 124.717  0.00  0.00    +0.000 C 
ATOM     12  C   UNK A   1      -8.465   1.267 124.216  0.00  0.00    +0.000 A 
ATOM     13  C   UNK A   1      -9.394   0.465 123.589  0.00  0.00    +0.000 A 
ATOM     14  C   UNK A   1      -8.996  -0.805 123.174  0.00  0.00    +0.000 A 
ATOM     15  C   UNK A   1      -7.685  -1.258 123.392  0.00  0.00    +0.000 A 
ATOM     16  C   UNK A   1      -6.762  -0.459 124.063  0.00  0.00    +0.000 A 
ATOM     17  C   UNK A   1      -7.176   0.793 124.483  0.00  0.00    +0.000 A 
ATOM     18  C   UNK A   1      -6.380   1.812 125.217  0.00  0.00    +0.000 C 
ENDBRANCH   5  10
BRANCH   1  19
ATOM     19  CB  ILE A   2      -8.274   2.641 130.939  0.00  0.00    +0.000 C 
ATOM     20  CG2 ILE A   2      -9.949   1.993 131.668  0.00  0.00    +0.000 C 
BRANCH  19  22
ATOM     21  CD1 ILE A   2      -5.813   2.663 132.505  0.00  0.00    +0.000 C 
ATOM     22  CG1 ILE A   2      -6.604   2.130 131.355  0.00  0.00    +0.000 C 
ENDBRANCH  19  22
ENDBRANCH   1  19
BRANCH   8  23
ATOM     23  C   UNK A   0      -7.757   4.921 130.098  0.00  0.00    +0.000 C 
BRANCH  23  24
ATOM     24  C   UNK A   0      -6.051   5.704 130.241  0.00  0.00    +0.000 C 
ATOM     25  O   UNK A   0      -5.780   6.316 131.287  0.00  0.00    +0.000 OA
ATOM     26  N   UNK A   0      -4.811   5.531 129.164  0.00  0.00    +0.000 N 
ATOM     27  C   UNK A   0      -4.508   5.460 127.416  0.00  0.00    +0.000 C 
ATOM     28  C   UNK A   0      -3.935   4.135 126.989  0.00  0.00    +0.000 C 
ATOM     29  O   UNK A   0      -2.666   4.157 127.604  0.00  0.00    +0.000 OA
ATOM     30  C   UNK A   0      -2.731   4.304 129.061  0.00  0.00    +0.000 C 
ATOM     31  C   UNK A   0      -3.504   5.515 129.716  0.00  0.00    +0.000 C 
ENDBRANCH  23  24
BRANCH  23  32
ATOM     32  C   UNK A   0      -8.986   5.798 130.339  0.00  0.00    +0.000 A 
ATOM     33  C   UNK A   0      -9.763   6.177 129.267  0.00  0.00    +0.000 A 
ATOM     34  N   UNK A   0     -10.996   6.674 129.393  0.00  0.00    +0.000 NA
ATOM     35  C   UNK A   0     -11.507   6.756 130.639  0.00  0.00    +0.000 A 
ATOM     36  C   UNK A   0     -12.925   7.202 130.693  0.00  0.00    +0.000 C 
ATOM     37  C   UNK A   0     -10.798   6.463 131.801  0.00  0.00    +0.000 A 
ATOM     38  C   UNK A   0      -9.479   6.029 131.679  0.00  0.00    +0.000 A 
ATOM     39  C   UNK A   0      -8.729   5.625 132.948  0.00  0.00    +0.000 C 
ENDBRANCH  23  32
ENDBRANCH   8  23
TORSDOF 6
ENDMDL
MODEL 5
REMARK VINA RESULT:      -9.3      1.372      2.235
REMARK  Name = CHEMBL2037508
REMARK  10 active torsions:
REMARK  status: ('A' for Active; 'I' for Inactive)
REMARK    1  A    between atoms: CD1_1  and  CG1_2
REMARK    2  A    between atoms: CG1_2  and  CB_3
REMARK    3  A    between atoms: CB_3  and  CG2_4
REMARK    4  A    between atoms: CB_3  and  CA_5
REMARK    5  A    between atoms: C_9  and  C_10
REMARK    6  A    between atoms: N_21  and  C_22
REMARK    7  A    between atoms: C_22  and  C_23
REMARK    8  A    between atoms: C_22  and  C_31
REMARK    9  A    between atoms: C_34  and  C_35
REMARK   10  A    between atoms: C_37  and  C_38
REMARK                            x       y       z     vdW  Elec       q    Type
REMARK                         _______ _______ _______ _____ _____    ______ ____
ROOT
ATOM      1  CA  ILE A   2      -7.839   1.822 130.025  0.00  0.00    +0.000 C 
ATOM      2  C   ILE A   2      -7.243   0.450 129.539  0.00  0.00    +0.000 C 
ATOM      3  O   ILE A   2      -6.817  -0.463 130.219  0.00  0.00    +0.000 OA
ATOM      4  N   UNK A   1      -7.211   0.415 128.180  0.00  0.00    +0.000 N 
ATOM      5  C   UNK A   1      -8.230   1.219 127.554  0.00  0.00    +0.000 C 
ATOM      6  C   UNK A   1      -7.994   2.673 127.847  0.00  0.00    +0.000 C 
ATOM      7  O   UNK A   1      -8.241   3.529 126.965  0.00  0.00    +0.000 OA
ATOM      8  N   ILE A   2      -7.619   2.923 129.124  0.00  0.00    +0.000 N 
ATOM      9  H   UNK A   1      -6.826  -0.434 127.783  0.00  0.00    +0.000 HD
ENDROOT
BRANCH   5  10
ATOM     10  C   UNK A   1      -8.311   1.096 126.062  0.00  0.00    +0.000 C 
ATOM     11  C   UNK A   1      -9.483   0.182 125.755  0.00  0.00    +0.000 C 
ATOM     12  C   UNK A   1      -8.773  -1.107 125.481  0.00  0.00    +0.000 A 
ATOM     13  C   UNK A   1      -9.320  -2.372 125.469  0.00  0.00    +0.000 A 
ATOM     14  C   UNK A   1      -8.488  -3.447 125.164  0.00  0.00    +0.000 A 
ATOM     15  C   UNK A   1      -7.127  -3.250 124.880  0.00  0.00    +0.000 A 
ATOM     16  C   UNK A   1      -6.571  -1.973 124.933  0.00  0.00    +0.000 A 
ATOM     17  C   UNK A   1      -7.406  -0.918 125.253  0.00  0.00    +0.000 A 
ATOM     18  C   UNK A   1      -7.044   0.520 125.376  0.00  0.00    +0.000 C 
ENDBRANCH   5  10
BRANCH   1  19
ATOM     19  CB  ILE A   2      -6.974   2.198 131.111  0.00  0.00    +0.000 C 
ATOM     20  CG2 ILE A   2      -8.168   1.755 132.571  0.00  0.00    +0.000 C 
BRANCH  19  22
ATOM     21  CD1 ILE A   2      -4.189   2.068 131.971  0.00  0.00    +0.000 C 
ATOM     22  CG1 ILE A   2      -5.232   1.803 130.934  0.00  0.00    +0.000 C 
ENDBRANCH  19  22
ENDBRANCH   1  19
BRANCH   8  23
ATOM     23  C   UNK A   0      -7.087   4.218 129.667  0.00  0.00    +0.000 C 
BRANCH  23  24
ATOM     24  C   UNK A   0      -5.523   5.012 128.982  0.00  0.00    +0.000 C 
ATOM     25  O   UNK A   0      -5.376   5.032 127.749  0.00  0.00    +0.000 OA
ATOM     26  N   UNK A   0      -4.384   5.825 129.859  0.00  0.00    +0.000 N 
ATOM     27  C   UNK A   0      -3.528   5.744 131.411  0.00  0.00    +0.000 C 
ATOM     28  C   UNK A   0      -3.822   6.930 132.289  0.00  0.00    +0.000 C 
ATOM     29  O   UNK A   0      -3.220   7.982 131.567  0.00  0.00    +0.000 OA
ATOM     30  C   UNK A   0      -3.755   8.132 130.210  0.00  0.00    +0.000 C 
ATOM     31  C   UNK A   0      -3.756   6.916 129.204  0.00  0.00    +0.000 C 
ENDBRANCH  23  24
BRANCH  23  32
ATOM     32  C   UNK A   0      -8.222   5.126 130.137  0.00  0.00    +0.000 A 
ATOM     33  C   UNK A   0      -9.334   5.281 129.339  0.00  0.00    +0.000 A 
ATOM     34  N   UNK A   0     -10.487   5.794 129.777  0.00  0.00    +0.000 NA
ATOM     35  C   UNK A   0     -10.561   6.127 131.083  0.00  0.00    +0.000 A 
ATOM     36  C   UNK A   0     -11.908   6.575 131.527  0.00  0.00    +0.000 C 
ATOM     37  C   UNK A   0      -9.489   6.074 131.970  0.00  0.00    +0.000 A 
ATOM     38  C   UNK A   0      -8.258   5.624 131.495  0.00  0.00    +0.000 A 
ATOM     39  C   UNK A   0      -7.105   5.484 132.488  0.00  0.00    +0.000 C 
ENDBRANCH  23  32
ENDBRANCH   8  23
TORSDOF 6
ENDMDL
MODEL 6
REMARK VINA RESULT:      -9.2      3.154      8.271
REMARK  Name = CHEMBL2037508
REMARK  10 active torsions:
REMARK  status: ('A' for Active; 'I' for Inactive)
REMARK    1  A    between atoms: CD1_1  and  CG1_2
REMARK    2  A    between atoms: CG1_2  and  CB_3
REMARK    3  A    between atoms: CB_3  and  CG2_4
REMARK    4  A    between atoms: CB_3  and  CA_5
REMARK    5  A    between atoms: C_9  and  C_10
REMARK    6  A    between atoms: N_21  and  C_22
REMARK    7  A    between atoms: C_22  and  C_23
REMARK    8  A    between atoms: C_22  and  C_31
REMARK    9  A    between atoms: C_34  and  C_35
REMARK   10  A    between atoms: C_37  and  C_38
REMARK                            x       y       z     vdW  Elec       q    Type
REMARK                         _______ _______ _______ _____ _____    ______ ____
ROOT
ATOM      1  CA  ILE A   2      -5.483   2.596 132.393  0.00  0.00    +0.000 C 
ATOM      2  C   ILE A   2      -5.201   3.849 133.302  0.00  0.00    +0.000 C 
ATOM      3  O   ILE A   2      -5.289   3.929 134.512  0.00  0.00    +0.000 OA
ATOM      4  N   UNK A   1      -4.873   4.918 132.528  0.00  0.00    +0.000 N 
ATOM      5  C   UNK A   1      -4.249   4.561 131.280  0.00  0.00    +0.000 C 
ATOM      6  C   UNK A   1      -5.220   3.816 130.410  0.00  0.00    +0.000 C 
ATOM      7  O   UNK A   1      -5.206   4.000 129.170  0.00  0.00    +0.000 OA
ATOM      8  N   ILE A   2      -5.974   2.910 131.077  0.00  0.00    +0.000 N 
ATOM      9  H   UNK A   1      -4.689   5.774 133.038  0.00  0.00    +0.000 HD
ENDROOT
BRANCH   5  10
ATOM     10  C   UNK A   1      -3.750   5.716 130.464  0.00  0.00    +0.000 C 
ATOM     11  C   UNK A   1      -2.243   5.571 130.365  0.00  0.00    +0.000 C 
ATOM     12  C   UNK A   1      -1.795   6.552 131.403  0.00  0.00    +0.000 A 
ATOM     13  C   UNK A   1      -0.554   6.625 131.998  0.00  0.00    +0.000 A 
ATOM     14  C   UNK A   1      -0.328   7.636 132.931  0.00  0.00    +0.000 A 
ATOM     15  C   UNK A   1      -1.338   8.554 133.259  0.00  0.00    +0.000 A 
ATOM     16  C   UNK A   1      -2.603   8.451 132.684  0.00  0.00    +0.000 A 
ATOM     17  C   UNK A   1      -2.817   7.433 131.772  0.00  0.00    +0.000 A 
ATOM     18  C   UNK A   1      -4.074   7.120 131.040  0.00  0.00    +0.000 C 
ENDBRANCH   5  10
BRANCH   1  19
ATOM     19  CB  ILE A   2      -6.661   2.015 132.978  0.00  0.00    +0.000 C 
ATOM     20  CG2 ILE A   2      -5.822   0.467 133.789  0.00  0.00    +0.000 C 
BRANCH  19  22
ATOM     21  CD1 ILE A   2      -9.320   3.127 133.432  0.00  0.00    +0.000 C 
ATOM     22  CG1 ILE A   2      -7.851   3.148 133.702  0.00  0.00    +0.000 C 
ENDBRANCH  19  22
ENDBRANCH   1  19
BRANCH   8  23
ATOM     23  C   UNK A   0      -7.181   2.186 130.554  0.00  0.00    +0.000 C 
BRANCH  23  24
ATOM     24  C   UNK A   0      -8.605   3.098 129.726  0.00  0.00    +0.000 C 
ATOM     25  O   UNK A   0      -9.273   2.483 128.879  0.00  0.00    +0.000 OA
ATOM     26  N   UNK A   0      -9.153   4.605 130.123  0.00  0.00    +0.000 N 
ATOM     27  C   UNK A   0      -8.552   6.205 130.599  0.00  0.00    +0.000 C 
ATOM     28  C   UNK A   0      -9.012   6.603 131.976  0.00  0.00    +0.000 C 
ATOM     29  O   UNK A   0     -10.402   6.750 131.785  0.00  0.00    +0.000 OA
ATOM     30  C   UNK A   0     -11.052   5.529 131.298  0.00  0.00    +0.000 C 
ATOM     31  C   UNK A   0     -10.548   4.816 129.983  0.00  0.00    +0.000 C 
ENDBRANCH  23  24
BRANCH  23  32
ATOM     32  C   UNK A   0      -6.808   0.795 130.042  0.00  0.00    +0.000 A 
ATOM     33  C   UNK A   0      -5.657   0.636 129.301  0.00  0.00    +0.000 A 
ATOM     34  N   UNK A   0      -5.091  -0.551 129.070  0.00  0.00    +0.000 NA
ATOM     35  C   UNK A   0      -5.664  -1.633 129.638  0.00  0.00    +0.000 A 
ATOM     36  C   UNK A   0      -4.913  -2.901 129.439  0.00  0.00    +0.000 C 
ATOM     37  C   UNK A   0      -6.859  -1.606 130.353  0.00  0.00    +0.000 A 
ATOM     38  C   UNK A   0      -7.502  -0.381 130.521  0.00  0.00    +0.000 A 
ATOM     39  C   UNK A   0      -8.766  -0.338 131.378  0.00  0.00    +0.000 C 
ENDBRANCH  23  32
ENDBRANCH   8  23
TORSDOF 6
ENDMDL
MODEL 7
REMARK VINA RESULT:      -9.1      2.415      2.992
REMARK  Name = CHEMBL2037508
REMARK  10 active torsions:
REMARK  status: ('A' for Active; 'I' for Inactive)
REMARK    1  A    between atoms: CD1_1  and  CG1_2
REMARK    2  A    between atoms: CG1_2  and  CB_3
REMARK    3  A    between atoms: CB_3  and  CG2_4
REMARK    4  A    between atoms: CB_3  and  CA_5
REMARK    5  A    between atoms: C_9  and  C_10
REMARK    6  A    between atoms: N_21  and  C_22
REMARK    7  A    between atoms: C_22  and  C_23
REMARK    8  A    between atoms: C_22  and  C_31
REMARK    9  A    between atoms: C_34  and  C_35
REMARK   10  A    between atoms: C_37  and  C_38
REMARK                            x       y       z     vdW  Elec       q    Type
REMARK                         _______ _______ _______ _____ _____    ______ ____
ROOT
ATOM      1  CA  ILE A   2      -7.922   1.949 131.828  0.00  0.00    +0.000 C 
ATOM      2  C   ILE A   2      -7.215   0.623 132.296  0.00  0.00    +0.000 C 
ATOM      3  O   ILE A   2      -6.902   0.303 133.426  0.00  0.00    +0.000 OA
ATOM      4  N   UNK A   1      -6.932  -0.156 131.218  0.00  0.00    +0.000 N 
ATOM      5  C   UNK A   1      -7.836   0.033 130.112  0.00  0.00    +0.000 C 
ATOM      6  C   UNK A   1      -7.691   1.421 129.557  0.00  0.00    +0.000 C 
ATOM      7  O   UNK A   1      -7.790   1.606 128.320  0.00  0.00    +0.000 OA
ATOM      8  N   ILE A   2      -7.564   2.382 130.502  0.00  0.00    +0.000 N 
ATOM      9  H   UNK A   1      -6.461  -1.027 131.433  0.00  0.00    +0.000 HD
ENDROOT
BRANCH   5  10
ATOM     10  C   UNK A   1      -7.637  -0.906 128.960  0.00  0.00    +0.000 C 
ATOM     11  C   UNK A   1      -8.051  -2.286 129.437  0.00  0.00    +0.000 C 
ATOM     12  C   UNK A   1      -6.716  -2.899 129.723  0.00  0.00    +0.000 A 
ATOM     13  C   UNK A   1      -6.461  -4.016 130.489  0.00  0.00    +0.000 A 
ATOM     14  C   UNK A   1      -5.140  -4.443 130.613  0.00  0.00    +0.000 A 
ATOM     15  C   UNK A   1      -4.095  -3.752 129.979  0.00  0.00    +0.000 A 
ATOM     16  C   UNK A   1      -4.355  -2.600 129.240  0.00  0.00    +0.000 A 
ATOM     17  C   UNK A   1      -5.669  -2.180 129.138  0.00  0.00    +0.000 A 
ATOM     18  C   UNK A   1      -6.186  -0.987 128.416  0.00  0.00    +0.000 C 
ENDBRANCH   5  10
BRANCH   1  19
ATOM     19  CB  ILE A   2      -7.281   2.968 132.615  0.00  0.00    +0.000 C 
ATOM     20  CG2 ILE A   2      -8.774   3.387 133.778  0.00  0.00    +0.000 C 
BRANCH  19  22
ATOM     21  CD1 ILE A   2      -4.527   3.759 133.164  0.00  0.00    +0.000 C 
ATOM     22  CG1 ILE A   2      -5.564   2.689 133.060  0.00  0.00    +0.000 C 
ENDBRANCH  19  22
ENDBRANCH   1  19
BRANCH   8  23
ATOM     23  C   UNK A   0      -7.170   3.814 130.281  0.00  0.00    +0.000 C 
BRANCH  23  24
ATOM     24  C   UNK A   0      -5.709   4.284 129.191  0.00  0.00    +0.000 C 
ATOM     25  O   UNK A   0      -4.641   4.582 129.750  0.00  0.00    +0.000 OA
ATOM     26  N   UNK A   0      -5.662   4.197 127.542  0.00  0.00    +0.000 N 
ATOM     27  C   UNK A   0      -6.678   4.502 126.119  0.00  0.00    +0.000 C 
ATOM     28  C   UNK A   0      -6.947   3.250 125.329  0.00  0.00    +0.000 C 
ATOM     29  O   UNK A   0      -5.664   2.940 124.832  0.00  0.00    +0.000 OA
ATOM     30  C   UNK A   0      -4.666   2.743 125.888  0.00  0.00    +0.000 C 
ATOM     31  C   UNK A   0      -4.406   3.861 126.973  0.00  0.00    +0.000 C 
ENDBRANCH  23  24
BRANCH  23  32
ATOM     32  C   UNK A   0      -8.393   4.730 130.300  0.00  0.00    +0.000 A 
ATOM     33  C   UNK A   0      -9.603   4.246 129.854  0.00  0.00    +0.000 A 
ATOM     34  N   UNK A   0     -10.770   4.845 130.104  0.00  0.00    +0.000 NA
ATOM     35  C   UNK A   0     -10.747   5.953 130.874  0.00  0.00    +0.000 A 
ATOM     36  C   UNK A   0     -12.090   6.494 131.212  0.00  0.00    +0.000 C 
ATOM     37  C   UNK A   0      -9.584   6.569 131.330  0.00  0.00    +0.000 A 
ATOM     38  C   UNK A   0      -8.358   5.998 130.995  0.00  0.00    +0.000 A 
ATOM     39  C   UNK A   0      -7.086   6.625 131.567  0.00  0.00    +0.000 C 
ENDBRANCH  23  32
ENDBRANCH   8  23
TORSDOF 6
ENDMDL
MODEL 8
REMARK VINA RESULT:      -9.0      2.597      6.973
REMARK  Name = CHEMBL2037508
REMARK  10 active torsions:
REMARK  status: ('A' for Active; 'I' for Inactive)
REMARK    1  A    between atoms: CD1_1  and  CG1_2
REMARK    2  A    between atoms: CG1_2  and  CB_3
REMARK    3  A    between atoms: CB_3  and  CG2_4
REMARK    4  A    between atoms: CB_3  and  CA_5
REMARK    5  A    between atoms: C_9  and  C_10
REMARK    6  A    between atoms: N_21  and  C_22
REMARK    7  A    between atoms: C_22  and  C_23
REMARK    8  A    between atoms: C_22  and  C_31
REMARK    9  A    between atoms: C_34  and  C_35
REMARK   10  A    between atoms: C_37  and  C_38
REMARK                            x       y       z     vdW  Elec       q    Type
REMARK                         _______ _______ _______ _____ _____    ______ ____
ROOT
ATOM      1  CA  ILE A   2      -7.173   2.464 129.697  0.00  0.00    +0.000 C 
ATOM      2  C   ILE A   2      -8.152   3.338 128.829  0.00  0.00    +0.000 C 
ATOM      3  O   ILE A   2      -8.756   3.010 127.826  0.00  0.00    +0.000 OA
ATOM      4  N   UNK A   1      -8.214   4.600 129.330  0.00  0.00    +0.000 N 
ATOM      5  C   UNK A   1      -7.970   4.674 130.748  0.00  0.00    +0.000 C 
ATOM      6  C   UNK A   1      -6.554   4.274 131.051  0.00  0.00    +0.000 C 
ATOM      7  O   UNK A   1      -5.928   4.862 131.964  0.00  0.00    +0.000 OA
ATOM      8  N   ILE A   2      -6.120   3.206 130.341  0.00  0.00    +0.000 N 
ATOM      9  H   UNK A   1      -8.816   5.234 128.818  0.00  0.00    +0.000 HD
ENDROOT
BRANCH   5  10
ATOM     10  C   UNK A   1      -8.166   6.030 131.358  0.00  0.00    +0.000 C 
ATOM     11  C   UNK A   1      -9.349   5.924 132.303  0.00  0.00    +0.000 C 
ATOM     12  C   UNK A   1     -10.435   6.521 131.465  0.00  0.00    +0.000 A 
ATOM     13  C   UNK A   1     -11.795   6.399 131.655  0.00  0.00    +0.000 A 
ATOM     14  C   UNK A   1     -12.646   7.058 130.770  0.00  0.00    +0.000 A 
ATOM     15  C   UNK A   1     -12.135   7.822 129.709  0.00  0.00    +0.000 A 
ATOM     16  C   UNK A   1     -10.760   7.908 129.498  0.00  0.00    +0.000 A 
ATOM     17  C   UNK A   1      -9.928   7.236 130.375  0.00  0.00    +0.000 A 
ATOM     18  C   UNK A   1      -8.442   7.175 130.348  0.00  0.00    +0.000 C 
ENDBRANCH   5  10
BRANCH   1  19
ATOM     19  CB  ILE A   2      -6.415   1.734 128.718  0.00  0.00    +0.000 C 
ATOM     20  CG2 ILE A   2      -7.266   0.008 128.951  0.00  0.00    +0.000 C 
BRANCH  19  22
ATOM     21  CD1 ILE A   2      -5.062   2.101 126.159  0.00  0.00    +0.000 C 
ATOM     22  CG1 ILE A   2      -6.029   2.590 127.187  0.00  0.00    +0.000 C 
ENDBRANCH  19  22
ENDBRANCH   1  19
BRANCH   8  23
ATOM     23  C   UNK A   0      -4.706   2.712 130.235  0.00  0.00    +0.000 C 
BRANCH  23  24
ATOM     24  C   UNK A   0      -3.367   3.713 129.370  0.00  0.00    +0.000 C 
ATOM     25  O   UNK A   0      -2.640   3.125 128.554  0.00  0.00    +0.000 OA
ATOM     26  N   UNK A   0      -3.154   5.347 129.481  0.00  0.00    +0.000 N 
ATOM     27  C   UNK A   0      -3.215   6.664 130.670  0.00  0.00    +0.000 C 
ATOM     28  C   UNK A   0      -4.275   7.681 130.343  0.00  0.00    +0.000 C 
ATOM     29  O   UNK A   0      -3.774   8.251 129.155  0.00  0.00    +0.000 OA
ATOM     30  C   UNK A   0      -3.575   7.273 128.082  0.00  0.00    +0.000 C 
ATOM     31  C   UNK A   0      -2.678   5.994 128.312  0.00  0.00    +0.000 C 
ENDBRANCH  23  24
BRANCH  23  32
ATOM     32  C   UNK A   0      -4.322   1.878 131.457  0.00  0.00    +0.000 A 
ATOM     33  C   UNK A   0      -4.587   0.526 131.460  0.00  0.00    +0.000 A 
ATOM     34  N   UNK A   0      -4.032  -0.328 132.324  0.00  0.00    +0.000 NA
ATOM     35  C   UNK A   0      -3.134   0.170 133.199  0.00  0.00    +0.000 A 
ATOM     36  C   UNK A   0      -2.468  -0.856 134.046  0.00  0.00    +0.000 C 
ATOM     37  C   UNK A   0      -2.831   1.523 133.332  0.00  0.00    +0.000 A 
ATOM     38  C   UNK A   0      -3.475   2.430 132.493  0.00  0.00    +0.000 A 
ATOM     39  C   UNK A   0      -3.080   3.904 132.579  0.00  0.00    +0.000 C 
ENDBRANCH  23  32
ENDBRANCH   8  23
TORSDOF 6
ENDMDL
MODEL 9
REMARK VINA RESULT:      -8.8      3.255      6.878
REMARK  Name = CHEMBL2037508
REMARK  10 active torsions:
REMARK  status: ('A' for Active; 'I' for Inactive)
REMARK    1  A    between atoms: CD1_1  and  CG1_2
REMARK    2  A    between atoms: CG1_2  and  CB_3
REMARK    3  A    between atoms: CB_3  and  CG2_4
REMARK    4  A    between atoms: CB_3  and  CA_5
REMARK    5  A    between atoms: C_9  and  C_10
REMARK    6  A    between atoms: N_21  and  C_22
REMARK    7  A    between atoms: C_22  and  C_23
REMARK    8  A    between atoms: C_22  and  C_31
REMARK    9  A    between atoms: C_34  and  C_35
REMARK   10  A    between atoms: C_37  and  C_38
REMARK                            x       y       z     vdW  Elec       q    Type
REMARK                         _______ _______ _______ _____ _____    ______ ____
ROOT
ATOM      1  CA  ILE A   2      -7.936   2.303 130.902  0.00  0.00    +0.000 C 
ATOM      2  C   ILE A   2      -8.453   3.129 129.667  0.00  0.00    +0.000 C 
ATOM      3  O   ILE A   2      -8.696   2.724 128.547  0.00  0.00    +0.000 OA
ATOM      4  N   UNK A   1      -8.560   4.443 130.001  0.00  0.00    +0.000 N 
ATOM      5  C   UNK A   1      -8.823   4.667 131.399  0.00  0.00    +0.000 C 
ATOM      6  C   UNK A   1      -7.652   4.217 132.225  0.00  0.00    +0.000 C 
ATOM      7  O   UNK A   1      -7.330   4.867 133.248  0.00  0.00    +0.000 OA
ATOM      8  N   ILE A   2      -7.107   3.047 131.814  0.00  0.00    +0.000 N 
ATOM      9  H   UNK A   1      -8.876   5.049 129.253  0.00  0.00    +0.000 HD
ENDROOT
BRANCH   5  10
ATOM     10  C   UNK A   1      -9.083   6.095 131.777  0.00  0.00    +0.000 C 
ATOM     11  C   UNK A   1     -10.531   6.179 132.225  0.00  0.00    +0.000 C 
ATOM     12  C   UNK A   1     -11.174   6.744 130.998  0.00  0.00    +0.000 A 
ATOM     13  C   UNK A   1     -12.516   6.736 130.683  0.00  0.00    +0.000 A 
ATOM     14  C   UNK A   1     -12.918   7.342 129.494  0.00  0.00    +0.000 A 
ATOM     15  C   UNK A   1     -11.982   7.941 128.636  0.00  0.00    +0.000 A 
ATOM     16  C   UNK A   1     -10.623   7.911 128.940  0.00  0.00    +0.000 A 
ATOM     17  C   UNK A   1     -10.237   7.293 130.116  0.00  0.00    +0.000 A 
ATOM     18  C   UNK A   1      -8.856   7.130 130.644  0.00  0.00    +0.000 C 
ENDBRANCH   5  10
BRANCH   1  19
ATOM     19  CB  ILE A   2      -6.960   1.417 130.329  0.00  0.00    +0.000 C 
ATOM     20  CG2 ILE A   2      -8.024  -0.203 130.348  0.00  0.00    +0.000 C 
BRANCH  19  22
ATOM     21  CD1 ILE A   2      -4.491   1.805 128.822  0.00  0.00    +0.000 C 
ATOM     22  CG1 ILE A   2      -5.950   2.074 128.997  0.00  0.00    +0.000 C 
ENDBRANCH  19  22
ENDBRANCH   1  19
BRANCH   8  23
ATOM     23  C   UNK A   0      -5.804   2.455 132.268  0.00  0.00    +0.000 C 
BRANCH  23  24
ATOM     24  C   UNK A   0      -4.162   3.332 131.980  0.00  0.00    +0.000 C 
ATOM     25  O   UNK A   0      -3.128   2.645 131.999  0.00  0.00    +0.000 OA
ATOM     26  N   UNK A   0      -3.971   4.916 131.556  0.00  0.00    +0.000 N 
ATOM     27  C   UNK A   0      -4.640   6.524 131.902  0.00  0.00    +0.000 C 
ATOM     28  C   UNK A   0      -5.264   7.156 130.687  0.00  0.00    +0.000 C 
ATOM     29  O   UNK A   0      -4.140   7.372 129.863  0.00  0.00    +0.000 OA
ATOM     30  C   UNK A   0      -3.407   6.141 129.550  0.00  0.00    +0.000 C 
ATOM     31  C   UNK A   0      -2.874   5.203 130.703  0.00  0.00    +0.000 C 
ENDBRANCH  23  24
BRANCH  23  32
ATOM     32  C   UNK A   0      -5.984   1.644 133.551  0.00  0.00    +0.000 A 
ATOM     33  C   UNK A   0      -6.378   0.327 133.464  0.00  0.00    +0.000 A 
ATOM     34  N   UNK A   0      -6.274  -0.538 134.476  0.00  0.00    +0.000 NA
ATOM     35  C   UNK A   0      -5.707  -0.093 135.617  0.00  0.00    +0.000 A 
ATOM     36  C   UNK A   0      -5.512  -1.140 136.655  0.00  0.00    +0.000 C 
ATOM     37  C   UNK A   0      -5.328   1.227 135.844  0.00  0.00    +0.000 A 
ATOM     38  C   UNK A   0      -5.519   2.155 134.821  0.00  0.00    +0.000 A 
ATOM     39  C   UNK A   0      -5.023   3.585 135.039  0.00  0.00    +0.000 C 
ENDBRANCH  23  32
ENDBRANCH   8  23
TORSDOF 6
ENDMDL
