MODEL 1
REMARK VINA RESULT:      -8.2      0.000      0.000
REMARK  Name = CHEMBL1643591
REMARK  14 active torsions:
REMARK  status: ('A' for Active; 'I' for Inactive)
REMARK    1  A    between atoms: C_1  and  O_2
REMARK    2  A    between atoms: O_2  and  C_3
REMARK    3  A    between atoms: C_6  and  C_7
REMARK    4  A    between atoms: C_7  and  N_8
REMARK    5  A    between atoms: N_8  and  C_9
REMARK    6  A    between atoms: C_9  and  C_10
REMARK    7  A    between atoms: C_13  and  C_14
REMARK    8  A    between atoms: C_16  and  C_17
REMARK    9  A    between atoms: C_17  and  N_18
REMARK   10  A    between atoms: N_18  and  C_19
REMARK   11  A    between atoms: N_18  and  S_24
REMARK   12  A    between atoms: S_24  and  C_27
REMARK   13  A    between atoms: C_30  and  O_31
REMARK   14  A    between atoms: O_31  and  C_32
REMARK                            x       y       z     vdW  Elec       q    Type
REMARK                         _______ _______ _______ _____ _____    ______ ____
ROOT
ATOM      1  C   UNL     1      -6.708  -1.613 125.512  0.00  0.00    +0.000 A 
ATOM      2  N   UNL     1      -7.631  -0.783 125.075  0.00  0.00    +0.000 NA
ATOM      3  C   UNL     1      -7.454  -0.424 123.757  0.00  0.00    +0.000 A 
ATOM      4  C   UNL     1      -6.518  -1.219 123.121  0.00  0.00    +0.000 A 
ATOM      5  S   UNL     1      -5.725  -2.249 124.263  0.00  0.00    +0.000 S 
ENDROOT
BRANCH   1   9
ATOM      6  C   UNL     1      -6.709  -3.062 129.572  0.00  0.00    +0.000 A 
ATOM      7  C   UNL     1      -5.492  -2.742 128.953  0.00  0.00    +0.000 A 
ATOM      8  C   UNL     1      -5.465  -2.202 127.655  0.00  0.00    +0.000 A 
ATOM      9  C   UNL     1      -6.647  -2.077 126.908  0.00  0.00    +0.000 A 
ATOM     10  C   UNL     1      -7.858  -2.373 127.541  0.00  0.00    +0.000 A 
ATOM     11  C   UNL     1      -7.890  -2.869 128.843  0.00  0.00    +0.000 A 
BRANCH   6  12
ATOM     12  C   UNL     1      -6.729  -3.448 131.039  0.00  0.00    +0.000 C 
BRANCH  12  13
ATOM     13  N   UNL     1      -7.548  -2.541 131.824  0.00  0.00    +0.000 NA
ATOM     14  H   UNL     1      -8.197  -2.069 131.200  0.00  0.00    +0.000 HD
BRANCH  13  15
ATOM     15  C   UNL     1      -6.771  -1.493 132.475  0.00  0.00    +0.000 C 
BRANCH  15  19
ATOM     16  C   UNL     1      -8.952   2.239 132.634  0.00  0.00    +0.000 A 
ATOM     17  C   UNL     1      -7.677   2.129 133.193  0.00  0.00    +0.000 A 
ATOM     18  C   UNL     1      -6.944   0.945 133.069  0.00  0.00    +0.000 A 
ATOM     19  C   UNL     1      -7.515  -0.174 132.454  0.00  0.00    +0.000 A 
ATOM     20  C   UNL     1      -8.792  -0.042 131.884  0.00  0.00    +0.000 A 
ATOM     21  C   UNL     1      -9.501   1.153 131.964  0.00  0.00    +0.000 A 
BRANCH  16  23
ATOM     22  C   UNL     1      -8.785   4.544 132.162  0.00  0.00    +0.000 C 
ATOM     23  O   UNL     1      -9.543   3.470 132.710  0.00  0.00    +0.000 OA
ENDBRANCH  16  23
ENDBRANCH  15  19
ENDBRANCH  13  15
ENDBRANCH  12  13
ENDBRANCH   6  12
ENDBRANCH   1   9
BRANCH   3  24
ATOM     24  C   UNL     1      -8.174   0.801 123.198  0.00  0.00    +0.000 C 
BRANCH  24  25
ATOM     25  N   UNL     1      -7.637   2.142 123.705  0.00  0.00    +0.000 NA
BRANCH  25  26
ATOM     26  C   UNL     1      -7.518   3.215 122.653  0.00  0.00    +0.000 C 
ATOM     27  C   UNL     1      -6.234   3.148 121.829  0.00  0.00    +0.000 C 
ATOM     28  C   UNL     1      -6.580   3.877 120.536  0.00  0.00    +0.000 C 
ATOM     29  C   UNL     1      -8.101   3.893 120.399  0.00  0.00    +0.000 C 
ATOM     30  C   UNL     1      -8.670   3.269 121.652  0.00  0.00    +0.000 C 
ENDBRANCH  25  26
BRANCH  25  31
ATOM     31  S   UNL     1      -8.594   2.644 125.058  0.00  0.00    +0.000 S 
ATOM     32  O   UNL     1      -8.637   4.087 125.018  0.00  0.00    +0.000 OA
ATOM     33  O   UNL     1      -9.832   1.878 125.049  0.00  0.00    +0.000 OA
BRANCH  31  34
ATOM     34  C   UNL     1      -7.696   2.169 126.532  0.00  0.00    +0.000 A 
ATOM     35  C   UNL     1      -6.301   2.174 126.557  0.00  0.00    +0.000 A 
ATOM     36  C   UNL     1      -5.628   1.604 127.653  0.00  0.00    +0.000 A 
ATOM     37  C   UNL     1      -6.335   1.102 128.755  0.00  0.00    +0.000 A 
ATOM     38  C   UNL     1      -7.728   1.107 128.719  0.00  0.00    +0.000 A 
ATOM     39  C   UNL     1      -8.407   1.627 127.612  0.00  0.00    +0.000 A 
BRANCH  37  40
ATOM     40  O   UNL     1      -5.575   0.644 129.799  0.00  0.00    +0.000 OA
ATOM     41  C   UNL     1      -4.287   1.238 129.960  0.00  0.00    +0.000 C 
ENDBRANCH  37  40
ENDBRANCH  31  34
ENDBRANCH  25  31
ENDBRANCH  24  25
ENDBRANCH   3  24
TORSDOF 12
ENDMDL
MODEL 2
REMARK VINA RESULT:      -8.0      3.529      7.793
REMARK  Name = CHEMBL1643591
REMARK  14 active torsions:
REMARK  status: ('A' for Active; 'I' for Inactive)
REMARK    1  A    between atoms: C_1  and  O_2
REMARK    2  A    between atoms: O_2  and  C_3
REMARK    3  A    between atoms: C_6  and  C_7
REMARK    4  A    between atoms: C_7  and  N_8
REMARK    5  A    between atoms: N_8  and  C_9
REMARK    6  A    between atoms: C_9  and  C_10
REMARK    7  A    between atoms: C_13  and  C_14
REMARK    8  A    between atoms: C_16  and  C_17
REMARK    9  A    between atoms: C_17  and  N_18
REMARK   10  A    between atoms: N_18  and  C_19
REMARK   11  A    between atoms: N_18  and  S_24
REMARK   12  A    between atoms: S_24  and  C_27
REMARK   13  A    between atoms: C_30  and  O_31
REMARK   14  A    between atoms: O_31  and  C_32
REMARK                            x       y       z     vdW  Elec       q    Type
REMARK                         _______ _______ _______ _____ _____    ______ ____
ROOT
ATOM      1  C   UNL     1      -6.282   2.979 127.384  0.00  0.00    +0.000 A 
ATOM      2  N   UNL     1      -6.900   3.513 128.416  0.00  0.00    +0.000 NA
ATOM      3  C   UNL     1      -6.077   4.296 129.193  0.00  0.00    +0.000 A 
ATOM      4  C   UNL     1      -4.870   4.562 128.572  0.00  0.00    +0.000 A 
ATOM      5  S   UNL     1      -4.721   3.631 127.121  0.00  0.00    +0.000 S 
ENDROOT
BRANCH   1   9
ATOM      6  C   UNL     1      -8.382   0.302 124.737  0.00  0.00    +0.000 A 
ATOM      7  C   UNL     1      -7.101   0.754 124.390  0.00  0.00    +0.000 A 
ATOM      8  C   UNL     1      -6.364   1.571 125.264  0.00  0.00    +0.000 A 
ATOM      9  C   UNL     1      -6.938   2.046 126.454  0.00  0.00    +0.000 A 
ATOM     10  C   UNL     1      -8.205   1.571 126.806  0.00  0.00    +0.000 A 
ATOM     11  C   UNL     1      -8.922   0.727 125.960  0.00  0.00    +0.000 A 
BRANCH   6  12
ATOM     12  C   UNL     1      -9.074  -0.738 123.878  0.00  0.00    +0.000 C 
BRANCH  12  13
ATOM     13  N   UNL     1      -9.391  -1.937 124.632  0.00  0.00    +0.000 NA
ATOM     14  H   UNL     1      -9.765  -1.661 125.536  0.00  0.00    +0.000 HD
BRANCH  13  15
ATOM     15  C   UNL     1      -8.220  -2.761 124.909  0.00  0.00    +0.000 C 
BRANCH  15  19
ATOM     16  C   UNL     1      -7.221  -3.041 129.109  0.00  0.00    +0.000 A 
ATOM     17  C   UNL     1      -6.352  -2.429 128.204  0.00  0.00    +0.000 A 
ATOM     18  C   UNL     1      -6.714  -2.270 126.863  0.00  0.00    +0.000 A 
ATOM     19  C   UNL     1      -7.920  -2.798 126.393  0.00  0.00    +0.000 A 
ATOM     20  C   UNL     1      -8.790  -3.398 127.319  0.00  0.00    +0.000 A 
ATOM     21  C   UNL     1      -8.451  -3.511 128.664  0.00  0.00    +0.000 A 
BRANCH  16  23
ATOM     22  C   UNL     1      -7.488  -2.111 131.259  0.00  0.00    +0.000 C 
ATOM     23  O   UNL     1      -6.826  -3.050 130.418  0.00  0.00    +0.000 OA
ENDBRANCH  16  23
ENDBRANCH  15  19
ENDBRANCH  13  15
ENDBRANCH  12  13
ENDBRANCH   6  12
ENDBRANCH   1   9
BRANCH   3  24
ATOM     24  C   UNL     1      -6.500   4.673 130.611  0.00  0.00    +0.000 C 
BRANCH  24  25
ATOM     25  N   UNL     1      -8.013   4.803 130.811  0.00  0.00    +0.000 NA
BRANCH  25  26
ATOM     26  C   UNL     1      -8.624   3.765 131.718  0.00  0.00    +0.000 C 
ATOM     27  C   UNL     1      -9.862   3.080 131.144  0.00  0.00    +0.000 C 
ATOM     28  C   UNL     1      -9.938   1.755 131.894  0.00  0.00    +0.000 C 
ATOM     29  C   UNL     1      -8.553   1.460 132.468  0.00  0.00    +0.000 C 
ATOM     30  C   UNL     1      -7.676   2.650 132.152  0.00  0.00    +0.000 C 
ENDBRANCH  25  26
BRANCH  25  31
ATOM     31  S   UNL     1      -8.367   6.419 131.322  0.00  0.00    +0.000 S 
ATOM     32  O   UNL     1      -8.592   6.359 132.748  0.00  0.00    +0.000 OA
ATOM     33  O   UNL     1      -7.341   7.301 130.784  0.00  0.00    +0.000 OA
BRANCH  31  34
ATOM     34  C   UNL     1      -9.913   6.881 130.547  0.00  0.00    +0.000 A 
ATOM     35  C   UNL     1      -9.931   7.613 129.359  0.00  0.00    +0.000 A 
ATOM     36  C   UNL     1     -11.149   8.133 128.887  0.00  0.00    +0.000 A 
ATOM     37  C   UNL     1     -12.356   7.863 129.548  0.00  0.00    +0.000 A 
ATOM     38  C   UNL     1     -12.324   7.128 130.732  0.00  0.00    +0.000 A 
ATOM     39  C   UNL     1     -11.111   6.647 131.236  0.00  0.00    +0.000 A 
BRANCH  37  40
ATOM     40  O   UNL     1     -13.489   8.354 128.954  0.00  0.00    +0.000 OA
ATOM     41  C   UNL     1     -13.840   7.797 127.688  0.00  0.00    +0.000 C 
ENDBRANCH  37  40
ENDBRANCH  31  34
ENDBRANCH  25  31
ENDBRANCH  24  25
ENDBRANCH   3  24
TORSDOF 12
ENDMDL
MODEL 3
REMARK VINA RESULT:      -7.9      3.006      6.309
REMARK  Name = CHEMBL1643591
REMARK  14 active torsions:
REMARK  status: ('A' for Active; 'I' for Inactive)
REMARK    1  A    between atoms: C_1  and  O_2
REMARK    2  A    between atoms: O_2  and  C_3
REMARK    3  A    between atoms: C_6  and  C_7
REMARK    4  A    between atoms: C_7  and  N_8
REMARK    5  A    between atoms: N_8  and  C_9
REMARK    6  A    between atoms: C_9  and  C_10
REMARK    7  A    between atoms: C_13  and  C_14
REMARK    8  A    between atoms: C_16  and  C_17
REMARK    9  A    between atoms: C_17  and  N_18
REMARK   10  A    between atoms: N_18  and  C_19
REMARK   11  A    between atoms: N_18  and  S_24
REMARK   12  A    between atoms: S_24  and  C_27
REMARK   13  A    between atoms: C_30  and  O_31
REMARK   14  A    between atoms: O_31  and  C_32
REMARK                            x       y       z     vdW  Elec       q    Type
REMARK                         _______ _______ _______ _____ _____    ______ ____
ROOT
ATOM      1  C   UNL     1      -7.383   1.492 128.879  0.00  0.00    +0.000 A 
ATOM      2  N   UNL     1      -8.269   0.846 128.153  0.00  0.00    +0.000 NA
ATOM      3  C   UNL     1      -7.780   0.449 126.929  0.00  0.00    +0.000 A 
ATOM      4  C   UNL     1      -6.405   0.577 126.850  0.00  0.00    +0.000 A 
ATOM      5  S   UNL     1      -5.795   1.405 128.243  0.00  0.00    +0.000 S 
ENDROOT
BRANCH   1   9
ATOM      6  C   UNL     1      -8.473   3.092 132.731  0.00  0.00    +0.000 A 
ATOM      7  C   UNL     1      -7.133   3.129 132.321  0.00  0.00    +0.000 A 
ATOM      8  C   UNL     1      -6.757   2.678 131.044  0.00  0.00    +0.000 A 
ATOM      9  C   UNL     1      -7.698   2.078 130.193  0.00  0.00    +0.000 A 
ATOM     10  C   UNL     1      -9.036   2.068 130.596  0.00  0.00    +0.000 A 
ATOM     11  C   UNL     1      -9.418   2.552 131.846  0.00  0.00    +0.000 A 
BRANCH   6  12
ATOM     12  C   UNL     1      -8.886   3.767 134.024  0.00  0.00    +0.000 C 
BRANCH  12  13
ATOM     13  N   UNL     1      -9.695   4.948 133.783  0.00  0.00    +0.000 NA
ATOM     14  H   UNL     1     -10.544   4.665 133.302  0.00  0.00    +0.000 HD
BRANCH  13  15
ATOM     15  C   UNL     1      -9.039   5.919 132.917  0.00  0.00    +0.000 C 
BRANCH  15  19
ATOM     16  C   UNL     1     -11.651   7.446 129.824  0.00  0.00    +0.000 A 
ATOM     17  C   UNL     1     -10.265   7.453 129.660  0.00  0.00    +0.000 A 
ATOM     18  C   UNL     1      -9.429   6.887 130.627  0.00  0.00    +0.000 A 
ATOM     19  C   UNL     1      -9.969   6.378 131.812  0.00  0.00    +0.000 A 
ATOM     20  C   UNL     1     -11.367   6.364 131.955  0.00  0.00    +0.000 A 
ATOM     21  C   UNL     1     -12.201   6.883 130.970  0.00  0.00    +0.000 A 
BRANCH  16  23
ATOM     22  C   UNL     1     -13.339   7.008 128.236  0.00  0.00    +0.000 C 
ATOM     23  O   UNL     1     -12.389   7.921 128.776  0.00  0.00    +0.000 OA
ENDBRANCH  16  23
ENDBRANCH  15  19
ENDBRANCH  13  15
ENDBRANCH  12  13
ENDBRANCH   6  12
ENDBRANCH   1   9
BRANCH   3  24
ATOM     24  C   UNL     1      -8.745   0.043 125.817  0.00  0.00    +0.000 C 
BRANCH  24  25
ATOM     25  N   UNL     1      -8.246   0.341 124.401  0.00  0.00    +0.000 NA
BRANCH  25  26
ATOM     26  C   UNL     1      -7.915  -0.876 123.576  0.00  0.00    +0.000 C 
ATOM     27  C   UNL     1      -6.434  -1.015 123.228  0.00  0.00    +0.000 C 
ATOM     28  C   UNL     1      -6.253  -2.502 122.948  0.00  0.00    +0.000 C 
ATOM     29  C   UNL     1      -7.411  -3.248 123.607  0.00  0.00    +0.000 C 
ATOM     30  C   UNL     1      -8.339  -2.208 124.191  0.00  0.00    +0.000 C 
ENDBRANCH  25  26
BRANCH  25  31
ATOM     31  S   UNL     1      -9.392   1.379 123.618  0.00  0.00    +0.000 S 
ATOM     32  O   UNL     1     -10.200   0.533 122.771  0.00  0.00    +0.000 OA
ATOM     33  O   UNL     1     -10.023   2.207 124.635  0.00  0.00    +0.000 OA
BRANCH  31  34
ATOM     34  C   UNL     1      -8.457   2.476 122.557  0.00  0.00    +0.000 A 
ATOM     35  C   UNL     1      -9.055   3.099 121.461  0.00  0.00    +0.000 A 
ATOM     36  C   UNL     1      -8.252   3.787 120.535  0.00  0.00    +0.000 A 
ATOM     37  C   UNL     1      -6.871   3.924 120.735  0.00  0.00    +0.000 A 
ATOM     38  C   UNL     1      -6.286   3.300 121.836  0.00  0.00    +0.000 A 
ATOM     39  C   UNL     1      -7.070   2.572 122.738  0.00  0.00    +0.000 A 
BRANCH  37  40
ATOM     40  O   UNL     1      -6.201   4.682 119.811  0.00  0.00    +0.000 OA
ATOM     41  C   UNL     1      -4.967   5.262 120.234  0.00  0.00    +0.000 C 
ENDBRANCH  37  40
ENDBRANCH  31  34
ENDBRANCH  25  31
ENDBRANCH  24  25
ENDBRANCH   3  24
TORSDOF 12
ENDMDL
MODEL 4
REMARK VINA RESULT:      -7.9      3.651      7.488
REMARK  Name = CHEMBL1643591
REMARK  14 active torsions:
REMARK  status: ('A' for Active; 'I' for Inactive)
REMARK    1  A    between atoms: C_1  and  O_2
REMARK    2  A    between atoms: O_2  and  C_3
REMARK    3  A    between atoms: C_6  and  C_7
REMARK    4  A    between atoms: C_7  and  N_8
REMARK    5  A    between atoms: N_8  and  C_9
REMARK    6  A    between atoms: C_9  and  C_10
REMARK    7  A    between atoms: C_13  and  C_14
REMARK    8  A    between atoms: C_16  and  C_17
REMARK    9  A    between atoms: C_17  and  N_18
REMARK   10  A    between atoms: N_18  and  C_19
REMARK   11  A    between atoms: N_18  and  S_24
REMARK   12  A    between atoms: S_24  and  C_27
REMARK   13  A    between atoms: C_30  and  O_31
REMARK   14  A    between atoms: O_31  and  C_32
REMARK                            x       y       z     vdW  Elec       q    Type
REMARK                         _______ _______ _______ _____ _____    ______ ____
ROOT
ATOM      1  C   UNL     1      -7.756   2.468 127.257  0.00  0.00    +0.000 A 
ATOM      2  N   UNL     1      -8.696   2.980 128.022  0.00  0.00    +0.000 NA
ATOM      3  C   UNL     1      -8.197   3.728 129.065  0.00  0.00    +0.000 A 
ATOM      4  C   UNL     1      -6.848   3.996 128.916  0.00  0.00    +0.000 A 
ATOM      5  S   UNL     1      -6.200   3.106 127.580  0.00  0.00    +0.000 S 
ENDROOT
BRANCH   1   9
ATOM      6  C   UNL     1      -8.801  -0.137 123.985  0.00  0.00    +0.000 A 
ATOM      7  C   UNL     1      -7.575   0.542 123.963  0.00  0.00    +0.000 A 
ATOM      8  C   UNL     1      -7.176   1.344 125.046  0.00  0.00    +0.000 A 
ATOM      9  C   UNL     1      -8.045   1.572 126.125  0.00  0.00    +0.000 A 
ATOM     10  C   UNL     1      -9.254   0.871 126.153  0.00  0.00    +0.000 A 
ATOM     11  C   UNL     1      -9.634   0.042 125.099  0.00  0.00    +0.000 A 
BRANCH   6  12
ATOM     12  C   UNL     1      -9.120  -1.153 122.905  0.00  0.00    +0.000 C 
BRANCH  12  13
ATOM     13  N   UNL     1      -9.464  -2.447 123.466  0.00  0.00    +0.000 NA
ATOM     14  H   UNL     1      -9.953  -2.299 124.345  0.00  0.00    +0.000 HD
BRANCH  13  15
ATOM     15  C   UNL     1      -8.295  -3.259 123.781  0.00  0.00    +0.000 C 
BRANCH  15  19
ATOM     16  C   UNL     1      -7.178  -2.472 127.886  0.00  0.00    +0.000 A 
ATOM     17  C   UNL     1      -8.419  -3.031 127.575  0.00  0.00    +0.000 A 
ATOM     18  C   UNL     1      -8.744  -3.357 126.254  0.00  0.00    +0.000 A 
ATOM     19  C   UNL     1      -7.859  -3.050 125.216  0.00  0.00    +0.000 A 
ATOM     20  C   UNL     1      -6.608  -2.501 125.548  0.00  0.00    +0.000 A 
ATOM     21  C   UNL     1      -6.266  -2.223 126.867  0.00  0.00    +0.000 A 
BRANCH  16  23
ATOM     22  C   UNL     1      -7.733  -3.035 130.107  0.00  0.00    +0.000 C 
ATOM     23  O   UNL     1      -6.909  -2.292 129.214  0.00  0.00    +0.000 OA
ENDBRANCH  16  23
ENDBRANCH  15  19
ENDBRANCH  13  15
ENDBRANCH  12  13
ENDBRANCH   6  12
ENDBRANCH   1   9
BRANCH   3  24
ATOM     24  C   UNL     1      -9.091   4.069 130.255  0.00  0.00    +0.000 C 
BRANCH  24  25
ATOM     25  N   UNL     1      -8.963   5.511 130.754  0.00  0.00    +0.000 NA
BRANCH  25  26
ATOM     26  C   UNL     1     -10.223   6.332 130.646  0.00  0.00    +0.000 C 
ATOM     27  C   UNL     1     -10.112   7.531 129.707  0.00  0.00    +0.000 C 
ATOM     28  C   UNL     1     -11.553   7.829 129.307  0.00  0.00    +0.000 C 
ATOM     29  C   UNL     1     -12.381   6.570 129.564  0.00  0.00    +0.000 C 
ATOM     30  C   UNL     1     -11.464   5.557 130.210  0.00  0.00    +0.000 C 
ENDBRANCH  25  26
BRANCH  25  31
ATOM     31  S   UNL     1      -8.327   5.484 132.364  0.00  0.00    +0.000 S 
ATOM     32  O   UNL     1      -9.130   6.400 133.139  0.00  0.00    +0.000 OA
ATOM     33  O   UNL     1      -8.201   4.095 132.780  0.00  0.00    +0.000 OA
BRANCH  31  34
ATOM     34  C   UNL     1      -6.669   6.155 132.277  0.00  0.00    +0.000 A 
ATOM     35  C   UNL     1      -6.221   6.817 131.133  0.00  0.00    +0.000 A 
ATOM     36  C   UNL     1      -4.860   7.151 131.017  0.00  0.00    +0.000 A 
ATOM     37  C   UNL     1      -3.961   6.899 132.064  0.00  0.00    +0.000 A 
ATOM     38  C   UNL     1      -4.423   6.240 133.203  0.00  0.00    +0.000 A 
ATOM     39  C   UNL     1      -5.766   5.861 133.307  0.00  0.00    +0.000 A 
BRANCH  37  40
ATOM     40  O   UNL     1      -2.677   7.337 131.873  0.00  0.00    +0.000 OA
ATOM     41  C   UNL     1      -1.867   6.572 130.982  0.00  0.00    +0.000 C 
ENDBRANCH  37  40
ENDBRANCH  31  34
ENDBRANCH  25  31
ENDBRANCH  24  25
ENDBRANCH   3  24
TORSDOF 12
ENDMDL
MODEL 5
REMARK VINA RESULT:      -7.9      3.050      6.048
REMARK  Name = CHEMBL1643591
REMARK  14 active torsions:
REMARK  status: ('A' for Active; 'I' for Inactive)
REMARK    1  A    between atoms: C_1  and  O_2
REMARK    2  A    between atoms: O_2  and  C_3
REMARK    3  A    between atoms: C_6  and  C_7
REMARK    4  A    between atoms: C_7  and  N_8
REMARK    5  A    between atoms: N_8  and  C_9
REMARK    6  A    between atoms: C_9  and  C_10
REMARK    7  A    between atoms: C_13  and  C_14
REMARK    8  A    between atoms: C_16  and  C_17
REMARK    9  A    between atoms: C_17  and  N_18
REMARK   10  A    between atoms: N_18  and  C_19
REMARK   11  A    between atoms: N_18  and  S_24
REMARK   12  A    between atoms: S_24  and  C_27
REMARK   13  A    between atoms: C_30  and  O_31
REMARK   14  A    between atoms: O_31  and  C_32
REMARK                            x       y       z     vdW  Elec       q    Type
REMARK                         _______ _______ _______ _____ _____    ______ ____
ROOT
ATOM      1  C   UNL     1      -7.365  -0.316 129.739  0.00  0.00    +0.000 A 
ATOM      2  N   UNL     1      -8.203  -0.662 128.787  0.00  0.00    +0.000 NA
ATOM      3  C   UNL     1      -7.659  -1.545 127.882  0.00  0.00    +0.000 A 
ATOM      4  C   UNL     1      -6.460  -2.074 128.325  0.00  0.00    +0.000 A 
ATOM      5  S   UNL     1      -5.944  -1.271 129.769  0.00  0.00    +0.000 S 
ENDROOT
BRANCH   1   9
ATOM      6  C   UNL     1      -8.480   2.454 132.849  0.00  0.00    +0.000 A 
ATOM      7  C   UNL     1      -7.204   2.536 132.276  0.00  0.00    +0.000 A 
ATOM      8  C   UNL     1      -6.835   1.693 131.213  0.00  0.00    +0.000 A 
ATOM      9  C   UNL     1      -7.697   0.674 130.777  0.00  0.00    +0.000 A 
ATOM     10  C   UNL     1      -8.978   0.615 131.335  0.00  0.00    +0.000 A 
ATOM     11  C   UNL     1      -9.360   1.478 132.360  0.00  0.00    +0.000 A 
BRANCH   6  12
ATOM     12  C   UNL     1      -8.927   3.503 133.849  0.00  0.00    +0.000 C 
BRANCH  12  13
ATOM     13  N   UNL     1      -9.814   4.481 133.246  0.00  0.00    +0.000 NA
ATOM     14  H   UNL     1     -10.214   4.078 132.402  0.00  0.00    +0.000 HD
BRANCH  13  15
ATOM     15  C   UNL     1      -9.124   5.696 132.831  0.00  0.00    +0.000 C 
BRANCH  15  19
ATOM     16  C   UNL     1     -11.404   7.561 129.662  0.00  0.00    +0.000 A 
ATOM     17  C   UNL     1     -12.039   7.031 130.787  0.00  0.00    +0.000 A 
ATOM     18  C   UNL     1     -11.293   6.501 131.844  0.00  0.00    +0.000 A 
ATOM     19  C   UNL     1      -9.901   6.420 131.751  0.00  0.00    +0.000 A 
ATOM     20  C   UNL     1      -9.276   6.971 130.619  0.00  0.00    +0.000 A 
ATOM     21  C   UNL     1     -10.016   7.544 129.590  0.00  0.00    +0.000 A 
BRANCH  16  23
ATOM     22  C   UNL     1     -12.901   9.319 129.183  0.00  0.00    +0.000 C 
ATOM     23  O   UNL     1     -12.212   8.157 128.734  0.00  0.00    +0.000 OA
ENDBRANCH  16  23
ENDBRANCH  15  19
ENDBRANCH  13  15
ENDBRANCH  12  13
ENDBRANCH   6  12
ENDBRANCH   1   9
BRANCH   3  24
ATOM     24  C   UNL     1      -8.326  -1.755 126.525  0.00  0.00    +0.000 C 
BRANCH  24  25
ATOM     25  N   UNL     1      -7.621  -1.062 125.355  0.00  0.00    +0.000 NA
BRANCH  25  26
ATOM     26  C   UNL     1      -6.935  -1.992 124.388  0.00  0.00    +0.000 C 
ATOM     27  C   UNL     1      -5.424  -1.792 124.291  0.00  0.00    +0.000 C 
ATOM     28  C   UNL     1      -4.901  -3.127 123.772  0.00  0.00    +0.000 C 
ATOM     29  C   UNL     1      -5.961  -4.189 124.061  0.00  0.00    +0.000 C 
ATOM     30  C   UNL     1      -7.156  -3.479 124.655  0.00  0.00    +0.000 C 
ENDBRANCH  25  26
BRANCH  25  31
ATOM     31  S   UNL     1      -8.754  -0.011 124.571  0.00  0.00    +0.000 S 
ATOM     32  O   UNL     1      -9.124  -0.657 123.334  0.00  0.00    +0.000 OA
ATOM     33  O   UNL     1      -9.780   0.353 125.538  0.00  0.00    +0.000 OA
BRANCH  31  34
ATOM     34  C   UNL     1      -7.869   1.489 124.158  0.00  0.00    +0.000 A 
ATOM     35  C   UNL     1      -8.118   2.165 122.962  0.00  0.00    +0.000 A 
ATOM     36  C   UNL     1      -7.270   3.217 122.575  0.00  0.00    +0.000 A 
ATOM     37  C   UNL     1      -6.226   3.649 123.405  0.00  0.00    +0.000 A 
ATOM     38  C   UNL     1      -5.990   2.968 124.598  0.00  0.00    +0.000 A 
ATOM     39  C   UNL     1      -6.799   1.888 124.970  0.00  0.00    +0.000 A 
BRANCH  37  40
ATOM     40  O   UNL     1      -5.515   4.733 122.963  0.00  0.00    +0.000 OA
ATOM     41  C   UNL     1      -4.847   4.590 121.709  0.00  0.00    +0.000 C 
ENDBRANCH  37  40
ENDBRANCH  31  34
ENDBRANCH  25  31
ENDBRANCH  24  25
ENDBRANCH   3  24
TORSDOF 12
ENDMDL
MODEL 6
REMARK VINA RESULT:      -7.8      3.752      8.938
REMARK  Name = CHEMBL1643591
REMARK  14 active torsions:
REMARK  status: ('A' for Active; 'I' for Inactive)
REMARK    1  A    between atoms: C_1  and  O_2
REMARK    2  A    between atoms: O_2  and  C_3
REMARK    3  A    between atoms: C_6  and  C_7
REMARK    4  A    between atoms: C_7  and  N_8
REMARK    5  A    between atoms: N_8  and  C_9
REMARK    6  A    between atoms: C_9  and  C_10
REMARK    7  A    between atoms: C_13  and  C_14
REMARK    8  A    between atoms: C_16  and  C_17
REMARK    9  A    between atoms: C_17  and  N_18
REMARK   10  A    between atoms: N_18  and  C_19
REMARK   11  A    between atoms: N_18  and  S_24
REMARK   12  A    between atoms: S_24  and  C_27
REMARK   13  A    between atoms: C_30  and  O_31
REMARK   14  A    between atoms: O_31  and  C_32
REMARK                            x       y       z     vdW  Elec       q    Type
REMARK                         _______ _______ _______ _____ _____    ______ ____
ROOT
ATOM      1  C   UNL     1      -6.870   3.346 127.249  0.00  0.00    +0.000 A 
ATOM      2  N   UNL     1      -7.333   3.907 128.344  0.00  0.00    +0.000 NA
ATOM      3  C   UNL     1      -6.342   4.272 129.226  0.00  0.00    +0.000 A 
ATOM      4  C   UNL     1      -5.085   4.217 128.650  0.00  0.00    +0.000 A 
ATOM      5  S   UNL     1      -5.172   3.490 127.081  0.00  0.00    +0.000 S 
ENDROOT
BRANCH   1   9
ATOM      6  C   UNL     1      -9.542   1.675 124.307  0.00  0.00    +0.000 A 
ATOM      7  C   UNL     1      -8.796   2.820 123.992  0.00  0.00    +0.000 A 
ATOM      8  C   UNL     1      -7.866   3.347 124.905  0.00  0.00    +0.000 A 
ATOM      9  C   UNL     1      -7.745   2.806 126.194  0.00  0.00    +0.000 A 
ATOM     10  C   UNL     1      -8.472   1.650 126.492  0.00  0.00    +0.000 A 
ATOM     11  C   UNL     1      -9.364   1.101 125.573  0.00  0.00    +0.000 A 
BRANCH   6  12
ATOM     12  C   UNL     1     -10.385   1.007 123.238  0.00  0.00    +0.000 C 
BRANCH  12  13
ATOM     13  N   UNL     1      -9.595   0.117 122.406  0.00  0.00    +0.000 NA
ATOM     14  H   UNL     1      -9.890   0.231 121.440  0.00  0.00    +0.000 HD
BRANCH  13  15
ATOM     15  C   UNL     1      -9.792  -1.290 122.731  0.00  0.00    +0.000 C 
BRANCH  15  19
ATOM     16  C   UNL     1      -6.104  -3.136 124.037  0.00  0.00    +0.000 A 
ATOM     17  C   UNL     1      -6.094  -1.922 123.347  0.00  0.00    +0.000 A 
ATOM     18  C   UNL     1      -7.291  -1.290 122.997  0.00  0.00    +0.000 A 
ATOM     19  C   UNL     1      -8.516  -1.909 123.262  0.00  0.00    +0.000 A 
ATOM     20  C   UNL     1      -8.510  -3.123 123.970  0.00  0.00    +0.000 A 
ATOM     21  C   UNL     1      -7.319  -3.727 124.363  0.00  0.00    +0.000 A 
BRANCH  16  23
ATOM     22  C   UNL     1      -4.361  -4.672 123.633  0.00  0.00    +0.000 C 
ATOM     23  O   UNL     1      -4.888  -3.618 124.433  0.00  0.00    +0.000 OA
ENDBRANCH  16  23
ENDBRANCH  15  19
ENDBRANCH  13  15
ENDBRANCH  12  13
ENDBRANCH   6  12
ENDBRANCH   1   9
BRANCH   3  24
ATOM     24  C   UNL     1      -6.688   4.572 130.683  0.00  0.00    +0.000 C 
BRANCH  24  25
ATOM     25  N   UNL     1      -8.188   4.587 130.990  0.00  0.00    +0.000 NA
BRANCH  25  26
ATOM     26  C   UNL     1      -8.670   3.446 131.850  0.00  0.00    +0.000 C 
ATOM     27  C   UNL     1      -9.917   2.742 131.319  0.00  0.00    +0.000 C 
ATOM     28  C   UNL     1      -9.866   1.358 131.956  0.00  0.00    +0.000 C 
ATOM     29  C   UNL     1      -8.426   1.095 132.391  0.00  0.00    +0.000 C 
ATOM     30  C   UNL     1      -7.637   2.353 132.111  0.00  0.00    +0.000 C 
ENDBRANCH  25  26
BRANCH  25  31
ATOM     31  S   UNL     1      -8.602   6.134 131.650  0.00  0.00    +0.000 S 
ATOM     32  O   UNL     1      -9.155   5.887 132.961  0.00  0.00    +0.000 OA
ATOM     33  O   UNL     1      -7.453   7.014 131.498  0.00  0.00    +0.000 OA
BRANCH  31  34
ATOM     34  C   UNL     1      -9.910   6.801 130.626  0.00  0.00    +0.000 A 
ATOM     35  C   UNL     1      -9.619   7.527 129.470  0.00  0.00    +0.000 A 
ATOM     36  C   UNL     1     -10.654   8.207 128.804  0.00  0.00    +0.000 A 
ATOM     37  C   UNL     1     -11.984   8.103 129.235  0.00  0.00    +0.000 A 
ATOM     38  C   UNL     1     -12.262   7.371 130.388  0.00  0.00    +0.000 A 
ATOM     39  C   UNL     1     -11.232   6.731 131.087  0.00  0.00    +0.000 A 
BRANCH  37  40
ATOM     40  O   UNL     1     -12.918   8.742 128.463  0.00  0.00    +0.000 OA
ATOM     41  C   UNL     1     -13.887   7.916 127.818  0.00  0.00    +0.000 C 
ENDBRANCH  37  40
ENDBRANCH  31  34
ENDBRANCH  25  31
ENDBRANCH  24  25
ENDBRANCH   3  24
TORSDOF 12
ENDMDL
MODEL 7
REMARK VINA RESULT:      -7.5      3.112      6.114
REMARK  Name = CHEMBL1643591
REMARK  14 active torsions:
REMARK  status: ('A' for Active; 'I' for Inactive)
REMARK    1  A    between atoms: C_1  and  O_2
REMARK    2  A    between atoms: O_2  and  C_3
REMARK    3  A    between atoms: C_6  and  C_7
REMARK    4  A    between atoms: C_7  and  N_8
REMARK    5  A    between atoms: N_8  and  C_9
REMARK    6  A    between atoms: C_9  and  C_10
REMARK    7  A    between atoms: C_13  and  C_14
REMARK    8  A    between atoms: C_16  and  C_17
REMARK    9  A    between atoms: C_17  and  N_18
REMARK   10  A    between atoms: N_18  and  C_19
REMARK   11  A    between atoms: N_18  and  S_24
REMARK   12  A    between atoms: S_24  and  C_27
REMARK   13  A    between atoms: C_30  and  O_31
REMARK   14  A    between atoms: O_31  and  C_32
REMARK                            x       y       z     vdW  Elec       q    Type
REMARK                         _______ _______ _______ _____ _____    ______ ____
ROOT
ATOM      1  C   UNL     1      -5.242   2.312 128.025  0.00  0.00    +0.000 A 
ATOM      2  N   UNL     1      -6.349   1.608 127.931  0.00  0.00    +0.000 NA
ATOM      3  C   UNL     1      -6.613   1.185 126.648  0.00  0.00    +0.000 A 
ATOM      4  C   UNL     1      -5.529   1.360 125.807  0.00  0.00    +0.000 A 
ATOM      5  S   UNL     1      -4.285   2.261 126.606  0.00  0.00    +0.000 S 
ENDROOT
BRANCH   1   9
ATOM      6  C   UNL     1      -4.013   3.977 131.807  0.00  0.00    +0.000 A 
ATOM      7  C   UNL     1      -3.325   4.333 130.639  0.00  0.00    +0.000 A 
ATOM      8  C   UNL     1      -3.745   3.862 129.383  0.00  0.00    +0.000 A 
ATOM      9  C   UNL     1      -4.793   2.934 129.282  0.00  0.00    +0.000 A 
ATOM     10  C   UNL     1      -5.492   2.603 130.448  0.00  0.00    +0.000 A 
ATOM     11  C   UNL     1      -5.103   3.103 131.690  0.00  0.00    +0.000 A 
BRANCH   6  12
ATOM     12  C   UNL     1      -3.672   4.655 133.120  0.00  0.00    +0.000 C 
BRANCH  12  13
ATOM     13  N   UNL     1      -4.364   5.923 133.269  0.00  0.00    +0.000 NA
ATOM     14  H   UNL     1      -3.726   6.591 133.692  0.00  0.00    +0.000 HD
BRANCH  13  15
ATOM     15  C   UNL     1      -5.517   5.841 134.156  0.00  0.00    +0.000 C 
BRANCH  15  19
ATOM     16  C   UNL     1      -9.239   5.824 131.950  0.00  0.00    +0.000 A 
ATOM     17  C   UNL     1      -8.090   6.409 131.414  0.00  0.00    +0.000 A 
ATOM     18  C   UNL     1      -6.871   6.342 132.095  0.00  0.00    +0.000 A 
ATOM     19  C   UNL     1      -6.806   5.758 133.364  0.00  0.00    +0.000 A 
ATOM     20  C   UNL     1      -7.968   5.161 133.883  0.00  0.00    +0.000 A 
ATOM     21  C   UNL     1      -9.169   5.184 133.182  0.00  0.00    +0.000 A 
BRANCH  16  23
ATOM     22  C   UNL     1     -11.481   6.515 131.714  0.00  0.00    +0.000 C 
ATOM     23  O   UNL     1     -10.354   5.844 131.160  0.00  0.00    +0.000 OA
ENDBRANCH  16  23
ENDBRANCH  15  19
ENDBRANCH  13  15
ENDBRANCH  12  13
ENDBRANCH   6  12
ENDBRANCH   1   9
BRANCH   3  24
ATOM     24  C   UNL     1      -8.014   0.702 126.278  0.00  0.00    +0.000 C 
BRANCH  24  25
ATOM     25  N   UNL     1      -8.267   0.579 124.772  0.00  0.00    +0.000 NA
BRANCH  25  26
ATOM     26  C   UNL     1      -8.961  -0.690 124.348  0.00  0.00    +0.000 C 
ATOM     27  C   UNL     1      -8.364  -1.346 123.105  0.00  0.00    +0.000 C 
ATOM     28  C   UNL     1      -8.788  -2.807 123.212  0.00  0.00    +0.000 C 
ATOM     29  C   UNL     1      -9.141  -3.087 124.672  0.00  0.00    +0.000 C 
ATOM     30  C   UNL     1      -9.030  -1.777 125.418  0.00  0.00    +0.000 C 
ENDBRANCH  25  26
BRANCH  25  31
ATOM     31  S   UNL     1      -9.099   2.000 124.234  0.00  0.00    +0.000 S 
ATOM     32  O   UNL     1     -10.401   1.568 123.784  0.00  0.00    +0.000 OA
ATOM     33  O   UNL     1      -8.986   3.013 125.272  0.00  0.00    +0.000 OA
BRANCH  31  34
ATOM     34  C   UNL     1      -8.207   2.612 122.807  0.00  0.00    +0.000 A 
ATOM     35  C   UNL     1      -6.818   2.745 122.830  0.00  0.00    +0.000 A 
ATOM     36  C   UNL     1      -6.171   3.415 121.777  0.00  0.00    +0.000 A 
ATOM     37  C   UNL     1      -6.890   3.884 120.667  0.00  0.00    +0.000 A 
ATOM     38  C   UNL     1      -8.277   3.743 120.656  0.00  0.00    +0.000 A 
ATOM     39  C   UNL     1      -8.935   3.120 121.722  0.00  0.00    +0.000 A 
BRANCH  37  40
ATOM     40  O   UNL     1      -6.147   4.451 119.665  0.00  0.00    +0.000 OA
ATOM     41  C   UNL     1      -5.125   5.363 120.065  0.00  0.00    +0.000 C 
ENDBRANCH  37  40
ENDBRANCH  31  34
ENDBRANCH  25  31
ENDBRANCH  24  25
ENDBRANCH   3  24
TORSDOF 12
ENDMDL
MODEL 8
REMARK VINA RESULT:      -7.5      3.089      5.727
REMARK  Name = CHEMBL1643591
REMARK  14 active torsions:
REMARK  status: ('A' for Active; 'I' for Inactive)
REMARK    1  A    between atoms: C_1  and  O_2
REMARK    2  A    between atoms: O_2  and  C_3
REMARK    3  A    between atoms: C_6  and  C_7
REMARK    4  A    between atoms: C_7  and  N_8
REMARK    5  A    between atoms: N_8  and  C_9
REMARK    6  A    between atoms: C_9  and  C_10
REMARK    7  A    between atoms: C_13  and  C_14
REMARK    8  A    between atoms: C_16  and  C_17
REMARK    9  A    between atoms: C_17  and  N_18
REMARK   10  A    between atoms: N_18  and  C_19
REMARK   11  A    between atoms: N_18  and  S_24
REMARK   12  A    between atoms: S_24  and  C_27
REMARK   13  A    between atoms: C_30  and  O_31
REMARK   14  A    between atoms: O_31  and  C_32
REMARK                            x       y       z     vdW  Elec       q    Type
REMARK                         _______ _______ _______ _____ _____    ______ ____
ROOT
ATOM      1  C   UNL     1      -6.329   2.531 128.363  0.00  0.00    +0.000 A 
ATOM      2  N   UNL     1      -6.471   1.457 127.616  0.00  0.00    +0.000 NA
ATOM      3  C   UNL     1      -5.768   1.523 126.435  0.00  0.00    +0.000 A 
ATOM      4  C   UNL     1      -4.865   2.571 126.422  0.00  0.00    +0.000 A 
ATOM      5  S   UNL     1      -5.090   3.577 127.813  0.00  0.00    +0.000 S 
ENDROOT
BRANCH   1   9
ATOM      6  C   UNL     1      -8.267   3.205 132.155  0.00  0.00    +0.000 A 
ATOM      7  C   UNL     1      -9.036   2.839 131.041  0.00  0.00    +0.000 A 
ATOM      8  C   UNL     1      -8.425   2.545 129.809  0.00  0.00    +0.000 A 
ATOM      9  C   UNL     1      -7.043   2.721 129.636  0.00  0.00    +0.000 A 
ATOM     10  C   UNL     1      -6.279   3.060 130.757  0.00  0.00    +0.000 A 
ATOM     11  C   UNL     1      -6.878   3.311 131.991  0.00  0.00    +0.000 A 
BRANCH   6  12
ATOM     12  C   UNL     1      -8.920   3.317 133.518  0.00  0.00    +0.000 C 
BRANCH  12  13
ATOM     13  N   UNL     1      -9.873   4.411 133.571  0.00  0.00    +0.000 NA
ATOM     14  H   UNL     1     -10.597   4.243 132.878  0.00  0.00    +0.000 HD
BRANCH  13  15
ATOM     15  C   UNL     1      -9.279   5.700 133.238  0.00  0.00    +0.000 C 
BRANCH  15  19
ATOM     16  C   UNL     1     -11.312   7.266 129.755  0.00  0.00    +0.000 A 
ATOM     17  C   UNL     1     -12.025   6.908 130.902  0.00  0.00    +0.000 A 
ATOM     18  C   UNL     1     -11.356   6.478 132.052  0.00  0.00    +0.000 A 
ATOM     19  C   UNL     1      -9.967   6.322 132.040  0.00  0.00    +0.000 A 
ATOM     20  C   UNL     1      -9.264   6.700 130.884  0.00  0.00    +0.000 A 
ATOM     21  C   UNL     1      -9.926   7.176 129.756  0.00  0.00    +0.000 A 
BRANCH  16  23
ATOM     22  C   UNL     1     -13.075   6.931 128.225  0.00  0.00    +0.000 C 
ATOM     23  O   UNL     1     -12.045   7.780 128.722  0.00  0.00    +0.000 OA
ENDBRANCH  16  23
ENDBRANCH  15  19
ENDBRANCH  13  15
ENDBRANCH  12  13
ENDBRANCH   6  12
ENDBRANCH   1   9
BRANCH   3  24
ATOM     24  C   UNL     1      -6.109   0.571 125.290  0.00  0.00    +0.000 C 
BRANCH  24  25
ATOM     25  N   UNL     1      -7.421  -0.198 125.472  0.00  0.00    +0.000 NA
BRANCH  25  26
ATOM     26  C   UNL     1      -8.499   0.146 124.477  0.00  0.00    +0.000 C 
ATOM     27  C   UNL     1      -9.778   0.700 125.103  0.00  0.00    +0.000 C 
ATOM     28  C   UNL     1     -10.436   1.489 123.977  0.00  0.00    +0.000 C 
ATOM     29  C   UNL     1      -9.360   1.816 122.942  0.00  0.00    +0.000 C 
ATOM     30  C   UNL     1      -8.086   1.139 123.393  0.00  0.00    +0.000 C 
ENDBRANCH  25  26
BRANCH  25  31
ATOM     31  S   UNL     1      -7.067  -1.894 125.504  0.00  0.00    +0.000 S 
ATOM     32  O   UNL     1      -8.221  -2.565 124.952  0.00  0.00    +0.000 OA
ATOM     33  O   UNL     1      -5.754  -2.095 124.909  0.00  0.00    +0.000 OA
BRANCH  31  34
ATOM     34  C   UNL     1      -6.938  -2.363 127.227  0.00  0.00    +0.000 A 
ATOM     35  C   UNL     1      -5.716  -2.306 127.898  0.00  0.00    +0.000 A 
ATOM     36  C   UNL     1      -5.606  -2.871 129.181  0.00  0.00    +0.000 A 
ATOM     37  C   UNL     1      -6.722  -3.419 129.829  0.00  0.00    +0.000 A 
ATOM     38  C   UNL     1      -7.939  -3.466 129.149  0.00  0.00    +0.000 A 
ATOM     39  C   UNL     1      -8.046  -2.951 127.852  0.00  0.00    +0.000 A 
BRANCH  37  40
ATOM     40  O   UNL     1      -6.516  -3.868 131.107  0.00  0.00    +0.000 OA
ATOM     41  C   UNL     1      -5.378  -4.703 131.315  0.00  0.00    +0.000 C 
ENDBRANCH  37  40
ENDBRANCH  31  34
ENDBRANCH  25  31
ENDBRANCH  24  25
ENDBRANCH   3  24
TORSDOF 12
ENDMDL
MODEL 9
REMARK VINA RESULT:      -7.5      3.141      8.178
REMARK  Name = CHEMBL1643591
REMARK  14 active torsions:
REMARK  status: ('A' for Active; 'I' for Inactive)
REMARK    1  A    between atoms: C_1  and  O_2
REMARK    2  A    between atoms: O_2  and  C_3
REMARK    3  A    between atoms: C_6  and  C_7
REMARK    4  A    between atoms: C_7  and  N_8
REMARK    5  A    between atoms: N_8  and  C_9
REMARK    6  A    between atoms: C_9  and  C_10
REMARK    7  A    between atoms: C_13  and  C_14
REMARK    8  A    between atoms: C_16  and  C_17
REMARK    9  A    between atoms: C_17  and  N_18
REMARK   10  A    between atoms: N_18  and  C_19
REMARK   11  A    between atoms: N_18  and  S_24
REMARK   12  A    between atoms: S_24  and  C_27
REMARK   13  A    between atoms: C_30  and  O_31
REMARK   14  A    between atoms: O_31  and  C_32
REMARK                            x       y       z     vdW  Elec       q    Type
REMARK                         _______ _______ _______ _____ _____    ______ ____
ROOT
ATOM      1  C   UNL     1      -7.221  -0.828 129.852  0.00  0.00    +0.000 A 
ATOM      2  N   UNL     1      -6.861   0.437 129.884  0.00  0.00    +0.000 NA
ATOM      3  C   UNL     1      -6.788   0.947 131.160  0.00  0.00    +0.000 A 
ATOM      4  C   UNL     1      -6.843  -0.045 132.123  0.00  0.00    +0.000 A 
ATOM      5  S   UNL     1      -7.212  -1.572 131.395  0.00  0.00    +0.000 S 
ENDROOT
BRANCH   1   9
ATOM      6  C   UNL     1      -8.038  -3.055 126.253  0.00  0.00    +0.000 A 
ATOM      7  C   UNL     1      -7.135  -1.984 126.213  0.00  0.00    +0.000 A 
ATOM      8  C   UNL     1      -6.796  -1.283 127.383  0.00  0.00    +0.000 A 
ATOM      9  C   UNL     1      -7.439  -1.567 128.598  0.00  0.00    +0.000 A 
ATOM     10  C   UNL     1      -8.319  -2.653 128.637  0.00  0.00    +0.000 A 
ATOM     11  C   UNL     1      -8.626  -3.376 127.485  0.00  0.00    +0.000 A 
BRANCH   6  12
ATOM     12  C   UNL     1      -8.234  -3.924 125.026  0.00  0.00    +0.000 C 
BRANCH  12  13
ATOM     13  N   UNL     1      -7.829  -3.240 123.810  0.00  0.00    +0.000 NA
ATOM     14  H   UNL     1      -7.273  -2.429 124.066  0.00  0.00    +0.000 HD
BRANCH  13  15
ATOM     15  C   UNL     1      -8.959  -2.734 123.040  0.00  0.00    +0.000 C 
BRANCH  15  19
ATOM     16  C   UNL     1      -8.940   1.592 123.110  0.00  0.00    +0.000 A 
ATOM     17  C   UNL     1      -7.802   0.864 123.466  0.00  0.00    +0.000 A 
ATOM     18  C   UNL     1      -7.788  -0.531 123.365  0.00  0.00    +0.000 A 
ATOM     19  C   UNL     1      -8.944  -1.220 122.985  0.00  0.00    +0.000 A 
ATOM     20  C   UNL     1     -10.075  -0.472 122.616  0.00  0.00    +0.000 A 
ATOM     21  C   UNL     1     -10.072   0.919 122.669  0.00  0.00    +0.000 A 
BRANCH  16  23
ATOM     22  C   UNL     1      -7.742   3.456 123.919  0.00  0.00    +0.000 C 
ATOM     23  O   UNL     1      -8.820   2.954 123.135  0.00  0.00    +0.000 OA
ENDBRANCH  16  23
ENDBRANCH  15  19
ENDBRANCH  13  15
ENDBRANCH  12  13
ENDBRANCH   6  12
ENDBRANCH   1   9
BRANCH   3  24
ATOM     24  C   UNL     1      -6.769   2.459 131.377  0.00  0.00    +0.000 C 
BRANCH  24  25
ATOM     25  N   UNL     1      -8.153   3.109 131.448  0.00  0.00    +0.000 NA
BRANCH  25  26
ATOM     26  C   UNL     1      -8.304   4.164 132.514  0.00  0.00    +0.000 C 
ATOM     27  C   UNL     1      -8.740   3.623 133.875  0.00  0.00    +0.000 C 
ATOM     28  C   UNL     1      -8.269   4.681 134.867  0.00  0.00    +0.000 C 
ATOM     29  C   UNL     1      -7.173   5.503 134.191  0.00  0.00    +0.000 C 
ATOM     30  C   UNL     1      -7.058   5.010 132.767  0.00  0.00    +0.000 C 
ENDBRANCH  25  26
BRANCH  25  31
ATOM     31  S   UNL     1      -8.569   3.697 129.872  0.00  0.00    +0.000 S 
ATOM     32  O   UNL     1      -7.353   4.224 129.297  0.00  0.00    +0.000 OA
ATOM     33  O   UNL     1      -9.310   2.654 129.179  0.00  0.00    +0.000 OA
BRANCH  31  34
ATOM     34  C   UNL     1      -9.695   5.068 130.112  0.00  0.00    +0.000 A 
ATOM     35  C   UNL     1     -11.037   4.850 130.428  0.00  0.00    +0.000 A 
ATOM     36  C   UNL     1     -11.935   5.931 130.409  0.00  0.00    +0.000 A 
ATOM     37  C   UNL     1     -11.492   7.236 130.153  0.00  0.00    +0.000 A 
ATOM     38  C   UNL     1     -10.149   7.441 129.842  0.00  0.00    +0.000 A 
ATOM     39  C   UNL     1      -9.256   6.364 129.811  0.00  0.00    +0.000 A 
BRANCH  37  40
ATOM     40  O   UNL     1     -12.441   8.221 130.238  0.00  0.00    +0.000 OA
ATOM     41  C   UNL     1     -12.583   9.071 129.100  0.00  0.00    +0.000 C 
ENDBRANCH  37  40
ENDBRANCH  31  34
ENDBRANCH  25  31
ENDBRANCH  24  25
ENDBRANCH   3  24
TORSDOF 12
ENDMDL
