MODEL 1
REMARK VINA RESULT:      -7.7      0.000      0.000
REMARK  Name = CHEMBL1254025
REMARK  7 active torsions:
REMARK  status: ('A' for Active; 'I' for Inactive)
REMARK    1  A    between atoms: C_1  and  O_2
REMARK    2  A    between atoms: O_2  and  N_3
REMARK    3  A    between atoms: C_6  and  C_7
REMARK    4  A    between atoms: C_7  and  O_8
REMARK    5  A    between atoms: C_10  and  C_12
REMARK    6  A    between atoms: C_15  and  C_16
REMARK    7  A    between atoms: C_21  and  C_22
REMARK                            x       y       z     vdW  Elec       q    Type
REMARK                         _______ _______ _______ _____ _____    ______ ____
ROOT
ATOM      1  N   UNL     1      -5.224  -2.872 122.851  0.00  0.00    +0.000 NA
ATOM      2  C   UNL     1      -6.242  -2.348 123.475  0.00  0.00    +0.000 C 
ATOM      3  C   UNL     1      -7.357  -1.675 122.734  0.00  0.00    +0.000 C 
ATOM      4  C   UNL     1      -7.755  -0.602 123.761  0.00  0.00    +0.000 C 
ATOM      5  N   UNL     1      -7.517  -1.264 125.070  0.00  0.00    +0.000 N 
ATOM      6  C   UNL     1      -8.060  -0.793 126.262  0.00  0.00    +0.000 C 
ATOM      7  O   UNL     1      -8.827   0.173 126.342  0.00  0.00    +0.000 OA
ATOM      8  C   UNL     1      -6.516  -2.342 124.963  0.00  0.00    +0.000 C 
ENDROOT
BRANCH   6   9
ATOM      9  C   UNL     1      -7.745  -1.457 127.542  0.00  0.00    +0.000 A 
ATOM     10  C   UNL     1      -8.322  -2.692 127.868  0.00  0.00    +0.000 A 
ATOM     11  C   UNL     1      -8.120  -3.240 129.143  0.00  0.00    +0.000 A 
ATOM     12  C   UNL     1      -7.284  -2.603 130.077  0.00  0.00    +0.000 A 
ATOM     13  C   UNL     1      -6.740  -1.356 129.730  0.00  0.00    +0.000 A 
ATOM     14  C   UNL     1      -7.006  -0.766 128.496  0.00  0.00    +0.000 A 
BRANCH  12  15
ATOM     15  C   UNL     1      -7.002  -3.231 131.382  0.00  0.00    +0.000 A 
ATOM     16  C   UNL     1      -7.773  -2.860 132.502  0.00  0.00    +0.000 A 
ATOM     17  C   UNL     1      -7.479  -3.341 133.779  0.00  0.00    +0.000 A 
ATOM     18  C   UNL     1      -6.451  -4.259 133.953  0.00  0.00    +0.000 A 
ATOM     19  C   UNL     1      -5.700  -4.674 132.855  0.00  0.00    +0.000 A 
ATOM     20  C   UNL     1      -5.962  -4.169 131.569  0.00  0.00    +0.000 A 
ATOM     21  C   UNL     1      -5.118  -4.649 130.419  0.00  0.00    +0.000 C 
ENDBRANCH  12  15
ENDBRANCH   6   9
BRANCH   1  23
ATOM     22  C   UNL     1      -4.230  -4.861 123.531  0.00  0.00    +0.000 C 
ATOM     23  O   UNL     1      -4.304  -3.447 123.750  0.00  0.00    +0.000 OA
ENDBRANCH   1  23
BRANCH   4  24
ATOM     24  C   UNL     1      -9.191  -0.093 123.515  0.00  0.00    +0.000 C 
BRANCH  24  25
ATOM     25  O   UNL     1      -9.993  -1.106 122.913  0.00  0.00    +0.000 OA
ATOM     26  H   UNL     1     -10.183  -1.748 123.620  0.00  0.00    +0.000 HD
ENDBRANCH  24  25
ENDBRANCH   4  24
TORSDOF 5
ENDMDL
MODEL 2
REMARK VINA RESULT:      -7.5      3.946      8.499
REMARK  Name = CHEMBL1254025
REMARK  7 active torsions:
REMARK  status: ('A' for Active; 'I' for Inactive)
REMARK    1  A    between atoms: C_1  and  O_2
REMARK    2  A    between atoms: O_2  and  N_3
REMARK    3  A    between atoms: C_6  and  C_7
REMARK    4  A    between atoms: C_7  and  O_8
REMARK    5  A    between atoms: C_10  and  C_12
REMARK    6  A    between atoms: C_15  and  C_16
REMARK    7  A    between atoms: C_21  and  C_22
REMARK                            x       y       z     vdW  Elec       q    Type
REMARK                         _______ _______ _______ _____ _____    ______ ____
ROOT
ATOM      1  N   UNL     1      -6.855   0.110 133.772  0.00  0.00    +0.000 NA
ATOM      2  C   UNL     1      -6.844  -1.095 133.277  0.00  0.00    +0.000 C 
ATOM      3  C   UNL     1      -6.656  -2.301 134.146  0.00  0.00    +0.000 C 
ATOM      4  C   UNL     1      -5.911  -3.226 133.169  0.00  0.00    +0.000 C 
ATOM      5  N   UNL     1      -6.490  -2.876 131.845  0.00  0.00    +0.000 N 
ATOM      6  C   UNL     1      -6.362  -3.695 130.726  0.00  0.00    +0.000 C 
ATOM      7  O   UNL     1      -5.811  -4.802 130.736  0.00  0.00    +0.000 OA
ATOM      8  C   UNL     1      -7.042  -1.508 131.835  0.00  0.00    +0.000 C 
ENDROOT
BRANCH   6   9
ATOM      9  C   UNL     1      -6.908  -3.272 129.422  0.00  0.00    +0.000 A 
ATOM     10  C   UNL     1      -8.200  -3.650 129.031  0.00  0.00    +0.000 A 
ATOM     11  C   UNL     1      -8.649  -3.356 127.736  0.00  0.00    +0.000 A 
ATOM     12  C   UNL     1      -7.848  -2.620 126.845  0.00  0.00    +0.000 A 
ATOM     13  C   UNL     1      -6.552  -2.277 127.257  0.00  0.00    +0.000 A 
ATOM     14  C   UNL     1      -6.068  -2.640 128.512  0.00  0.00    +0.000 A 
BRANCH  12  15
ATOM     15  C   UNL     1      -8.363  -2.235 125.517  0.00  0.00    +0.000 A 
ATOM     16  C   UNL     1      -8.474  -3.218 124.513  0.00  0.00    +0.000 A 
ATOM     17  C   UNL     1      -8.851  -2.889 123.210  0.00  0.00    +0.000 A 
ATOM     18  C   UNL     1      -9.196  -1.579 122.900  0.00  0.00    +0.000 A 
ATOM     19  C   UNL     1      -9.135  -0.596 123.885  0.00  0.00    +0.000 A 
ATOM     20  C   UNL     1      -8.721  -0.907 125.192  0.00  0.00    +0.000 A 
ATOM     21  C   UNL     1      -8.671   0.194 126.216  0.00  0.00    +0.000 C 
ENDBRANCH  12  15
ENDBRANCH   6   9
BRANCH   1  23
ATOM     22  C   UNL     1      -7.544   2.292 133.354  0.00  0.00    +0.000 C 
ATOM     23  O   UNL     1      -7.045   1.082 132.770  0.00  0.00    +0.000 OA
ENDBRANCH   1  23
BRANCH   4  24
ATOM     24  C   UNL     1      -6.035  -4.705 133.588  0.00  0.00    +0.000 C 
BRANCH  24  25
ATOM     25  O   UNL     1      -4.792  -5.384 133.429  0.00  0.00    +0.000 OA
ATOM     26  H   UNL     1      -4.639  -5.857 134.266  0.00  0.00    +0.000 HD
ENDBRANCH  24  25
ENDBRANCH   4  24
TORSDOF 5
ENDMDL
MODEL 3
REMARK VINA RESULT:      -7.4      2.098      3.785
REMARK  Name = CHEMBL1254025
REMARK  7 active torsions:
REMARK  status: ('A' for Active; 'I' for Inactive)
REMARK    1  A    between atoms: C_1  and  O_2
REMARK    2  A    between atoms: O_2  and  N_3
REMARK    3  A    between atoms: C_6  and  C_7
REMARK    4  A    between atoms: C_7  and  O_8
REMARK    5  A    between atoms: C_10  and  C_12
REMARK    6  A    between atoms: C_15  and  C_16
REMARK    7  A    between atoms: C_21  and  C_22
REMARK                            x       y       z     vdW  Elec       q    Type
REMARK                         _______ _______ _______ _____ _____    ______ ____
ROOT
ATOM      1  N   UNL     1      -8.703   2.650 125.150  0.00  0.00    +0.000 NA
ATOM      2  C   UNL     1      -8.497   1.390 124.891  0.00  0.00    +0.000 C 
ATOM      3  C   UNL     1      -8.502   0.865 123.487  0.00  0.00    +0.000 C 
ATOM      4  C   UNL     1      -9.053  -0.550 123.729  0.00  0.00    +0.000 C 
ATOM      5  N   UNL     1      -8.506  -0.916 125.062  0.00  0.00    +0.000 N 
ATOM      6  C   UNL     1      -8.464  -2.228 125.524  0.00  0.00    +0.000 C 
ATOM      7  O   UNL     1      -8.819  -3.210 124.862  0.00  0.00    +0.000 OA
ATOM      8  C   UNL     1      -8.193   0.277 125.870  0.00  0.00    +0.000 C 
ENDROOT
BRANCH   6   9
ATOM      9  C   UNL     1      -7.962  -2.529 126.880  0.00  0.00    +0.000 A 
ATOM     10  C   UNL     1      -6.665  -2.160 127.261  0.00  0.00    +0.000 A 
ATOM     11  C   UNL     1      -6.159  -2.574 128.500  0.00  0.00    +0.000 A 
ATOM     12  C   UNL     1      -6.962  -3.294 129.403  0.00  0.00    +0.000 A 
ATOM     13  C   UNL     1      -8.247  -3.669 128.983  0.00  0.00    +0.000 A 
ATOM     14  C   UNL     1      -8.725  -3.333 127.719  0.00  0.00    +0.000 A 
BRANCH  12  15
ATOM     15  C   UNL     1      -6.454  -3.646 130.742  0.00  0.00    +0.000 A 
ATOM     16  C   UNL     1      -5.642  -4.789 130.889  0.00  0.00    +0.000 A 
ATOM     17  C   UNL     1      -5.225  -5.229 132.146  0.00  0.00    +0.000 A 
ATOM     18  C   UNL     1      -5.551  -4.495 133.279  0.00  0.00    +0.000 A 
ATOM     19  C   UNL     1      -6.317  -3.337 133.157  0.00  0.00    +0.000 A 
ATOM     20  C   UNL     1      -6.775  -2.904 131.901  0.00  0.00    +0.000 A 
ATOM     21  C   UNL     1      -7.602  -1.648 131.827  0.00  0.00    +0.000 C 
ENDBRANCH  12  15
ENDBRANCH   6   9
BRANCH   1  23
ATOM     22  C   UNL     1      -7.601   3.842 126.816  0.00  0.00    +0.000 C 
ATOM     23  O   UNL     1      -8.653   2.910 126.534  0.00  0.00    +0.000 OA
ENDBRANCH   1  23
BRANCH   4  24
ATOM     24  C   UNL     1      -8.691  -1.501 122.569  0.00  0.00    +0.000 C 
BRANCH  24  25
ATOM     25  O   UNL     1      -7.292  -1.773 122.553  0.00  0.00    +0.000 OA
ATOM     26  H   UNL     1      -7.074  -2.094 123.446  0.00  0.00    +0.000 HD
ENDBRANCH  24  25
ENDBRANCH   4  24
TORSDOF 5
ENDMDL
MODEL 4
REMARK VINA RESULT:      -7.3      8.135     10.784
REMARK  Name = CHEMBL1254025
REMARK  7 active torsions:
REMARK  status: ('A' for Active; 'I' for Inactive)
REMARK    1  A    between atoms: C_1  and  O_2
REMARK    2  A    between atoms: O_2  and  N_3
REMARK    3  A    between atoms: C_6  and  C_7
REMARK    4  A    between atoms: C_7  and  O_8
REMARK    5  A    between atoms: C_10  and  C_12
REMARK    6  A    between atoms: C_15  and  C_16
REMARK    7  A    between atoms: C_21  and  C_22
REMARK                            x       y       z     vdW  Elec       q    Type
REMARK                         _______ _______ _______ _____ _____    ______ ____
ROOT
ATOM      1  N   UNL     1      -2.502   5.067 128.491  0.00  0.00    +0.000 NA
ATOM      2  C   UNL     1      -3.141   5.118 129.625  0.00  0.00    +0.000 C 
ATOM      3  C   UNL     1      -2.426   4.994 130.937  0.00  0.00    +0.000 C 
ATOM      4  C   UNL     1      -3.512   4.297 131.773  0.00  0.00    +0.000 C 
ATOM      5  N   UNL     1      -4.780   4.855 131.234  0.00  0.00    +0.000 N 
ATOM      6  C   UNL     1      -5.991   4.769 131.916  0.00  0.00    +0.000 C 
ATOM      7  O   UNL     1      -6.120   4.277 133.043  0.00  0.00    +0.000 OA
ATOM      8  C   UNL     1      -4.621   5.335 129.849  0.00  0.00    +0.000 C 
ENDROOT
BRANCH   6   9
ATOM      9  C   UNL     1      -7.232   5.290 131.310  0.00  0.00    +0.000 A 
ATOM     10  C   UNL     1      -8.081   4.447 130.581  0.00  0.00    +0.000 A 
ATOM     11  C   UNL     1      -9.179   4.987 129.898  0.00  0.00    +0.000 A 
ATOM     12  C   UNL     1      -9.486   6.356 129.994  0.00  0.00    +0.000 A 
ATOM     13  C   UNL     1      -8.604   7.178 130.711  0.00  0.00    +0.000 A 
ATOM     14  C   UNL     1      -7.463   6.661 131.322  0.00  0.00    +0.000 A 
BRANCH  12  15
ATOM     15  C   UNL     1     -10.696   6.901 129.348  0.00  0.00    +0.000 A 
ATOM     16  C   UNL     1     -10.637   7.281 127.992  0.00  0.00    +0.000 A 
ATOM     17  C   UNL     1     -11.717   7.902 127.363  0.00  0.00    +0.000 A 
ATOM     18  C   UNL     1     -12.906   8.091 128.056  0.00  0.00    +0.000 A 
ATOM     19  C   UNL     1     -13.004   7.685 129.385  0.00  0.00    +0.000 A 
ATOM     20  C   UNL     1     -11.912   7.093 130.042  0.00  0.00    +0.000 A 
ATOM     21  C   UNL     1     -12.071   6.677 131.480  0.00  0.00    +0.000 C 
ENDBRANCH  12  15
ENDBRANCH   6   9
BRANCH   1  23
ATOM     22  C   UNL     1      -3.373   4.002 126.616  0.00  0.00    +0.000 C 
ATOM     23  O   UNL     1      -3.377   5.205 127.396  0.00  0.00    +0.000 OA
ENDBRANCH   1  23
BRANCH   4  24
ATOM     24  C   UNL     1      -3.276   4.499 133.284  0.00  0.00    +0.000 C 
BRANCH  24  25
ATOM     25  O   UNL     1      -3.481   3.282 133.997  0.00  0.00    +0.000 OA
ATOM     26  H   UNL     1      -3.434   2.573 133.330  0.00  0.00    +0.000 HD
ENDBRANCH  24  25
ENDBRANCH   4  24
TORSDOF 5
ENDMDL
MODEL 5
REMARK VINA RESULT:      -7.2      5.254      7.302
REMARK  Name = CHEMBL1254025
REMARK  7 active torsions:
REMARK  status: ('A' for Active; 'I' for Inactive)
REMARK    1  A    between atoms: C_1  and  O_2
REMARK    2  A    between atoms: O_2  and  N_3
REMARK    3  A    between atoms: C_6  and  C_7
REMARK    4  A    between atoms: C_7  and  O_8
REMARK    5  A    between atoms: C_10  and  C_12
REMARK    6  A    between atoms: C_15  and  C_16
REMARK    7  A    between atoms: C_21  and  C_22
REMARK                            x       y       z     vdW  Elec       q    Type
REMARK                         _______ _______ _______ _____ _____    ______ ____
ROOT
ATOM      1  N   UNL     1      -8.972   5.572 127.899  0.00  0.00    +0.000 NA
ATOM      2  C   UNL     1      -9.214   5.166 129.113  0.00  0.00    +0.000 C 
ATOM      3  C   UNL     1     -10.015   5.991 130.073  0.00  0.00    +0.000 C 
ATOM      4  C   UNL     1      -9.343   5.594 131.399  0.00  0.00    +0.000 C 
ATOM      5  N   UNL     1      -8.964   4.173 131.186  0.00  0.00    +0.000 N 
ATOM      6  C   UNL     1      -8.642   3.314 132.234  0.00  0.00    +0.000 C 
ATOM      7  O   UNL     1      -8.692   3.627 133.429  0.00  0.00    +0.000 OA
ATOM      8  C   UNL     1      -8.806   3.858 129.754  0.00  0.00    +0.000 C 
ENDROOT
BRANCH   6   9
ATOM      9  C   UNL     1      -8.217   1.927 131.962  0.00  0.00    +0.000 A 
ATOM     10  C   UNL     1      -9.151   0.882 131.953  0.00  0.00    +0.000 A 
ATOM     11  C   UNL     1      -8.711  -0.443 131.830  0.00  0.00    +0.000 A 
ATOM     12  C   UNL     1      -7.349  -0.736 131.640  0.00  0.00    +0.000 A 
ATOM     13  C   UNL     1      -6.436   0.329 131.676  0.00  0.00    +0.000 A 
ATOM     14  C   UNL     1      -6.859   1.640 131.883  0.00  0.00    +0.000 A 
BRANCH  12  15
ATOM     15  C   UNL     1      -6.904  -2.126 131.419  0.00  0.00    +0.000 A 
ATOM     16  C   UNL     1      -6.393  -2.863 132.505  0.00  0.00    +0.000 A 
ATOM     17  C   UNL     1      -5.858  -4.141 132.331  0.00  0.00    +0.000 A 
ATOM     18  C   UNL     1      -5.889  -4.738 131.077  0.00  0.00    +0.000 A 
ATOM     19  C   UNL     1      -6.428  -4.046 129.994  0.00  0.00    +0.000 A 
ATOM     20  C   UNL     1      -6.935  -2.744 130.148  0.00  0.00    +0.000 A 
ATOM     21  C   UNL     1      -7.502  -2.042 128.944  0.00  0.00    +0.000 C 
ENDBRANCH  12  15
ENDBRANCH   6   9
BRANCH   1  23
ATOM     22  C   UNL     1      -8.153   5.004 125.797  0.00  0.00    +0.000 C 
ATOM     23  O   UNL     1      -8.203   4.635 127.181  0.00  0.00    +0.000 OA
ENDBRANCH   1  23
BRANCH   4  24
ATOM     24  C   UNL     1     -10.266   5.872 132.603  0.00  0.00    +0.000 C 
BRANCH  24  25
ATOM     25  O   UNL     1      -9.525   6.410 133.696  0.00  0.00    +0.000 OA
ATOM     26  H   UNL     1     -10.178   6.860 134.262  0.00  0.00    +0.000 HD
ENDBRANCH  24  25
ENDBRANCH   4  24
TORSDOF 5
ENDMDL
MODEL 6
REMARK VINA RESULT:      -7.1      2.842      4.182
REMARK  Name = CHEMBL1254025
REMARK  7 active torsions:
REMARK  status: ('A' for Active; 'I' for Inactive)
REMARK    1  A    between atoms: C_1  and  O_2
REMARK    2  A    between atoms: O_2  and  N_3
REMARK    3  A    between atoms: C_6  and  C_7
REMARK    4  A    between atoms: C_7  and  O_8
REMARK    5  A    between atoms: C_10  and  C_12
REMARK    6  A    between atoms: C_15  and  C_16
REMARK    7  A    between atoms: C_21  and  C_22
REMARK                            x       y       z     vdW  Elec       q    Type
REMARK                         _______ _______ _______ _____ _____    ______ ____
ROOT
ATOM      1  N   UNL     1      -6.335   3.811 123.714  0.00  0.00    +0.000 NA
ATOM      2  C   UNL     1      -7.184   2.832 123.849  0.00  0.00    +0.000 C 
ATOM      3  C   UNL     1      -8.329   2.648 122.900  0.00  0.00    +0.000 C 
ATOM      4  C   UNL     1      -9.376   2.044 123.851  0.00  0.00    +0.000 C 
ATOM      5  N   UNL     1      -8.563   1.238 124.799  0.00  0.00    +0.000 N 
ATOM      6  C   UNL     1      -9.114   0.251 125.613  0.00  0.00    +0.000 C 
ATOM      7  O   UNL     1     -10.303  -0.085 125.589  0.00  0.00    +0.000 OA
ATOM      8  C   UNL     1      -7.176   1.731 124.887  0.00  0.00    +0.000 C 
ENDROOT
BRANCH   6   9
ATOM      9  C   UNL     1      -8.270  -0.481 126.577  0.00  0.00    +0.000 A 
ATOM     10  C   UNL     1      -7.797   0.148 127.737  0.00  0.00    +0.000 A 
ATOM     11  C   UNL     1      -6.887  -0.519 128.569  0.00  0.00    +0.000 A 
ATOM     12  C   UNL     1      -6.496  -1.841 128.296  0.00  0.00    +0.000 A 
ATOM     13  C   UNL     1      -6.968  -2.436 127.116  0.00  0.00    +0.000 A 
ATOM     14  C   UNL     1      -7.805  -1.748 126.241  0.00  0.00    +0.000 A 
BRANCH  12  15
ATOM     15  C   UNL     1      -5.610  -2.569 129.226  0.00  0.00    +0.000 A 
ATOM     16  C   UNL     1      -4.228  -2.618 128.958  0.00  0.00    +0.000 A 
ATOM     17  C   UNL     1      -3.361  -3.381 129.742  0.00  0.00    +0.000 A 
ATOM     18  C   UNL     1      -3.847  -4.054 130.855  0.00  0.00    +0.000 A 
ATOM     19  C   UNL     1      -5.203  -3.987 131.167  0.00  0.00    +0.000 A 
ATOM     20  C   UNL     1      -6.094  -3.253 130.364  0.00  0.00    +0.000 A 
ATOM     21  C   UNL     1      -7.549  -3.218 130.744  0.00  0.00    +0.000 C 
ENDBRANCH  12  15
ENDBRANCH   6   9
BRANCH   1  23
ATOM     22  C   UNL     1      -5.543   4.878 125.623  0.00  0.00    +0.000 C 
ATOM     23  O   UNL     1      -5.348   3.784 124.718  0.00  0.00    +0.000 OA
ENDBRANCH   1  23
BRANCH   4  24
ATOM     24  C   UNL     1     -10.466   1.276 123.076  0.00  0.00    +0.000 C 
BRANCH  24  25
ATOM     25  O   UNL     1     -11.724   1.371 123.740  0.00  0.00    +0.000 OA
ATOM     26  H   UNL     1     -11.872   0.501 124.151  0.00  0.00    +0.000 HD
ENDBRANCH  24  25
ENDBRANCH   4  24
TORSDOF 5
ENDMDL
MODEL 7
REMARK VINA RESULT:      -7.1      2.398      3.774
REMARK  Name = CHEMBL1254025
REMARK  7 active torsions:
REMARK  status: ('A' for Active; 'I' for Inactive)
REMARK    1  A    between atoms: C_1  and  O_2
REMARK    2  A    between atoms: O_2  and  N_3
REMARK    3  A    between atoms: C_6  and  C_7
REMARK    4  A    between atoms: C_7  and  O_8
REMARK    5  A    between atoms: C_10  and  C_12
REMARK    6  A    between atoms: C_15  and  C_16
REMARK    7  A    between atoms: C_21  and  C_22
REMARK                            x       y       z     vdW  Elec       q    Type
REMARK                         _______ _______ _______ _____ _____    ______ ____
ROOT
ATOM      1  N   UNL     1      -8.971   2.069 124.651  0.00  0.00    +0.000 NA
ATOM      2  C   UNL     1      -8.702   0.794 124.659  0.00  0.00    +0.000 C 
ATOM      3  C   UNL     1      -8.983  -0.076 123.472  0.00  0.00    +0.000 C 
ATOM      4  C   UNL     1      -9.312  -1.402 124.179  0.00  0.00    +0.000 C 
ATOM      5  N   UNL     1      -8.431  -1.387 125.377  0.00  0.00    +0.000 N 
ATOM      6  C   UNL     1      -8.145  -2.532 126.115  0.00  0.00    +0.000 C 
ATOM      7  O   UNL     1      -8.542  -3.666 125.822  0.00  0.00    +0.000 OA
ATOM      8  C   UNL     1      -8.062  -0.014 125.767  0.00  0.00    +0.000 C 
ENDROOT
BRANCH   6   9
ATOM      9  C   UNL     1      -7.309  -2.451 127.330  0.00  0.00    +0.000 A 
ATOM     10  C   UNL     1      -5.915  -2.346 127.233  0.00  0.00    +0.000 A 
ATOM     11  C   UNL     1      -5.131  -2.409 128.392  0.00  0.00    +0.000 A 
ATOM     12  C   UNL     1      -5.727  -2.501 129.662  0.00  0.00    +0.000 A 
ATOM     13  C   UNL     1      -7.123  -2.628 129.725  0.00  0.00    +0.000 A 
ATOM     14  C   UNL     1      -7.902  -2.652 128.571  0.00  0.00    +0.000 A 
BRANCH  12  15
ATOM     15  C   UNL     1      -4.899  -2.473 130.884  0.00  0.00    +0.000 A 
ATOM     16  C   UNL     1      -4.313  -1.257 131.287  0.00  0.00    +0.000 A 
ATOM     17  C   UNL     1      -3.435  -1.196 132.370  0.00  0.00    +0.000 A 
ATOM     18  C   UNL     1      -3.179  -2.338 133.119  0.00  0.00    +0.000 A 
ATOM     19  C   UNL     1      -3.780  -3.545 132.767  0.00  0.00    +0.000 A 
ATOM     20  C   UNL     1      -4.637  -3.628 131.655  0.00  0.00    +0.000 A 
ATOM     21  C   UNL     1      -5.256  -4.957 131.317  0.00  0.00    +0.000 C 
ENDBRANCH  12  15
ENDBRANCH   6   9
BRANCH   1  23
ATOM     22  C   UNL     1      -7.843   3.857 125.622  0.00  0.00    +0.000 C 
ATOM     23  O   UNL     1      -8.624   2.680 125.872  0.00  0.00    +0.000 OA
ENDBRANCH   1  23
BRANCH   4  24
ATOM     24  C   UNL     1      -9.137  -2.605 123.230  0.00  0.00    +0.000 C 
BRANCH  24  25
ATOM     25  O   UNL     1     -10.185  -3.554 123.415  0.00  0.00    +0.000 OA
ATOM     26  H   UNL     1     -10.097  -3.870 124.332  0.00  0.00    +0.000 HD
ENDBRANCH  24  25
ENDBRANCH   4  24
TORSDOF 5
ENDMDL
MODEL 8
REMARK VINA RESULT:      -6.9      5.634      7.106
REMARK  Name = CHEMBL1254025
REMARK  7 active torsions:
REMARK  status: ('A' for Active; 'I' for Inactive)
REMARK    1  A    between atoms: C_1  and  O_2
REMARK    2  A    between atoms: O_2  and  N_3
REMARK    3  A    between atoms: C_6  and  C_7
REMARK    4  A    between atoms: C_7  and  O_8
REMARK    5  A    between atoms: C_10  and  C_12
REMARK    6  A    between atoms: C_15  and  C_16
REMARK    7  A    between atoms: C_21  and  C_22
REMARK                            x       y       z     vdW  Elec       q    Type
REMARK                         _______ _______ _______ _____ _____    ______ ____
ROOT
ATOM      1  N   UNL     1      -7.811  -0.668 125.259  0.00  0.00    +0.000 NA
ATOM      2  C   UNL     1      -7.475   0.543 124.915  0.00  0.00    +0.000 C 
ATOM      3  C   UNL     1      -8.007   1.183 123.670  0.00  0.00    +0.000 C 
ATOM      4  C   UNL     1      -6.809   2.070 123.288  0.00  0.00    +0.000 C 
ATOM      5  N   UNL     1      -6.239   2.471 124.600  0.00  0.00    +0.000 N 
ATOM      6  C   UNL     1      -5.360   3.542 124.744  0.00  0.00    +0.000 C 
ATOM      7  O   UNL     1      -5.016   4.287 123.820  0.00  0.00    +0.000 OA
ATOM      8  C   UNL     1      -6.576   1.504 125.662  0.00  0.00    +0.000 C 
ENDROOT
BRANCH   6   9
ATOM      9  C   UNL     1      -4.779   3.862 126.063  0.00  0.00    +0.000 A 
ATOM     10  C   UNL     1      -5.493   4.631 126.992  0.00  0.00    +0.000 A 
ATOM     11  C   UNL     1      -4.873   5.040 128.180  0.00  0.00    +0.000 A 
ATOM     12  C   UNL     1      -3.565   4.626 128.491  0.00  0.00    +0.000 A 
ATOM     13  C   UNL     1      -2.868   3.876 127.531  0.00  0.00    +0.000 A 
ATOM     14  C   UNL     1      -3.450   3.538 126.311  0.00  0.00    +0.000 A 
BRANCH  12  15
ATOM     15  C   UNL     1      -2.952   4.983 129.784  0.00  0.00    +0.000 A 
ATOM     16  C   UNL     1      -2.152   6.140 129.868  0.00  0.00    +0.000 A 
ATOM     17  C   UNL     1      -1.462   6.464 131.037  0.00  0.00    +0.000 A 
ATOM     18  C   UNL     1      -1.614   5.677 132.171  0.00  0.00    +0.000 A 
ATOM     19  C   UNL     1      -2.433   4.551 132.128  0.00  0.00    +0.000 A 
ATOM     20  C   UNL     1      -3.104   4.192 130.946  0.00  0.00    +0.000 A 
ATOM     21  C   UNL     1      -3.974   2.964 130.953  0.00  0.00    +0.000 C 
ENDBRANCH  12  15
ENDBRANCH   6   9
BRANCH   1  23
ATOM     22  C   UNL     1      -6.317  -2.170 126.220  0.00  0.00    +0.000 C 
ATOM     23  O   UNL     1      -7.191  -1.059 126.461  0.00  0.00    +0.000 OA
ENDBRANCH   1  23
BRANCH   4  24
ATOM     24  C   UNL     1      -7.237   3.224 122.358  0.00  0.00    +0.000 C 
BRANCH  24  25
ATOM     25  O   UNL     1      -8.637   3.469 122.464  0.00  0.00    +0.000 OA
ATOM     26  H   UNL     1      -9.065   2.820 121.877  0.00  0.00    +0.000 HD
ENDBRANCH  24  25
ENDBRANCH   4  24
TORSDOF 5
ENDMDL
MODEL 9
REMARK VINA RESULT:      -6.9      5.503      8.355
REMARK  Name = CHEMBL1254025
REMARK  7 active torsions:
REMARK  status: ('A' for Active; 'I' for Inactive)
REMARK    1  A    between atoms: C_1  and  O_2
REMARK    2  A    between atoms: O_2  and  N_3
REMARK    3  A    between atoms: C_6  and  C_7
REMARK    4  A    between atoms: C_7  and  O_8
REMARK    5  A    between atoms: C_10  and  C_12
REMARK    6  A    between atoms: C_15  and  C_16
REMARK    7  A    between atoms: C_21  and  C_22
REMARK                            x       y       z     vdW  Elec       q    Type
REMARK                         _______ _______ _______ _____ _____    ______ ____
ROOT
ATOM      1  N   UNL     1      -6.826   5.264 130.449  0.00  0.00    +0.000 NA
ATOM      2  C   UNL     1      -5.901   4.847 129.632  0.00  0.00    +0.000 C 
ATOM      3  C   UNL     1      -4.501   5.379 129.691  0.00  0.00    +0.000 C 
ATOM      4  C   UNL     1      -4.115   5.294 128.204  0.00  0.00    +0.000 C 
ATOM      5  N   UNL     1      -4.838   4.087 127.724  0.00  0.00    +0.000 N 
ATOM      6  C   UNL     1      -4.513   3.438 126.536  0.00  0.00    +0.000 C 
ATOM      7  O   UNL     1      -3.571   3.761 125.803  0.00  0.00    +0.000 OA
ATOM      8  C   UNL     1      -6.020   3.790 128.555  0.00  0.00    +0.000 C 
ENDROOT
BRANCH   6   9
ATOM      9  C   UNL     1      -5.301   2.276 126.077  0.00  0.00    +0.000 A 
ATOM     10  C   UNL     1      -6.492   2.457 125.361  0.00  0.00    +0.000 A 
ATOM     11  C   UNL     1      -7.295   1.350 125.055  0.00  0.00    +0.000 A 
ATOM     12  C   UNL     1      -6.886   0.048 125.391  0.00  0.00    +0.000 A 
ATOM     13  C   UNL     1      -5.700  -0.099 126.128  0.00  0.00    +0.000 A 
ATOM     14  C   UNL     1      -4.941   1.005 126.509  0.00  0.00    +0.000 A 
BRANCH  12  15
ATOM     15  C   UNL     1      -7.690  -1.120 124.984  0.00  0.00    +0.000 A 
ATOM     16  C   UNL     1      -8.665  -1.623 125.869  0.00  0.00    +0.000 A 
ATOM     17  C   UNL     1      -9.377  -2.788 125.582  0.00  0.00    +0.000 A 
ATOM     18  C   UNL     1      -9.182  -3.437 124.368  0.00  0.00    +0.000 A 
ATOM     19  C   UNL     1      -8.255  -2.936 123.457  0.00  0.00    +0.000 A 
ATOM     20  C   UNL     1      -7.504  -1.784 123.751  0.00  0.00    +0.000 A 
ATOM     21  C   UNL     1      -6.513  -1.288 122.732  0.00  0.00    +0.000 C 
ENDBRANCH  12  15
ENDBRANCH   6   9
BRANCH   1  23
ATOM     22  C   UNL     1      -9.061   5.605 129.906  0.00  0.00    +0.000 C 
ATOM     23  O   UNL     1      -8.059   4.627 130.207  0.00  0.00    +0.000 OA
ENDBRANCH   1  23
BRANCH   4  24
ATOM     24  C   UNL     1      -2.584   5.280 128.020  0.00  0.00    +0.000 C 
BRANCH  24  25
ATOM     25  O   UNL     1      -2.074   6.606 127.908  0.00  0.00    +0.000 OA
ATOM     26  H   UNL     1      -1.580   6.770 128.731  0.00  0.00    +0.000 HD
ENDBRANCH  24  25
ENDBRANCH   4  24
TORSDOF 5
ENDMDL
