MODEL 1
REMARK VINA RESULT:      -9.1      0.000      0.000
REMARK  Name = CHEMBL4216926
REMARK  6 active torsions:
REMARK  status: ('A' for Active; 'I' for Inactive)
REMARK    1  A    between atoms: C_1  and  C_2
REMARK    2  A    between atoms: N_5  and  C_6
REMARK    3  A    between atoms: C_9  and  C_10
REMARK    4  A    between atoms: C_16  and  N_17
REMARK    5  A    between atoms: N_17  and  C_18
REMARK    6  A    between atoms: N_17  and  C_19
REMARK                            x       y       z     vdW  Elec       q    Type
REMARK                         _______ _______ _______ _____ _____    ______ ____
ROOT
ATOM      1  C   UNL     1      -8.336   2.048 132.216  0.00  0.00    +0.000 C 
ATOM      2  O   UNL     1      -9.174   2.192 133.231  0.00  0.00    +0.000 OA
ATOM      3  N   UNL     1      -7.273   0.348 132.132  0.00  0.00    +0.000 N 
ATOM      4  C   UNL     1      -8.520   0.358 131.957  0.00  0.00    +0.000 C 
ATOM      5  C   UNL     1      -8.041   0.085 130.608  0.00  0.00    +0.000 C 
ATOM      6  C   UNL     1      -7.264  -1.055 131.068  0.00  0.00    +0.000 C 
ATOM      7  C   UNL     1      -6.496  -1.791 130.015  0.00  0.00    +0.000 C 
ATOM      8  C   UNL     1      -6.169  -2.745 131.012  0.00  0.00    +0.000 A 
ATOM      9  C   UNL     1      -6.006  -4.355 130.327  0.00  0.00    +0.000 A 
ATOM     10  C   UNL     1      -5.655  -5.495 130.991  0.00  0.00    +0.000 A 
ATOM     11  C   UNL     1      -5.049  -4.986 132.100  0.00  0.00    +0.000 A 
ATOM     12  C   UNL     1      -5.315  -3.243 132.666  0.00  0.00    +0.000 A 
ATOM     13  C   UNL     1      -6.190  -1.675 132.311  0.00  0.00    +0.000 A 
ENDROOT
BRANCH   1  17
ATOM     14  C   UNL     1     -11.559   6.350 130.402  0.00  0.00    +0.000 A 
ATOM     15  C   UNL     1     -10.777   6.531 131.519  0.00  0.00    +0.000 A 
ATOM     16  C   UNL     1      -9.807   5.263 132.052  0.00  0.00    +0.000 A 
ATOM     17  C   UNL     1      -9.546   3.597 131.618  0.00  0.00    +0.000 A 
ATOM     18  C   UNL     1     -10.556   3.822 130.558  0.00  0.00    +0.000 A 
ATOM     19  C   UNL     1     -11.495   5.037 129.950  0.00  0.00    +0.000 A 
BRANCH  14  24
ATOM     20  C   UNL     1     -13.549  10.705 129.348  0.00  0.00    +0.000 C 
ATOM     21  C   UNL     1     -13.159   9.274 129.242  0.00  0.00    +0.000 A 
ATOM     22  C   UNL     1     -13.465   8.433 128.165  0.00  0.00    +0.000 A 
ATOM     23  C   UNL     1     -12.884   7.231 128.471  0.00  0.00    +0.000 A 
ATOM     24  N   UNL     1     -12.265   7.372 129.691  0.00  0.00    +0.000 N 
ATOM     25  N   UNL     1     -12.476   8.622 130.201  0.00  0.00    +0.000 NA
ENDBRANCH  14  24
ENDBRANCH   1  17
BRANCH   7  26
ATOM     26  N   UNL     1      -5.264  -1.169 129.573  0.00  0.00    +0.000 NA
ATOM     27  C   UNL     1      -4.209  -2.133 129.357  0.00  0.00    +0.000 C 
ATOM     28  C   UNL     1      -5.594  -0.626 128.299  0.00  0.00    +0.000 C 
ENDBRANCH   7  26
TORSDOF 3
ENDMDL
MODEL 2
REMARK VINA RESULT:      -8.6      7.517      9.784
REMARK  Name = CHEMBL4216926
REMARK  6 active torsions:
REMARK  status: ('A' for Active; 'I' for Inactive)
REMARK    1  A    between atoms: C_1  and  C_2
REMARK    2  A    between atoms: N_5  and  C_6
REMARK    3  A    between atoms: C_9  and  C_10
REMARK    4  A    between atoms: C_16  and  N_17
REMARK    5  A    between atoms: N_17  and  C_18
REMARK    6  A    between atoms: N_17  and  C_19
REMARK                            x       y       z     vdW  Elec       q    Type
REMARK                         _______ _______ _______ _____ _____    ______ ____
ROOT
ATOM      1  C   UNL     1      -3.777   3.560 127.702  0.00  0.00    +0.000 C 
ATOM      2  O   UNL     1      -2.816   3.200 126.866  0.00  0.00    +0.000 OA
ATOM      3  N   UNL     1      -3.221   4.270 129.495  0.00  0.00    +0.000 N 
ATOM      4  C   UNL     1      -3.002   4.910 128.433  0.00  0.00    +0.000 C 
ATOM      5  C   UNL     1      -4.051   5.715 129.045  0.00  0.00    +0.000 C 
ATOM      6  C   UNL     1      -3.291   5.844 130.279  0.00  0.00    +0.000 C 
ATOM      7  C   UNL     1      -3.937   6.646 131.365  0.00  0.00    +0.000 C 
ATOM      8  C   UNL     1      -2.728   6.517 132.093  0.00  0.00    +0.000 A 
ATOM      9  C   UNL     1      -2.432   7.927 133.098  0.00  0.00    +0.000 A 
ATOM     10  C   UNL     1      -1.388   8.114 133.958  0.00  0.00    +0.000 A 
ATOM     11  C   UNL     1      -0.972   6.833 134.160  0.00  0.00    +0.000 A 
ATOM     12  C   UNL     1      -1.405   5.453 133.003  0.00  0.00    +0.000 A 
ATOM     13  C   UNL     1      -2.288   5.020 131.460  0.00  0.00    +0.000 A 
ENDROOT
BRANCH   1  17
ATOM     14  C   UNL     1      -6.555   3.376 122.759  0.00  0.00    +0.000 A 
ATOM     15  C   UNL     1      -6.802   2.400 123.695  0.00  0.00    +0.000 A 
ATOM     16  C   UNL     1      -5.992   2.459 125.170  0.00  0.00    +0.000 A 
ATOM     17  C   UNL     1      -4.743   3.435 125.893  0.00  0.00    +0.000 A 
ATOM     18  C   UNL     1      -4.742   4.192 124.620  0.00  0.00    +0.000 A 
ATOM     19  C   UNL     1      -5.535   4.226 123.173  0.00  0.00    +0.000 A 
BRANCH  14  24
ATOM     20  C   UNL     1      -7.581   4.556 118.112  0.00  0.00    +0.000 C 
ATOM     21  C   UNL     1      -7.755   4.147 119.530  0.00  0.00    +0.000 A 
ATOM     22  C   UNL     1      -8.977   3.810 120.128  0.00  0.00    +0.000 A 
ATOM     23  C   UNL     1      -8.664   3.465 121.416  0.00  0.00    +0.000 A 
ATOM     24  N   UNL     1      -7.303   3.604 121.560  0.00  0.00    +0.000 N 
ATOM     25  N   UNL     1      -6.739   4.077 120.409  0.00  0.00    +0.000 NA
ENDBRANCH  14  24
ENDBRANCH   1  17
BRANCH   7  26
ATOM     26  N   UNL     1      -4.983   5.979 132.114  0.00  0.00    +0.000 NA
ATOM     27  C   UNL     1      -4.891   6.238 133.533  0.00  0.00    +0.000 C 
ATOM     28  C   UNL     1      -6.179   6.600 131.657  0.00  0.00    +0.000 C 
ENDBRANCH   7  26
TORSDOF 3
ENDMDL
MODEL 3
REMARK VINA RESULT:      -8.4      6.507      8.615
REMARK  Name = CHEMBL4216926
REMARK  6 active torsions:
REMARK  status: ('A' for Active; 'I' for Inactive)
REMARK    1  A    between atoms: C_1  and  C_2
REMARK    2  A    between atoms: N_5  and  C_6
REMARK    3  A    between atoms: C_9  and  C_10
REMARK    4  A    between atoms: C_16  and  N_17
REMARK    5  A    between atoms: N_17  and  C_18
REMARK    6  A    between atoms: N_17  and  C_19
REMARK                            x       y       z     vdW  Elec       q    Type
REMARK                         _______ _______ _______ _____ _____    ______ ____
ROOT
ATOM      1  C   UNL     1      -5.357   4.240 127.528  0.00  0.00    +0.000 C 
ATOM      2  O   UNL     1      -5.075   5.344 126.855  0.00  0.00    +0.000 OA
ATOM      3  N   UNL     1      -5.959   2.643 126.470  0.00  0.00    +0.000 N 
ATOM      4  C   UNL     1      -4.780   3.082 126.393  0.00  0.00    +0.000 C 
ATOM      5  C   UNL     1      -4.579   1.839 127.127  0.00  0.00    +0.000 C 
ATOM      6  C   UNL     1      -5.260   1.071 126.097  0.00  0.00    +0.000 C 
ATOM      7  C   UNL     1      -5.358  -0.403 126.338  0.00  0.00    +0.000 C 
ATOM      8  C   UNL     1      -5.904  -0.515 125.034  0.00  0.00    +0.000 A 
ATOM      9  C   UNL     1      -5.467  -2.044 124.287  0.00  0.00    +0.000 A 
ATOM     10  C   UNL     1      -5.858  -2.497 123.060  0.00  0.00    +0.000 A 
ATOM     11  C   UNL     1      -6.960  -1.730 122.829  0.00  0.00    +0.000 A 
ATOM     12  C   UNL     1      -7.279  -0.148 123.736  0.00  0.00    +0.000 A 
ATOM     13  C   UNL     1      -6.633   1.002 125.005  0.00  0.00    +0.000 A 
ENDROOT
BRANCH   1  17
ATOM     14  C   UNL     1      -2.414   7.187 131.379  0.00  0.00    +0.000 A 
ATOM     15  C   UNL     1      -3.782   7.327 131.340  0.00  0.00    +0.000 A 
ATOM     16  C   UNL     1      -4.661   6.442 130.209  0.00  0.00    +0.000 A 
ATOM     17  C   UNL     1      -4.306   5.368 128.885  0.00  0.00    +0.000 A 
ATOM     18  C   UNL     1      -2.881   5.582 129.230  0.00  0.00    +0.000 A 
ATOM     19  C   UNL     1      -1.960   6.380 130.343  0.00  0.00    +0.000 A 
BRANCH  14  24
ATOM     20  C   UNL     1      -0.456  10.209 134.706  0.00  0.00    +0.000 C 
ATOM     21  C   UNL     1      -0.671   9.020 133.842  0.00  0.00    +0.000 A 
ATOM     22  C   UNL     1       0.111   7.858 133.859  0.00  0.00    +0.000 A 
ATOM     23  C   UNL     1      -0.465   7.023 132.940  0.00  0.00    +0.000 A 
ATOM     24  N   UNL     1      -1.544   7.684 132.402  0.00  0.00    +0.000 N 
ATOM     25  N   UNL     1      -1.649   8.944 132.920  0.00  0.00    +0.000 NA
ENDBRANCH  14  24
ENDBRANCH   1  17
BRANCH   7  26
ATOM     26  N   UNL     1      -6.371  -0.829 127.283  0.00  0.00    +0.000 NA
ATOM     27  C   UNL     1      -7.009  -2.062 126.884  0.00  0.00    +0.000 C 
ATOM     28  C   UNL     1      -5.635  -1.109 128.469  0.00  0.00    +0.000 C 
ENDBRANCH   7  26
TORSDOF 3
ENDMDL
MODEL 4
REMARK VINA RESULT:      -8.0      6.923     10.215
REMARK  Name = CHEMBL4216926
REMARK  6 active torsions:
REMARK  status: ('A' for Active; 'I' for Inactive)
REMARK    1  A    between atoms: C_1  and  C_2
REMARK    2  A    between atoms: N_5  and  C_6
REMARK    3  A    between atoms: C_9  and  C_10
REMARK    4  A    between atoms: C_16  and  N_17
REMARK    5  A    between atoms: N_17  and  C_18
REMARK    6  A    between atoms: N_17  and  C_19
REMARK                            x       y       z     vdW  Elec       q    Type
REMARK                         _______ _______ _______ _____ _____    ______ ____
ROOT
ATOM      1  C   UNL     1      -3.411   3.683 128.682  0.00  0.00    +0.000 C 
ATOM      2  O   UNL     1      -2.756   3.576 127.537  0.00  0.00    +0.000 OA
ATOM      3  N   UNL     1      -2.622   4.882 130.086  0.00  0.00    +0.000 N 
ATOM      4  C   UNL     1      -3.097   5.341 129.014  0.00  0.00    +0.000 C 
ATOM      5  C   UNL     1      -4.098   5.772 129.981  0.00  0.00    +0.000 C 
ATOM      6  C   UNL     1      -3.087   6.422 130.802  0.00  0.00    +0.000 C 
ATOM      7  C   UNL     1      -3.586   7.098 132.041  0.00  0.00    +0.000 C 
ATOM      8  C   UNL     1      -2.270   7.594 132.222  0.00  0.00    +0.000 A 
ATOM      9  C   UNL     1      -2.282   9.171 132.996  0.00  0.00    +0.000 A 
ATOM     10  C   UNL     1      -1.195   9.913 133.359  0.00  0.00    +0.000 A 
ATOM     11  C   UNL     1      -0.221   8.961 133.400  0.00  0.00    +0.000 A 
ATOM     12  C   UNL     1      -0.389   7.329 132.542  0.00  0.00    +0.000 A 
ATOM     13  C   UNL     1      -1.479   6.299 131.494  0.00  0.00    +0.000 A 
ENDROOT
BRANCH   1  17
ATOM     14  C   UNL     1      -7.123   1.210 125.178  0.00  0.00    +0.000 A 
ATOM     15  C   UNL     1      -6.397   2.285 124.723  0.00  0.00    +0.000 A 
ATOM     16  C   UNL     1      -5.282   3.013 125.755  0.00  0.00    +0.000 A 
ATOM     17  C   UNL     1      -4.798   2.846 127.419  0.00  0.00    +0.000 A 
ATOM     18  C   UNL     1      -5.805   1.763 127.496  0.00  0.00    +0.000 A 
ATOM     19  C   UNL     1      -6.879   0.970 126.525  0.00  0.00    +0.000 A 
BRANCH  14  24
ATOM     20  C   UNL     1      -9.027  -2.894 123.290  0.00  0.00    +0.000 C 
ATOM     21  C   UNL     1      -8.755  -1.454 123.535  0.00  0.00    +0.000 A 
ATOM     22  C   UNL     1      -9.400  -0.391 122.891  0.00  0.00    +0.000 A 
ATOM     23  C   UNL     1      -8.869   0.742 123.448  0.00  0.00    +0.000 A 
ATOM     24  N   UNL     1      -7.940   0.346 124.381  0.00  0.00    +0.000 N 
ATOM     25  N   UNL     1      -7.825  -1.016 124.404  0.00  0.00    +0.000 NA
ENDBRANCH  14  24
ENDBRANCH   1  17
BRANCH   7  26
ATOM     26  N   UNL     1      -3.894   6.231 133.160  0.00  0.00    +0.000 NA
ATOM     27  C   UNL     1      -3.601   6.853 134.432  0.00  0.00    +0.000 C 
ATOM     28  C   UNL     1      -5.306   6.074 133.092  0.00  0.00    +0.000 C 
ENDBRANCH   7  26
TORSDOF 3
ENDMDL
MODEL 5
REMARK VINA RESULT:      -7.6      1.741      2.277
REMARK  Name = CHEMBL4216926
REMARK  6 active torsions:
REMARK  status: ('A' for Active; 'I' for Inactive)
REMARK    1  A    between atoms: C_1  and  C_2
REMARK    2  A    between atoms: N_5  and  C_6
REMARK    3  A    between atoms: C_9  and  C_10
REMARK    4  A    between atoms: C_16  and  N_17
REMARK    5  A    between atoms: N_17  and  C_18
REMARK    6  A    between atoms: N_17  and  C_19
REMARK                            x       y       z     vdW  Elec       q    Type
REMARK                         _______ _______ _______ _____ _____    ______ ____
ROOT
ATOM      1  C   UNL     1      -6.104   2.078 132.036  0.00  0.00    +0.000 C 
ATOM      2  O   UNL     1      -6.220   2.862 133.095  0.00  0.00    +0.000 OA
ATOM      3  N   UNL     1      -5.272   0.272 132.313  0.00  0.00    +0.000 N 
ATOM      4  C   UNL     1      -6.400   0.562 132.794  0.00  0.00    +0.000 C 
ATOM      5  C   UNL     1      -6.767  -0.371 131.737  0.00  0.00    +0.000 C 
ATOM      6  C   UNL     1      -5.865  -1.385 132.260  0.00  0.00    +0.000 C 
ATOM      7  C   UNL     1      -5.826  -2.677 131.506  0.00  0.00    +0.000 C 
ATOM      8  C   UNL     1      -4.992  -3.179 132.536  0.00  0.00    +0.000 A 
ATOM      9  C   UNL     1      -5.242  -4.901 132.781  0.00  0.00    +0.000 A 
ATOM     10  C   UNL     1      -4.575  -5.709 133.656  0.00  0.00    +0.000 A 
ATOM     11  C   UNL     1      -3.449  -4.979 133.892  0.00  0.00    +0.000 A 
ATOM     12  C   UNL     1      -3.351  -3.163 133.546  0.00  0.00    +0.000 A 
ATOM     13  C   UNL     1      -4.275  -1.708 132.931  0.00  0.00    +0.000 A 
ENDROOT
BRANCH   1  17
ATOM     14  C   UNL     1      -9.790   5.956 130.152  0.00  0.00    +0.000 A 
ATOM     15  C   UNL     1      -8.522   6.360 130.498  0.00  0.00    +0.000 A 
ATOM     16  C   UNL     1      -7.419   5.209 131.043  0.00  0.00    +0.000 A 
ATOM     17  C   UNL     1      -7.443   3.510 131.421  0.00  0.00    +0.000 A 
ATOM     18  C   UNL     1      -8.869   3.547 131.026  0.00  0.00    +0.000 A 
ATOM     19  C   UNL     1      -9.987   4.610 130.438  0.00  0.00    +0.000 A 
BRANCH  14  24
ATOM     20  C   UNL     1     -13.869   7.153 127.709  0.00  0.00    +0.000 C 
ATOM     21  C   UNL     1     -12.547   7.265 128.378  0.00  0.00    +0.000 A 
ATOM     22  C   UNL     1     -11.817   8.452 128.526  0.00  0.00    +0.000 A 
ATOM     23  C   UNL     1     -10.695   8.098 129.227  0.00  0.00    +0.000 A 
ATOM     24  N   UNL     1     -10.771   6.747 129.472  0.00  0.00    +0.000 N 
ATOM     25  N   UNL     1     -11.892   6.213 128.903  0.00  0.00    +0.000 NA
ENDBRANCH  14  24
ENDBRANCH   1  17
BRANCH   7  26
ATOM     26  N   UNL     1      -5.062  -2.675 130.274  0.00  0.00    +0.000 NA
ATOM     27  C   UNL     1      -4.365  -3.922 130.059  0.00  0.00    +0.000 C 
ATOM     28  C   UNL     1      -6.053  -2.575 129.258  0.00  0.00    +0.000 C 
ENDBRANCH   7  26
TORSDOF 3
ENDMDL
MODEL 6
REMARK VINA RESULT:      -7.5      7.088      9.126
REMARK  Name = CHEMBL4216926
REMARK  6 active torsions:
REMARK  status: ('A' for Active; 'I' for Inactive)
REMARK    1  A    between atoms: C_1  and  C_2
REMARK    2  A    between atoms: N_5  and  C_6
REMARK    3  A    between atoms: C_9  and  C_10
REMARK    4  A    between atoms: C_16  and  N_17
REMARK    5  A    between atoms: N_17  and  C_18
REMARK    6  A    between atoms: N_17  and  C_19
REMARK                            x       y       z     vdW  Elec       q    Type
REMARK                         _______ _______ _______ _____ _____    ______ ____
ROOT
ATOM      1  C   UNL     1      -4.766   3.296 128.112  0.00  0.00    +0.000 C 
ATOM      2  O   UNL     1      -4.982   2.870 129.346  0.00  0.00    +0.000 OA
ATOM      3  N   UNL     1      -5.756   2.370 126.631  0.00  0.00    +0.000 N 
ATOM      4  C   UNL     1      -6.352   3.087 127.478  0.00  0.00    +0.000 C 
ATOM      5  C   UNL     1      -6.439   3.917 126.283  0.00  0.00    +0.000 C 
ATOM      6  C   UNL     1      -7.043   2.834 125.522  0.00  0.00    +0.000 C 
ATOM      7  C   UNL     1      -7.381   3.144 124.098  0.00  0.00    +0.000 C 
ATOM      8  C   UNL     1      -8.006   1.873 124.037  0.00  0.00    +0.000 A 
ATOM      9  C   UNL     1      -9.379   1.887 122.941  0.00  0.00    +0.000 A 
ATOM     10  C   UNL     1     -10.174   0.827 122.611  0.00  0.00    +0.000 A 
ATOM     11  C   UNL     1      -9.376  -0.224 122.948  0.00  0.00    +0.000 A 
ATOM     12  C   UNL     1      -7.941  -0.051 124.107  0.00  0.00    +0.000 A 
ATOM     13  C   UNL     1      -7.003   1.117 125.158  0.00  0.00    +0.000 A 
ENDROOT
BRANCH   1  17
ATOM     14  C   UNL     1      -2.649   7.354 131.463  0.00  0.00    +0.000 A 
ATOM     15  C   UNL     1      -4.013   7.263 131.312  0.00  0.00    +0.000 A 
ATOM     16  C   UNL     1      -4.647   6.051 130.330  0.00  0.00    +0.000 A 
ATOM     17  C   UNL     1      -4.019   4.815 129.276  0.00  0.00    +0.000 A 
ATOM     18  C   UNL     1      -2.679   5.316 129.658  0.00  0.00    +0.000 A 
ATOM     19  C   UNL     1      -1.989   6.448 130.642  0.00  0.00    +0.000 A 
BRANCH  14  24
ATOM     20  C   UNL     1      -1.613  11.123 134.422  0.00  0.00    +0.000 C 
ATOM     21  C   UNL     1      -1.493   9.834 133.694  0.00  0.00    +0.000 A 
ATOM     22  C   UNL     1      -0.433   8.927 133.828  0.00  0.00    +0.000 A 
ATOM     23  C   UNL     1      -0.753   7.876 133.011  0.00  0.00    +0.000 A 
ATOM     24  N   UNL     1      -1.959   8.168 132.417  0.00  0.00    +0.000 N 
ATOM     25  N   UNL     1      -2.399   9.405 132.796  0.00  0.00    +0.000 NA
ENDBRANCH  14  24
ENDBRANCH   1  17
BRANCH   7  26
ATOM     26  N   UNL     1      -6.274   3.143 123.164  0.00  0.00    +0.000 NA
ATOM     27  C   UNL     1      -6.716   3.179 121.789  0.00  0.00    +0.000 C 
ATOM     28  C   UNL     1      -5.611   4.376 123.418  0.00  0.00    +0.000 C 
ENDBRANCH   7  26
TORSDOF 3
ENDMDL
MODEL 7
REMARK VINA RESULT:      -7.3      4.817      6.181
REMARK  Name = CHEMBL4216926
REMARK  6 active torsions:
REMARK  status: ('A' for Active; 'I' for Inactive)
REMARK    1  A    between atoms: C_1  and  C_2
REMARK    2  A    between atoms: N_5  and  C_6
REMARK    3  A    between atoms: C_9  and  C_10
REMARK    4  A    between atoms: C_16  and  N_17
REMARK    5  A    between atoms: N_17  and  C_18
REMARK    6  A    between atoms: N_17  and  C_19
REMARK                            x       y       z     vdW  Elec       q    Type
REMARK                         _______ _______ _______ _____ _____    ______ ____
ROOT
ATOM      1  C   UNL     1      -7.144   1.143 132.291  0.00  0.00    +0.000 C 
ATOM      2  O   UNL     1      -7.876   0.794 133.337  0.00  0.00    +0.000 OA
ATOM      3  N   UNL     1      -7.245  -0.028 130.663  0.00  0.00    +0.000 N 
ATOM      4  C   UNL     1      -8.225   0.668 131.040  0.00  0.00    +0.000 C 
ATOM      5  C   UNL     1      -7.812   1.378 129.836  0.00  0.00    +0.000 C 
ATOM      6  C   UNL     1      -7.898   0.164 129.039  0.00  0.00    +0.000 C 
ATOM      7  C   UNL     1      -7.555   0.308 127.590  0.00  0.00    +0.000 C 
ATOM      8  C   UNL     1      -7.971  -1.038 127.424  0.00  0.00    +0.000 A 
ATOM      9  C   UNL     1      -8.667  -1.301 125.833  0.00  0.00    +0.000 A 
ATOM     10  C   UNL     1      -9.125  -2.483 125.325  0.00  0.00    +0.000 A 
ATOM     11  C   UNL     1      -8.493  -3.385 126.128  0.00  0.00    +0.000 A 
ATOM     12  C   UNL     1      -7.787  -2.923 127.777  0.00  0.00    +0.000 A 
ATOM     13  C   UNL     1      -7.550  -1.556 128.970  0.00  0.00    +0.000 A 
ENDROOT
BRANCH   1  17
ATOM     14  C   UNL     1      -7.249   5.719 135.642  0.00  0.00    +0.000 A 
ATOM     15  C   UNL     1      -8.173   5.617 134.629  0.00  0.00    +0.000 A 
ATOM     16  C   UNL     1      -8.156   4.253 133.642  0.00  0.00    +0.000 A 
ATOM     17  C   UNL     1      -7.157   2.840 133.449  0.00  0.00    +0.000 A 
ATOM     18  C   UNL     1      -6.348   3.387 134.562  0.00  0.00    +0.000 A 
ATOM     19  C   UNL     1      -6.336   4.671 135.599  0.00  0.00    +0.000 A 
BRANCH  14  24
ATOM     20  C   UNL     1      -8.859   9.181 138.717  0.00  0.00    +0.000 C 
ATOM     21  C   UNL     1      -7.957   8.222 138.028  0.00  0.00    +0.000 A 
ATOM     22  C   UNL     1      -6.612   8.006 138.352  0.00  0.00    +0.000 A 
ATOM     23  C   UNL     1      -6.189   7.023 137.496  0.00  0.00    +0.000 A 
ATOM     24  N   UNL     1      -7.257   6.685 136.698  0.00  0.00    +0.000 N 
ATOM     25  N   UNL     1      -8.344   7.461 136.987  0.00  0.00    +0.000 NA
ENDBRANCH  14  24
ENDBRANCH   1  17
BRANCH   7  26
ATOM     26  N   UNL     1      -6.143   0.381 127.271  0.00  0.00    +0.000 NA
ATOM     27  C   UNL     1      -5.813  -0.352 126.070  0.00  0.00    +0.000 C 
ATOM     28  C   UNL     1      -5.929   1.758 126.988  0.00  0.00    +0.000 C 
ENDBRANCH   7  26
TORSDOF 3
ENDMDL
MODEL 8
REMARK VINA RESULT:      -7.2      2.518      4.032
REMARK  Name = CHEMBL4216926
REMARK  6 active torsions:
REMARK  status: ('A' for Active; 'I' for Inactive)
REMARK    1  A    between atoms: C_1  and  C_2
REMARK    2  A    between atoms: N_5  and  C_6
REMARK    3  A    between atoms: C_9  and  C_10
REMARK    4  A    between atoms: C_16  and  N_17
REMARK    5  A    between atoms: N_17  and  C_18
REMARK    6  A    between atoms: N_17  and  C_19
REMARK                            x       y       z     vdW  Elec       q    Type
REMARK                         _______ _______ _______ _____ _____    ______ ____
ROOT
ATOM      1  C   UNL     1      -7.918  -0.670 131.581  0.00  0.00    +0.000 C 
ATOM      2  O   UNL     1      -8.165  -0.743 130.283  0.00  0.00    +0.000 OA
ATOM      3  N   UNL     1      -6.951  -2.214 132.424  0.00  0.00    +0.000 N 
ATOM      4  C   UNL     1      -6.383  -1.446 131.603  0.00  0.00    +0.000 C 
ATOM      5  C   UNL     1      -5.737  -1.064 132.852  0.00  0.00    +0.000 C 
ATOM      6  C   UNL     1      -5.351  -2.440 133.123  0.00  0.00    +0.000 C 
ATOM      7  C   UNL     1      -4.589  -2.668 134.391  0.00  0.00    +0.000 C 
ATOM      8  C   UNL     1      -4.418  -4.011 133.972  0.00  0.00    +0.000 A 
ATOM      9  C   UNL     1      -2.890  -4.669 134.535  0.00  0.00    +0.000 A 
ATOM     10  C   UNL     1      -2.429  -5.941 134.353  0.00  0.00    +0.000 A 
ATOM     11  C   UNL     1      -3.584  -6.610 134.078  0.00  0.00    +0.000 A 
ATOM     12  C   UNL     1      -5.123  -5.746 133.516  0.00  0.00    +0.000 A 
ATOM     13  C   UNL     1      -5.857  -4.121 133.105  0.00  0.00    +0.000 A 
ENDROOT
BRANCH   1  17
ATOM     14  C   UNL     1      -9.361   4.601 130.061  0.00  0.00    +0.000 A 
ATOM     15  C   UNL     1      -8.131   4.116 129.684  0.00  0.00    +0.000 A 
ATOM     16  C   UNL     1      -7.704   2.546 130.119  0.00  0.00    +0.000 A 
ATOM     17  C   UNL     1      -8.391   1.265 131.078  0.00  0.00    +0.000 A 
ATOM     18  C   UNL     1      -9.525   2.189 131.314  0.00  0.00    +0.000 A 
ATOM     19  C   UNL     1     -10.030   3.700 130.880  0.00  0.00    +0.000 A 
BRANCH  14  24
ATOM     20  C   UNL     1     -10.927   8.103 127.008  0.00  0.00    +0.000 C 
ATOM     21  C   UNL     1     -10.631   7.359 128.259  0.00  0.00    +0.000 A 
ATOM     22  C   UNL     1     -10.974   7.781 129.550  0.00  0.00    +0.000 A 
ATOM     23  C   UNL     1     -10.547   6.781 130.382  0.00  0.00    +0.000 A 
ATOM     24  N   UNL     1      -9.968   5.812 129.596  0.00  0.00    +0.000 N 
ATOM     25  N   UNL     1      -9.970   6.186 128.282  0.00  0.00    +0.000 NA
ENDBRANCH  14  24
ENDBRANCH   1  17
BRANCH   7  26
ATOM     26  N   UNL     1      -5.368  -2.677 135.612  0.00  0.00    +0.000 NA
ATOM     27  C   UNL     1      -4.889  -3.655 136.561  0.00  0.00    +0.000 C 
ATOM     28  C   UNL     1      -5.126  -1.395 136.181  0.00  0.00    +0.000 C 
ENDBRANCH   7  26
TORSDOF 3
ENDMDL
MODEL 9
REMARK VINA RESULT:      -7.2      7.478      9.221
REMARK  Name = CHEMBL4216926
REMARK  6 active torsions:
REMARK  status: ('A' for Active; 'I' for Inactive)
REMARK    1  A    between atoms: C_1  and  C_2
REMARK    2  A    between atoms: N_5  and  C_6
REMARK    3  A    between atoms: C_9  and  C_10
REMARK    4  A    between atoms: C_16  and  N_17
REMARK    5  A    between atoms: N_17  and  C_18
REMARK    6  A    between atoms: N_17  and  C_19
REMARK                            x       y       z     vdW  Elec       q    Type
REMARK                         _______ _______ _______ _____ _____    ______ ____
ROOT
ATOM      1  C   UNL     1      -3.581   5.366 129.068  0.00  0.00    +0.000 C 
ATOM      2  O   UNL     1      -2.604   6.003 128.442  0.00  0.00    +0.000 OA
ATOM      3  N   UNL     1      -4.467   3.852 128.091  0.00  0.00    +0.000 N 
ATOM      4  C   UNL     1      -3.274   3.776 128.488  0.00  0.00    +0.000 C 
ATOM      5  C   UNL     1      -3.943   2.859 129.402  0.00  0.00    +0.000 C 
ATOM      6  C   UNL     1      -4.514   2.105 128.298  0.00  0.00    +0.000 C 
ATOM      7  C   UNL     1      -5.369   0.937 128.676  0.00  0.00    +0.000 C 
ATOM      8  C   UNL     1      -5.427   0.614 127.297  0.00  0.00    +0.000 A 
ATOM      9  C   UNL     1      -5.540  -1.122 127.050  0.00  0.00    +0.000 A 
ATOM     10  C   UNL     1      -5.659  -1.773 125.856  0.00  0.00    +0.000 A 
ATOM     11  C   UNL     1      -6.118  -0.775 125.049  0.00  0.00    +0.000 A 
ATOM     12  C   UNL     1      -5.937   1.016 125.483  0.00  0.00    +0.000 A 
ATOM     13  C   UNL     1      -5.297   2.193 126.729  0.00  0.00    +0.000 A 
ENDROOT
BRANCH   1  17
ATOM     14  C   UNL     1      -0.975   8.384 133.102  0.00  0.00    +0.000 A 
ATOM     15  C   UNL     1      -0.352   7.264 132.605  0.00  0.00    +0.000 A 
ATOM     16  C   UNL     1      -1.114   6.373 131.396  0.00  0.00    +0.000 A 
ATOM     17  C   UNL     1      -2.650   6.405 130.576  0.00  0.00    +0.000 A 
ATOM     18  C   UNL     1      -2.960   7.582 131.420  0.00  0.00    +0.000 A 
ATOM     19  C   UNL     1      -2.251   8.530 132.570  0.00  0.00    +0.000 A 
BRANCH  14  24
ATOM     20  C   UNL     1       0.523  12.739 134.783  0.00  0.00    +0.000 C 
ATOM     21  C   UNL     1       0.295  11.275 134.682  0.00  0.00    +0.000 A 
ATOM     22  C   UNL     1       0.695  10.328 135.634  0.00  0.00    +0.000 A 
ATOM     23  C   UNL     1       0.249   9.125 135.155  0.00  0.00    +0.000 A 
ATOM     24  N   UNL     1      -0.385   9.368 133.959  0.00  0.00    +0.000 N 
ATOM     25  N   UNL     1      -0.315  10.693 133.632  0.00  0.00    +0.000 NA
ENDBRANCH  14  24
ENDBRANCH   1  17
BRANCH   7  26
ATOM     26  N   UNL     1      -6.714   1.248 129.118  0.00  0.00    +0.000 NA
ATOM     27  C   UNL     1      -7.678   0.269 128.671  0.00  0.00    +0.000 C 
ATOM     28  C   UNL     1      -6.641   1.139 130.535  0.00  0.00    +0.000 C 
ENDBRANCH   7  26
TORSDOF 3
ENDMDL
