MODEL 1
REMARK VINA RESULT:     -11.5      0.000      0.000
REMARK  Name = CHEMBL306645
REMARK  9 active torsions:
REMARK  status: ('A' for Active; 'I' for Inactive)
REMARK    1  A    between atoms: C_1  and  O_2
REMARK    2  A    between atoms: O_2  and  C_3
REMARK    3  A    between atoms: C_5  and  O_6
REMARK    4  A    between atoms: O_6  and  C_7
REMARK    5  A    between atoms: N_10  and  C_11
REMARK    6  A    between atoms: C_11  and  C_12
REMARK    7  A    between atoms: C_18  and  C_19
REMARK    8  A    between atoms: C_24  and  C_25
REMARK    9  A    between atoms: C_30  and  N_31
REMARK                            x       y       z     vdW  Elec       q    Type
REMARK                         _______ _______ _______ _____ _____    ______ ____
ROOT
ATOM      1  C   UNL     1      -7.512  -1.120 128.471  0.00  0.00    +0.000 A 
ATOM      2  C   UNL     1      -8.271  -1.647 127.380  0.00  0.00    +0.000 A 
ATOM      3  C   UNL     1      -8.803  -0.815 126.448  0.00  0.00    +0.000 A 
ATOM      4  C   UNL     1      -8.647   0.483 126.813  0.00  0.00    +0.000 A 
ATOM      5  C   UNL     1      -7.927   1.078 127.822  0.00  0.00    +0.000 A 
ATOM      6  C   UNL     1      -7.280   0.270 128.689  0.00  0.00    +0.000 A 
ENDROOT
BRANCH   6   7
ATOM      7  C   UNL     1      -6.562   1.078 129.744  0.00  0.00    +0.000 C 
ATOM      8  O   UNL     1      -5.358   0.889 129.948  0.00  0.00    +0.000 OA
ATOM      9  N   UNL     1      -7.236   2.107 130.389  0.00  0.00    +0.000 N 
ATOM     10  C   UNL     1      -6.774   3.481 130.094  0.00  0.00    +0.000 C 
ATOM     11  C   UNL     1      -6.991   4.382 131.260  0.00  0.00    +0.000 C 
ATOM     12  C   UNL     1      -8.721   4.604 131.456  0.00  0.00    +0.000 C 
ATOM     13  C   UNL     1      -8.915   2.942 131.954  0.00  0.00    +0.000 C 
ATOM     14  C   UNL     1      -8.605   1.932 130.885  0.00  0.00    +0.000 C 
BRANCH  12  15
ATOM     15  N   UNL     1      -9.388   5.991 130.437  0.00  0.00    +0.000 N 
ATOM     16  C   UNL     1     -10.251   6.186 131.555  0.00  0.00    +0.000 C 
ATOM     17  O   UNL     1      -9.928   6.388 132.780  0.00  0.00    +0.000 OA
ATOM     18  O   UNL     1     -11.512   5.872 131.381  0.00  0.00    +0.000 OA
ATOM     19  C   UNL     1     -11.926   7.138 131.043  0.00  0.00    +0.000 C 
ATOM     20  C   UNL     1     -11.851   6.798 129.622  0.00  0.00    +0.000 A 
ATOM     21  C   UNL     1     -13.091   6.737 128.890  0.00  0.00    +0.000 A 
ATOM     22  C   UNL     1     -13.217   7.047 127.561  0.00  0.00    +0.000 A 
ATOM     23  C   UNL     1     -12.130   7.756 127.137  0.00  0.00    +0.000 A 
ATOM     24  C   UNL     1     -10.789   7.594 127.948  0.00  0.00    +0.000 A 
ATOM     25  C   UNL     1     -10.558   6.598 129.139  0.00  0.00    +0.000 A 
ENDBRANCH  12  15
ENDBRANCH   6   7
BRANCH   1  27
ATOM     26  C   UNL     1      -7.897  -3.274 129.104  0.00  0.00    +0.000 C 
ATOM     27  O   UNL     1      -7.045  -2.164 129.220  0.00  0.00    +0.000 OA
ENDBRANCH   1  27
BRANCH   3  28
ATOM     28  O   UNL     1      -9.392  -1.245 125.304  0.00  0.00    +0.000 OA
BRANCH  28  29
ATOM     29  C   UNL     1      -8.734  -1.369 123.998  0.00  0.00    +0.000 C 
ATOM     30  C   UNL     1      -7.203  -1.152 123.885  0.00  0.00    +0.000 C 
ATOM     31  C   UNL     1      -6.723   0.305 123.882  0.00  0.00    +0.000 C 
ATOM     32  N   UNL     1      -7.514   1.130 122.920  0.00  0.00    +0.000 NA
ATOM     33  C   UNL     1      -8.935   0.773 122.798  0.00  0.00    +0.000 C 
ATOM     34  C   UNL     1      -9.446  -0.631 122.883  0.00  0.00    +0.000 C 
BRANCH  32  35
ATOM     35  C   UNL     1      -7.396   2.589 123.195  0.00  0.00    +0.000 C 
BRANCH  35  36
ATOM     36  C   UNL     1      -6.816   3.432 122.062  0.00  0.00    +0.000 A 
ATOM     37  C   UNL     1      -5.499   3.860 122.297  0.00  0.00    +0.000 A 
ATOM     38  C   UNL     1      -4.824   4.598 121.349  0.00  0.00    +0.000 A 
ATOM     39  C   UNL     1      -5.449   4.879 120.146  0.00  0.00    +0.000 A 
ATOM     40  N   UNL     1      -6.752   4.503 119.874  0.00  0.00    +0.000 N 
ATOM     41  O   UNL     1      -7.239   4.789 118.731  0.00  0.00    +0.000 OA
ATOM     42  C   UNL     1      -7.491   3.840 120.848  0.00  0.00    +0.000 A 
ATOM     43  C   UNL     1      -8.938   3.647 120.444  0.00  0.00    +0.000 C 
ENDBRANCH  35  36
ENDBRANCH  32  35
ENDBRANCH  28  29
ENDBRANCH   3  28
TORSDOF 7
ENDMDL
MODEL 2
REMARK VINA RESULT:     -11.2      2.865      5.479
REMARK  Name = CHEMBL306645
REMARK  9 active torsions:
REMARK  status: ('A' for Active; 'I' for Inactive)
REMARK    1  A    between atoms: C_1  and  O_2
REMARK    2  A    between atoms: O_2  and  C_3
REMARK    3  A    between atoms: C_5  and  O_6
REMARK    4  A    between atoms: O_6  and  C_7
REMARK    5  A    between atoms: N_10  and  C_11
REMARK    6  A    between atoms: C_11  and  C_12
REMARK    7  A    between atoms: C_18  and  C_19
REMARK    8  A    between atoms: C_24  and  C_25
REMARK    9  A    between atoms: C_30  and  N_31
REMARK                            x       y       z     vdW  Elec       q    Type
REMARK                         _______ _______ _______ _____ _____    ______ ____
ROOT
ATOM      1  C   UNL     1      -5.779   3.444 126.057  0.00  0.00    +0.000 A 
ATOM      2  C   UNL     1      -6.185   2.638 124.948  0.00  0.00    +0.000 A 
ATOM      3  C   UNL     1      -6.276   1.289 125.078  0.00  0.00    +0.000 A 
ATOM      4  C   UNL     1      -5.786   0.883 126.276  0.00  0.00    +0.000 A 
ATOM      5  C   UNL     1      -5.395   1.578 127.397  0.00  0.00    +0.000 A 
ATOM      6  C   UNL     1      -5.418   2.926 127.336  0.00  0.00    +0.000 A 
ENDROOT
BRANCH   6   7
ATOM      7  C   UNL     1      -4.938   3.531 128.634  0.00  0.00    +0.000 C 
ATOM      8  O   UNL     1      -3.726   3.680 128.830  0.00  0.00    +0.000 OA
ATOM      9  N   UNL     1      -5.867   4.021 129.542  0.00  0.00    +0.000 N 
ATOM     10  C   UNL     1      -5.885   5.487 129.736  0.00  0.00    +0.000 C 
ATOM     11  C   UNL     1      -6.312   5.840 131.119  0.00  0.00    +0.000 C 
ATOM     12  C   UNL     1      -8.009   5.421 131.282  0.00  0.00    +0.000 C 
ATOM     13  C   UNL     1      -7.634   3.719 131.200  0.00  0.00    +0.000 C 
ATOM     14  C   UNL     1      -7.078   3.267 129.879  0.00  0.00    +0.000 C 
BRANCH  12  15
ATOM     15  N   UNL     1      -9.139   6.775 130.737  0.00  0.00    +0.000 N 
ATOM     16  C   UNL     1      -9.934   6.339 131.837  0.00  0.00    +0.000 C 
ATOM     17  O   UNL     1      -9.596   6.245 133.070  0.00  0.00    +0.000 OA
ATOM     18  O   UNL     1     -11.051   5.718 131.541  0.00  0.00    +0.000 OA
ATOM     19  C   UNL     1     -11.852   6.831 131.609  0.00  0.00    +0.000 C 
ATOM     20  C   UNL     1     -11.785   6.986 130.156  0.00  0.00    +0.000 A 
ATOM     21  C   UNL     1     -13.000   6.770 129.412  0.00  0.00    +0.000 A 
ATOM     22  C   UNL     1     -13.314   7.418 128.246  0.00  0.00    +0.000 A 
ATOM     23  C   UNL     1     -12.528   8.524 128.094  0.00  0.00    +0.000 A 
ATOM     24  C   UNL     1     -11.144   8.546 128.846  0.00  0.00    +0.000 A 
ATOM     25  C   UNL     1     -10.533   7.356 129.667  0.00  0.00    +0.000 A 
ENDBRANCH  12  15
ENDBRANCH   6   7
BRANCH   1  27
ATOM     26  C   UNL     1      -7.159   5.174 125.516  0.00  0.00    +0.000 C 
ATOM     27  O   UNL     1      -5.828   4.757 125.680  0.00  0.00    +0.000 OA
ENDBRANCH   1  27
BRANCH   3  28
ATOM     28  O   UNL     1      -6.807   0.476 124.129  0.00  0.00    +0.000 OA
BRANCH  28  29
ATOM     29  C   UNL     1      -8.238   0.231 123.917  0.00  0.00    +0.000 C 
ATOM     30  C   UNL     1      -9.221   0.333 125.112  0.00  0.00    +0.000 C 
ATOM     31  C   UNL     1      -9.255  -0.867 126.066  0.00  0.00    +0.000 C 
ATOM     32  N   UNL     1      -9.365  -2.152 125.312  0.00  0.00    +0.000 NA
ATOM     33  C   UNL     1      -8.656  -2.193 124.024  0.00  0.00    +0.000 C 
ATOM     34  C   UNL     1      -8.531  -1.016 123.110  0.00  0.00    +0.000 C 
BRANCH  32  35
ATOM     35  C   UNL     1      -8.964  -3.327 126.133  0.00  0.00    +0.000 C 
BRANCH  35  36
ATOM     36  C   UNL     1      -8.004  -3.036 127.282  0.00  0.00    +0.000 A 
ATOM     37  C   UNL     1      -8.601  -3.128 128.551  0.00  0.00    +0.000 A 
ATOM     38  C   UNL     1      -7.852  -2.930 129.692  0.00  0.00    +0.000 A 
ATOM     39  C   UNL     1      -6.497  -2.677 129.571  0.00  0.00    +0.000 A 
ATOM     40  N   UNL     1      -5.865  -2.552 128.347  0.00  0.00    +0.000 N 
ATOM     41  O   UNL     1      -4.608  -2.337 128.333  0.00  0.00    +0.000 OA
ATOM     42  C   UNL     1      -6.611  -2.652 127.178  0.00  0.00    +0.000 A 
ATOM     43  C   UNL     1      -5.795  -2.332 125.942  0.00  0.00    +0.000 C 
ENDBRANCH  35  36
ENDBRANCH  32  35
ENDBRANCH  28  29
ENDBRANCH   3  28
TORSDOF 7
ENDMDL
MODEL 3
REMARK VINA RESULT:     -11.0      1.675      2.498
REMARK  Name = CHEMBL306645
REMARK  9 active torsions:
REMARK  status: ('A' for Active; 'I' for Inactive)
REMARK    1  A    between atoms: C_1  and  O_2
REMARK    2  A    between atoms: O_2  and  C_3
REMARK    3  A    between atoms: C_5  and  O_6
REMARK    4  A    between atoms: O_6  and  C_7
REMARK    5  A    between atoms: N_10  and  C_11
REMARK    6  A    between atoms: C_11  and  C_12
REMARK    7  A    between atoms: C_18  and  C_19
REMARK    8  A    between atoms: C_24  and  C_25
REMARK    9  A    between atoms: C_30  and  N_31
REMARK                            x       y       z     vdW  Elec       q    Type
REMARK                         _______ _______ _______ _____ _____    ______ ____
ROOT
ATOM      1  C   UNL     1      -5.109   2.088 127.561  0.00  0.00    +0.000 A 
ATOM      2  C   UNL     1      -5.254   1.210 126.443  0.00  0.00    +0.000 A 
ATOM      3  C   UNL     1      -5.611  -0.087 126.631  0.00  0.00    +0.000 A 
ATOM      4  C   UNL     1      -5.622  -0.400 127.952  0.00  0.00    +0.000 A 
ATOM      5  C   UNL     1      -5.513   0.373 129.084  0.00  0.00    +0.000 A 
ATOM      6  C   UNL     1      -5.285   1.694 128.920  0.00  0.00    +0.000 A 
ENDROOT
BRANCH   6   7
ATOM      7  C   UNL     1      -5.167   2.389 130.256  0.00  0.00    +0.000 C 
ATOM      8  O   UNL     1      -4.073   2.431 130.831  0.00  0.00    +0.000 OA
ATOM      9  N   UNL     1      -6.262   3.073 130.767  0.00  0.00    +0.000 N 
ATOM     10  C   UNL     1      -6.141   4.546 130.836  0.00  0.00    +0.000 C 
ATOM     11  C   UNL     1      -6.935   5.097 131.969  0.00  0.00    +0.000 C 
ATOM     12  C   UNL     1      -8.636   4.880 131.592  0.00  0.00    +0.000 C 
ATOM     13  C   UNL     1      -8.490   3.149 131.763  0.00  0.00    +0.000 C 
ATOM     14  C   UNL     1      -7.609   2.494 130.737  0.00  0.00    +0.000 C 
BRANCH  12  15
ATOM     15  N   UNL     1      -9.337   6.274 130.605  0.00  0.00    +0.000 N 
ATOM     16  C   UNL     1     -10.340   6.275 131.617  0.00  0.00    +0.000 C 
ATOM     17  O   UNL     1     -10.188   6.401 132.884  0.00  0.00    +0.000 OA
ATOM     18  O   UNL     1     -11.528   5.846 131.264  0.00  0.00    +0.000 OA
ATOM     19  C   UNL     1     -12.044   7.086 130.973  0.00  0.00    +0.000 C 
ATOM     20  C   UNL     1     -11.766   6.884 129.551  0.00  0.00    +0.000 A 
ATOM     21  C   UNL     1     -12.897   6.757 128.667  0.00  0.00    +0.000 A 
ATOM     22  C   UNL     1     -12.903   7.168 127.360  0.00  0.00    +0.000 A 
ATOM     23  C   UNL     1     -11.864   8.024 127.130  0.00  0.00    +0.000 A 
ATOM     24  C   UNL     1     -10.617   7.934 128.088  0.00  0.00    +0.000 A 
ATOM     25  C   UNL     1     -10.411   6.866 129.220  0.00  0.00    +0.000 A 
ENDBRANCH  12  15
ENDBRANCH   6   7
BRANCH   1  27
ATOM     26  C   UNL     1      -3.497   3.371 126.587  0.00  0.00    +0.000 C 
ATOM     27  O   UNL     1      -4.806   3.337 127.096  0.00  0.00    +0.000 OA
ENDBRANCH   1  27
BRANCH   3  28
ATOM     28  O   UNL     1      -5.927  -0.935 125.620  0.00  0.00    +0.000 OA
BRANCH  28  29
ATOM     29  C   UNL     1      -7.286  -1.273 125.180  0.00  0.00    +0.000 C 
ATOM     30  C   UNL     1      -7.693  -1.051 123.700  0.00  0.00    +0.000 C 
ATOM     31  C   UNL     1      -8.023   0.392 123.298  0.00  0.00    +0.000 C 
ATOM     32  N   UNL     1      -8.962   1.022 124.274  0.00  0.00    +0.000 NA
ATOM     33  C   UNL     1      -8.778   0.622 125.678  0.00  0.00    +0.000 C 
ATOM     34  C   UNL     1      -8.371  -0.754 126.100  0.00  0.00    +0.000 C 
BRANCH  32  35
ATOM     35  C   UNL     1      -8.962   2.508 124.182  0.00  0.00    +0.000 C 
BRANCH  35  36
ATOM     36  C   UNL     1      -7.821   3.122 123.376  0.00  0.00    +0.000 A 
ATOM     37  C   UNL     1      -6.692   3.438 124.150  0.00  0.00    +0.000 A 
ATOM     38  C   UNL     1      -5.563   3.964 123.559  0.00  0.00    +0.000 A 
ATOM     39  C   UNL     1      -5.545   4.141 122.186  0.00  0.00    +0.000 A 
ATOM     40  N   UNL     1      -6.636   3.870 121.382  0.00  0.00    +0.000 N 
ATOM     41  O   UNL     1      -6.521   4.046 120.124  0.00  0.00    +0.000 OA
ATOM     42  C   UNL     1      -7.821   3.428 121.961  0.00  0.00    +0.000 A 
ATOM     43  C   UNL     1      -8.954   3.335 120.960  0.00  0.00    +0.000 C 
ENDBRANCH  35  36
ENDBRANCH  32  35
ENDBRANCH  28  29
ENDBRANCH   3  28
TORSDOF 7
ENDMDL
MODEL 4
REMARK VINA RESULT:     -11.0      2.513      9.057
REMARK  Name = CHEMBL306645
REMARK  9 active torsions:
REMARK  status: ('A' for Active; 'I' for Inactive)
REMARK    1  A    between atoms: C_1  and  O_2
REMARK    2  A    between atoms: O_2  and  C_3
REMARK    3  A    between atoms: C_5  and  O_6
REMARK    4  A    between atoms: O_6  and  C_7
REMARK    5  A    between atoms: N_10  and  C_11
REMARK    6  A    between atoms: C_11  and  C_12
REMARK    7  A    between atoms: C_18  and  C_19
REMARK    8  A    between atoms: C_24  and  C_25
REMARK    9  A    between atoms: C_30  and  N_31
REMARK                            x       y       z     vdW  Elec       q    Type
REMARK                         _______ _______ _______ _____ _____    ______ ____
ROOT
ATOM      1  C   UNL     1      -5.569   2.469 129.448  0.00  0.00    +0.000 A 
ATOM      2  C   UNL     1      -5.919   2.016 130.758  0.00  0.00    +0.000 A 
ATOM      3  C   UNL     1      -6.251   2.909 131.727  0.00  0.00    +0.000 A 
ATOM      4  C   UNL     1      -6.033   4.181 131.309  0.00  0.00    +0.000 A 
ATOM      5  C   UNL     1      -5.718   4.707 130.077  0.00  0.00    +0.000 A 
ATOM      6  C   UNL     1      -5.508   3.841 129.063  0.00  0.00    +0.000 A 
ENDROOT
BRANCH   6   7
ATOM      7  C   UNL     1      -5.150   4.576 127.794  0.00  0.00    +0.000 C 
ATOM      8  O   UNL     1      -4.189   5.355 127.786  0.00  0.00    +0.000 OA
ATOM      9  N   UNL     1      -5.829   4.280 126.619  0.00  0.00    +0.000 N 
ATOM     10  C   UNL     1      -5.046   3.607 125.560  0.00  0.00    +0.000 C 
ATOM     11  C   UNL     1      -5.552   3.969 124.207  0.00  0.00    +0.000 C 
ATOM     12  C   UNL     1      -7.140   3.246 124.013  0.00  0.00    +0.000 C 
ATOM     13  C   UNL     1      -7.818   4.328 125.203  0.00  0.00    +0.000 C 
ATOM     14  C   UNL     1      -7.288   4.133 126.596  0.00  0.00    +0.000 C 
BRANCH  12  15
ATOM     15  N   UNL     1      -7.069   1.516 123.372  0.00  0.00    +0.000 N 
ATOM     16  C   UNL     1      -8.465   1.707 123.159  0.00  0.00    +0.000 C 
ATOM     17  O   UNL     1      -9.044   2.622 122.471  0.00  0.00    +0.000 OA
ATOM     18  O   UNL     1      -9.274   1.044 123.950  0.00  0.00    +0.000 OA
ATOM     19  C   UNL     1      -9.453  -0.024 123.104  0.00  0.00    +0.000 C 
ATOM     20  C   UNL     1      -8.436  -0.787 123.829  0.00  0.00    +0.000 A 
ATOM     21  C   UNL     1      -8.880  -1.940 124.570  0.00  0.00    +0.000 A 
ATOM     22  C   UNL     1      -8.122  -3.064 124.772  0.00  0.00    +0.000 A 
ATOM     23  C   UNL     1      -7.079  -3.094 123.891  0.00  0.00    +0.000 A 
ATOM     24  C   UNL     1      -6.596  -1.724 123.282  0.00  0.00    +0.000 A 
ATOM     25  C   UNL     1      -7.135  -0.306 123.686  0.00  0.00    +0.000 A 
ENDBRANCH  12  15
ENDBRANCH   6   7
BRANCH   1  27
ATOM     26  C   UNL     1      -6.552   0.845 128.189  0.00  0.00    +0.000 C 
ATOM     27  O   UNL     1      -5.340   1.377 128.658  0.00  0.00    +0.000 OA
ENDBRANCH   1  27
BRANCH   3  28
ATOM     28  O   UNL     1      -6.749   2.554 132.939  0.00  0.00    +0.000 OA
BRANCH  28  29
ATOM     29  C   UNL     1      -8.140   2.723 133.374  0.00  0.00    +0.000 C 
ATOM     30  C   UNL     1      -9.295   2.479 132.368  0.00  0.00    +0.000 C 
ATOM     31  C   UNL     1      -9.571   3.607 131.366  0.00  0.00    +0.000 C 
ATOM     32  N   UNL     1      -9.651   4.930 132.054  0.00  0.00    +0.000 NA
ATOM     33  C   UNL     1      -8.745   5.104 133.200  0.00  0.00    +0.000 C 
ATOM     34  C   UNL     1      -8.387   4.002 134.146  0.00  0.00    +0.000 C 
BRANCH  32  35
ATOM     35  C   UNL     1      -9.475   6.070 131.112  0.00  0.00    +0.000 C 
BRANCH  35  36
ATOM     36  C   UNL     1     -10.756   6.783 130.689  0.00  0.00    +0.000 A 
ATOM     37  C   UNL     1     -11.744   6.804 131.687  0.00  0.00    +0.000 A 
ATOM     38  C   UNL     1     -12.945   7.446 131.469  0.00  0.00    +0.000 A 
ATOM     39  C   UNL     1     -13.146   8.103 130.267  0.00  0.00    +0.000 A 
ATOM     40  N   UNL     1     -12.217   8.093 129.244  0.00  0.00    +0.000 N 
ATOM     41  O   UNL     1     -12.482   8.742 128.179  0.00  0.00    +0.000 OA
ATOM     42  C   UNL     1     -11.037   7.374 129.397  0.00  0.00    +0.000 A 
ATOM     43  C   UNL     1     -10.212   7.340 128.127  0.00  0.00    +0.000 C 
ENDBRANCH  35  36
ENDBRANCH  32  35
ENDBRANCH  28  29
ENDBRANCH   3  28
TORSDOF 7
ENDMDL
MODEL 5
REMARK VINA RESULT:     -10.8      3.279      6.501
REMARK  Name = CHEMBL306645
REMARK  9 active torsions:
REMARK  status: ('A' for Active; 'I' for Inactive)
REMARK    1  A    between atoms: C_1  and  O_2
REMARK    2  A    between atoms: O_2  and  C_3
REMARK    3  A    between atoms: C_5  and  O_6
REMARK    4  A    between atoms: O_6  and  C_7
REMARK    5  A    between atoms: N_10  and  C_11
REMARK    6  A    between atoms: C_11  and  C_12
REMARK    7  A    between atoms: C_18  and  C_19
REMARK    8  A    between atoms: C_24  and  C_25
REMARK    9  A    between atoms: C_30  and  N_31
REMARK                            x       y       z     vdW  Elec       q    Type
REMARK                         _______ _______ _______ _____ _____    ______ ____
ROOT
ATOM      1  C   UNL     1      -7.046   2.846 126.679  0.00  0.00    +0.000 A 
ATOM      2  C   UNL     1      -7.418   1.953 125.626  0.00  0.00    +0.000 A 
ATOM      3  C   UNL     1      -6.634   0.887 125.323  0.00  0.00    +0.000 A 
ATOM      4  C   UNL     1      -5.467   0.931 126.013  0.00  0.00    +0.000 A 
ATOM      5  C   UNL     1      -5.034   1.731 127.045  0.00  0.00    +0.000 A 
ATOM      6  C   UNL     1      -5.854   2.723 127.453  0.00  0.00    +0.000 A 
ENDROOT
BRANCH   6   7
ATOM      7  C   UNL     1      -5.222   3.518 128.569  0.00  0.00    +0.000 C 
ATOM      8  O   UNL     1      -4.001   3.715 128.568  0.00  0.00    +0.000 OA
ATOM      9  N   UNL     1      -6.034   4.119 129.522  0.00  0.00    +0.000 N 
ATOM     10  C   UNL     1      -6.079   5.598 129.507  0.00  0.00    +0.000 C 
ATOM     11  C   UNL     1      -6.324   6.141 130.872  0.00  0.00    +0.000 C 
ATOM     12  C   UNL     1      -7.965   5.721 131.334  0.00  0.00    +0.000 C 
ATOM     13  C   UNL     1      -7.542   4.031 131.441  0.00  0.00    +0.000 C 
ATOM     14  C   UNL     1      -7.158   3.402 130.132  0.00  0.00    +0.000 C 
BRANCH  12  15
ATOM     15  N   UNL     1      -9.210   6.962 130.769  0.00  0.00    +0.000 N 
ATOM     16  C   UNL     1     -10.010   6.393 131.802  0.00  0.00    +0.000 C 
ATOM     17  O   UNL     1      -9.735   6.285 133.050  0.00  0.00    +0.000 OA
ATOM     18  O   UNL     1     -11.030   5.664 131.417  0.00  0.00    +0.000 OA
ATOM     19  C   UNL     1     -11.957   6.676 131.476  0.00  0.00    +0.000 C 
ATOM     20  C   UNL     1     -11.826   6.899 130.036  0.00  0.00    +0.000 A 
ATOM     21  C   UNL     1     -12.964   6.580 129.211  0.00  0.00    +0.000 A 
ATOM     22  C   UNL     1     -13.283   7.237 128.052  0.00  0.00    +0.000 A 
ATOM     23  C   UNL     1     -12.621   8.430 127.988  0.00  0.00    +0.000 A 
ATOM     24  C   UNL     1     -11.294   8.575 128.824  0.00  0.00    +0.000 A 
ATOM     25  C   UNL     1     -10.598   7.427 129.638  0.00  0.00    +0.000 A 
ENDBRANCH  12  15
ENDBRANCH   6   7
BRANCH   1  27
ATOM     26  C   UNL     1      -7.948   4.736 125.782  0.00  0.00    +0.000 C 
ATOM     27  O   UNL     1      -8.027   3.788 126.816  0.00  0.00    +0.000 OA
ENDBRANCH   1  27
BRANCH   3  28
ATOM     28  O   UNL     1      -6.997  -0.091 124.454  0.00  0.00    +0.000 OA
BRANCH  28  29
ATOM     29  C   UNL     1      -7.442  -1.440 124.823  0.00  0.00    +0.000 C 
ATOM     30  C   UNL     1      -8.412  -1.630 126.019  0.00  0.00    +0.000 C 
ATOM     31  C   UNL     1      -7.785  -1.557 127.417  0.00  0.00    +0.000 C 
ATOM     32  N   UNL     1      -6.560  -2.407 127.504  0.00  0.00    +0.000 NA
ATOM     33  C   UNL     1      -5.744  -2.468 126.281  0.00  0.00    +0.000 C 
ATOM     34  C   UNL     1      -6.320  -2.454 124.901  0.00  0.00    +0.000 C 
BRANCH  32  35
ATOM     35  C   UNL     1      -5.693  -2.036 128.656  0.00  0.00    +0.000 C 
BRANCH  35  36
ATOM     36  C   UNL     1      -5.951  -2.798 129.952  0.00  0.00    +0.000 A 
ATOM     37  C   UNL     1      -5.226  -3.997 130.055  0.00  0.00    +0.000 A 
ATOM     38  C   UNL     1      -5.323  -4.778 131.186  0.00  0.00    +0.000 A 
ATOM     39  C   UNL     1      -6.116  -4.345 132.235  0.00  0.00    +0.000 A 
ATOM     40  N   UNL     1      -6.869  -3.187 132.176  0.00  0.00    +0.000 N 
ATOM     41  O   UNL     1      -7.555  -2.858 133.199  0.00  0.00    +0.000 OA
ATOM     42  C   UNL     1      -6.866  -2.427 131.012  0.00  0.00    +0.000 A 
ATOM     43  C   UNL     1      -7.863  -1.288 131.063  0.00  0.00    +0.000 C 
ENDBRANCH  35  36
ENDBRANCH  32  35
ENDBRANCH  28  29
ENDBRANCH   3  28
TORSDOF 7
ENDMDL
MODEL 6
REMARK VINA RESULT:     -10.3      1.829      2.268
REMARK  Name = CHEMBL306645
REMARK  9 active torsions:
REMARK  status: ('A' for Active; 'I' for Inactive)
REMARK    1  A    between atoms: C_1  and  O_2
REMARK    2  A    between atoms: O_2  and  C_3
REMARK    3  A    between atoms: C_5  and  O_6
REMARK    4  A    between atoms: O_6  and  C_7
REMARK    5  A    between atoms: N_10  and  C_11
REMARK    6  A    between atoms: C_11  and  C_12
REMARK    7  A    between atoms: C_18  and  C_19
REMARK    8  A    between atoms: C_24  and  C_25
REMARK    9  A    between atoms: C_30  and  N_31
REMARK                            x       y       z     vdW  Elec       q    Type
REMARK                         _______ _______ _______ _____ _____    ______ ____
ROOT
ATOM      1  C   UNL     1      -6.459  -0.819 129.600  0.00  0.00    +0.000 A 
ATOM      2  C   UNL     1      -6.572  -1.354 128.280  0.00  0.00    +0.000 A 
ATOM      3  C   UNL     1      -6.502  -0.535 127.199  0.00  0.00    +0.000 A 
ATOM      4  C   UNL     1      -6.492   0.768 127.578  0.00  0.00    +0.000 A 
ATOM      5  C   UNL     1      -6.367   1.370 128.809  0.00  0.00    +0.000 A 
ATOM      6  C   UNL     1      -6.304   0.568 129.894  0.00  0.00    +0.000 A 
ENDROOT
BRANCH   6   7
ATOM      7  C   UNL     1      -6.195   1.384 131.159  0.00  0.00    +0.000 C 
ATOM      8  O   UNL     1      -5.168   1.318 131.846  0.00  0.00    +0.000 OA
ATOM      9  N   UNL     1      -7.200   2.289 131.476  0.00  0.00    +0.000 N 
ATOM     10  C   UNL     1      -6.836   3.722 131.414  0.00  0.00    +0.000 C 
ATOM     11  C   UNL     1      -7.628   4.519 132.392  0.00  0.00    +0.000 C 
ATOM     12  C   UNL     1      -9.298   4.533 131.851  0.00  0.00    +0.000 C 
ATOM     13  C   UNL     1      -9.466   2.832 132.206  0.00  0.00    +0.000 C 
ATOM     14  C   UNL     1      -8.616   1.932 131.354  0.00  0.00    +0.000 C 
BRANCH  12  15
ATOM     15  N   UNL     1      -9.655   5.898 130.660  0.00  0.00    +0.000 N 
ATOM     16  C   UNL     1     -10.679   6.230 131.595  0.00  0.00    +0.000 C 
ATOM     17  O   UNL     1     -10.559   6.486 132.846  0.00  0.00    +0.000 OA
ATOM     18  O   UNL     1     -11.914   6.002 131.215  0.00  0.00    +0.000 OA
ATOM     19  C   UNL     1     -12.153   7.270 130.745  0.00  0.00    +0.000 C 
ATOM     20  C   UNL     1     -11.861   6.835 129.379  0.00  0.00    +0.000 A 
ATOM     21  C   UNL     1     -12.955   6.821 128.442  0.00  0.00    +0.000 A 
ATOM     22  C   UNL     1     -12.821   7.052 127.098  0.00  0.00    +0.000 A 
ATOM     23  C   UNL     1     -11.620   7.648 126.839  0.00  0.00    +0.000 A 
ATOM     24  C   UNL     1     -10.460   7.438 127.884  0.00  0.00    +0.000 A 
ATOM     25  C   UNL     1     -10.526   6.506 129.145  0.00  0.00    +0.000 A 
ENDBRANCH  12  15
ENDBRANCH   6   7
BRANCH   1  27
ATOM     26  C   UNL     1      -7.651  -2.634 130.291  0.00  0.00    +0.000 C 
ATOM     27  O   UNL     1      -6.501  -1.853 130.493  0.00  0.00    +0.000 OA
ENDBRANCH   1  27
BRANCH   3  28
ATOM     28  O   UNL     1      -6.436  -0.981 125.919  0.00  0.00    +0.000 OA
BRANCH  28  29
ATOM     29  C   UNL     1      -7.573  -1.449 125.117  0.00  0.00    +0.000 C 
ATOM     30  C   UNL     1      -7.556  -1.263 123.577  0.00  0.00    +0.000 C 
ATOM     31  C   UNL     1      -7.891   0.141 123.060  0.00  0.00    +0.000 C 
ATOM     32  N   UNL     1      -9.125   0.674 123.710  0.00  0.00    +0.000 NA
ATOM     33  C   UNL     1      -9.317   0.291 125.117  0.00  0.00    +0.000 C 
ATOM     34  C   UNL     1      -8.921  -1.040 125.673  0.00  0.00    +0.000 C 
BRANCH  32  35
ATOM     35  C   UNL     1      -9.238   2.154 123.583  0.00  0.00    +0.000 C 
BRANCH  35  36
ATOM     36  C   UNL     1      -7.925   2.927 123.653  0.00  0.00    +0.000 A 
ATOM     37  C   UNL     1      -7.190   2.897 122.455  0.00  0.00    +0.000 A 
ATOM     38  C   UNL     1      -5.999   3.582 122.348  0.00  0.00    +0.000 A 
ATOM     39  C   UNL     1      -5.556   4.332 123.425  0.00  0.00    +0.000 A 
ATOM     40  N   UNL     1      -6.227   4.375 124.633  0.00  0.00    +0.000 N 
ATOM     41  O   UNL     1      -5.754   5.108 125.563  0.00  0.00    +0.000 OA
ATOM     42  C   UNL     1      -7.382   3.619 124.803  0.00  0.00    +0.000 A 
ATOM     43  C   UNL     1      -7.894   3.659 126.228  0.00  0.00    +0.000 C 
ENDBRANCH  35  36
ENDBRANCH  32  35
ENDBRANCH  28  29
ENDBRANCH   3  28
TORSDOF 7
ENDMDL
MODEL 7
REMARK VINA RESULT:     -10.1      3.005      9.203
REMARK  Name = CHEMBL306645
REMARK  9 active torsions:
REMARK  status: ('A' for Active; 'I' for Inactive)
REMARK    1  A    between atoms: C_1  and  O_2
REMARK    2  A    between atoms: O_2  and  C_3
REMARK    3  A    between atoms: C_5  and  O_6
REMARK    4  A    between atoms: O_6  and  C_7
REMARK    5  A    between atoms: N_10  and  C_11
REMARK    6  A    between atoms: C_11  and  C_12
REMARK    7  A    between atoms: C_18  and  C_19
REMARK    8  A    between atoms: C_24  and  C_25
REMARK    9  A    between atoms: C_30  and  N_31
REMARK                            x       y       z     vdW  Elec       q    Type
REMARK                         _______ _______ _______ _____ _____    ______ ____
ROOT
ATOM      1  C   UNL     1      -7.413   1.050 131.084  0.00  0.00    +0.000 A 
ATOM      2  C   UNL     1      -7.143   2.303 131.716  0.00  0.00    +0.000 A 
ATOM      3  C   UNL     1      -6.510   2.344 132.917  0.00  0.00    +0.000 A 
ATOM      4  C   UNL     1      -6.364   1.096 133.430  0.00  0.00    +0.000 A 
ATOM      5  C   UNL     1      -6.575  -0.153 132.894  0.00  0.00    +0.000 A 
ATOM      6  C   UNL     1      -7.086  -0.219 131.646  0.00  0.00    +0.000 A 
ENDROOT
BRANCH   6   7
ATOM      7  C   UNL     1      -7.279  -1.655 131.220  0.00  0.00    +0.000 C 
ATOM      8  O   UNL     1      -7.727  -2.480 132.025  0.00  0.00    +0.000 OA
ATOM      9  N   UNL     1      -7.062  -2.007 129.894  0.00  0.00    +0.000 N 
ATOM     10  C   UNL     1      -8.257  -2.403 129.117  0.00  0.00    +0.000 C 
ATOM     11  C   UNL     1      -7.905  -3.392 128.060  0.00  0.00    +0.000 C 
ATOM     12  C   UNL     1      -6.931  -2.569 126.854  0.00  0.00    +0.000 C 
ATOM     13  C   UNL     1      -5.604  -2.414 127.978  0.00  0.00    +0.000 C 
ATOM     14  C   UNL     1      -5.888  -1.528 129.158  0.00  0.00    +0.000 C 
BRANCH  12  15
ATOM     15  N   UNL     1      -7.946  -1.745 125.550  0.00  0.00    +0.000 N 
ATOM     16  C   UNL     1      -6.889  -2.161 124.689  0.00  0.00    +0.000 C 
ATOM     17  O   UNL     1      -6.442  -3.348 124.498  0.00  0.00    +0.000 OA
ATOM     18  O   UNL     1      -6.104  -1.216 124.228  0.00  0.00    +0.000 OA
ATOM     19  C   UNL     1      -6.781  -1.035 123.047  0.00  0.00    +0.000 C 
ATOM     20  C   UNL     1      -7.495   0.108 123.614  0.00  0.00    +0.000 A 
ATOM     21  C   UNL     1      -7.202   1.409 123.067  0.00  0.00    +0.000 A 
ATOM     22  C   UNL     1      -8.108   2.434 122.988  0.00  0.00    +0.000 A 
ATOM     23  C   UNL     1      -9.377   1.953 123.142  0.00  0.00    +0.000 A 
ATOM     24  C   UNL     1      -9.555   0.590 123.910  0.00  0.00    +0.000 A 
ATOM     25  C   UNL     1      -8.408  -0.215 124.618  0.00  0.00    +0.000 A 
ENDBRANCH  12  15
ENDBRANCH   6   7
BRANCH   1  27
ATOM     26  C   UNL     1      -7.650   2.570 129.404  0.00  0.00    +0.000 C 
ATOM     27  O   UNL     1      -7.997   1.292 129.872  0.00  0.00    +0.000 OA
ENDBRANCH   1  27
BRANCH   3  28
ATOM     28  O   UNL     1      -6.075   3.489 133.500  0.00  0.00    +0.000 OA
BRANCH  28  29
ATOM     29  C   UNL     1      -6.929   4.523 134.097  0.00  0.00    +0.000 C 
ATOM     30  C   UNL     1      -8.408   4.198 134.432  0.00  0.00    +0.000 C 
ATOM     31  C   UNL     1      -9.387   4.205 133.251  0.00  0.00    +0.000 C 
ATOM     32  N   UNL     1      -9.221   5.435 132.421  0.00  0.00    +0.000 NA
ATOM     33  C   UNL     1      -7.843   5.936 132.299  0.00  0.00    +0.000 C 
ATOM     34  C   UNL     1      -6.837   5.866 133.404  0.00  0.00    +0.000 C 
BRANCH  32  35
ATOM     35  C   UNL     1      -9.811   5.285 131.062  0.00  0.00    +0.000 C 
BRANCH  35  36
ATOM     36  C   UNL     1     -10.839   6.341 130.666  0.00  0.00    +0.000 A 
ATOM     37  C   UNL     1     -11.790   6.603 131.666  0.00  0.00    +0.000 A 
ATOM     38  C   UNL     1     -12.763   7.561 131.473  0.00  0.00    +0.000 A 
ATOM     39  C   UNL     1     -12.765   8.287 130.294  0.00  0.00    +0.000 A 
ATOM     40  N   UNL     1     -11.868   8.052 129.269  0.00  0.00    +0.000 N 
ATOM     41  O   UNL     1     -11.934   8.784 128.226  0.00  0.00    +0.000 OA
ATOM     42  C   UNL     1     -10.936   7.028 129.395  0.00  0.00    +0.000 A 
ATOM     43  C   UNL     1     -10.144   6.807 128.123  0.00  0.00    +0.000 C 
ENDBRANCH  35  36
ENDBRANCH  32  35
ENDBRANCH  28  29
ENDBRANCH   3  28
TORSDOF 7
ENDMDL
MODEL 8
REMARK VINA RESULT:     -10.1      3.123      9.710
REMARK  Name = CHEMBL306645
REMARK  9 active torsions:
REMARK  status: ('A' for Active; 'I' for Inactive)
REMARK    1  A    between atoms: C_1  and  O_2
REMARK    2  A    between atoms: O_2  and  C_3
REMARK    3  A    between atoms: C_5  and  O_6
REMARK    4  A    between atoms: O_6  and  C_7
REMARK    5  A    between atoms: N_10  and  C_11
REMARK    6  A    between atoms: C_11  and  C_12
REMARK    7  A    between atoms: C_18  and  C_19
REMARK    8  A    between atoms: C_24  and  C_25
REMARK    9  A    between atoms: C_30  and  N_31
REMARK                            x       y       z     vdW  Elec       q    Type
REMARK                         _______ _______ _______ _____ _____    ______ ____
ROOT
ATOM      1  C   UNL     1      -4.542   2.869 128.105  0.00  0.00    +0.000 A 
ATOM      2  C   UNL     1      -4.249   2.420 129.430  0.00  0.00    +0.000 A 
ATOM      3  C   UNL     1      -5.089   2.715 130.455  0.00  0.00    +0.000 A 
ATOM      4  C   UNL     1      -6.057   3.579 130.056  0.00  0.00    +0.000 A 
ATOM      5  C   UNL     1      -6.422   4.046 128.815  0.00  0.00    +0.000 A 
ATOM      6  C   UNL     1      -5.676   3.661 127.758  0.00  0.00    +0.000 A 
ENDROOT
BRANCH   6   7
ATOM      7  C   UNL     1      -6.194   4.279 126.481  0.00  0.00    +0.000 C 
ATOM      8  O   UNL     1      -5.858   5.429 126.175  0.00  0.00    +0.000 OA
ATOM      9  N   UNL     1      -6.947   3.506 125.607  0.00  0.00    +0.000 N 
ATOM     10  C   UNL     1      -6.316   3.182 124.309  0.00  0.00    +0.000 C 
ATOM     11  C   UNL     1      -7.340   3.028 123.238  0.00  0.00    +0.000 C 
ATOM     12  C   UNL     1      -8.263   1.574 123.579  0.00  0.00    +0.000 C 
ATOM     13  C   UNL     1      -8.987   2.318 124.982  0.00  0.00    +0.000 C 
ATOM     14  C   UNL     1      -8.020   2.631 126.089  0.00  0.00    +0.000 C 
BRANCH  12  15
ATOM     15  N   UNL     1      -7.495   0.053 122.869  0.00  0.00    +0.000 N 
ATOM     16  C   UNL     1      -8.734  -0.550 123.235  0.00  0.00    +0.000 C 
ATOM     17  O   UNL     1      -9.917  -0.206 122.881  0.00  0.00    +0.000 OA
ATOM     18  O   UNL     1      -8.701  -1.388 124.244  0.00  0.00    +0.000 OA
ATOM     19  C   UNL     1      -8.557  -2.521 123.481  0.00  0.00    +0.000 C 
ATOM     20  C   UNL     1      -7.111  -2.504 123.704  0.00  0.00    +0.000 A 
ATOM     21  C   UNL     1      -6.552  -3.570 124.497  0.00  0.00    +0.000 A 
ATOM     22  C   UNL     1      -5.292  -4.081 124.323  0.00  0.00    +0.000 A 
ATOM     23  C   UNL     1      -4.801  -3.717 123.102  0.00  0.00    +0.000 A 
ATOM     24  C   UNL     1      -5.401  -2.427 122.426  0.00  0.00    +0.000 A 
ATOM     25  C   UNL     1      -6.439  -1.451 123.086  0.00  0.00    +0.000 A 
ENDBRANCH  12  15
ENDBRANCH   6   7
BRANCH   1  27
ATOM     26  C   UNL     1      -2.588   3.361 127.041  0.00  0.00    +0.000 C 
ATOM     27  O   UNL     1      -3.578   2.390 127.261  0.00  0.00    +0.000 OA
ENDBRANCH   1  27
BRANCH   3  28
ATOM     28  O   UNL     1      -4.968   2.192 131.702  0.00  0.00    +0.000 OA
BRANCH  28  29
ATOM     29  C   UNL     1      -6.014   1.460 132.426  0.00  0.00    +0.000 C 
ATOM     30  C   UNL     1      -7.475   1.492 131.907  0.00  0.00    +0.000 C 
ATOM     31  C   UNL     1      -8.278   2.760 132.222  0.00  0.00    +0.000 C 
ATOM     32  N   UNL     1      -8.150   3.136 133.661  0.00  0.00    +0.000 NA
ATOM     33  C   UNL     1      -6.838   2.867 134.272  0.00  0.00    +0.000 C 
ATOM     34  C   UNL     1      -5.991   1.685 133.924  0.00  0.00    +0.000 C 
BRANCH  32  35
ATOM     35  C   UNL     1      -8.527   4.554 133.912  0.00  0.00    +0.000 C 
BRANCH  35  36
ATOM     36  C   UNL     1      -8.153   5.544 132.813  0.00  0.00    +0.000 A 
ATOM     37  C   UNL     1      -6.779   5.831 132.758  0.00  0.00    +0.000 A 
ATOM     38  C   UNL     1      -6.279   6.679 131.792  0.00  0.00    +0.000 A 
ATOM     39  C   UNL     1      -7.147   7.213 130.854  0.00  0.00    +0.000 A 
ATOM     40  N   UNL     1      -8.510   6.983 130.878  0.00  0.00    +0.000 N 
ATOM     41  O   UNL     1      -9.228   7.502 129.961  0.00  0.00    +0.000 OA
ATOM     42  C   UNL     1      -9.056   6.209 131.896  0.00  0.00    +0.000 A 
ATOM     43  C   UNL     1     -10.570   6.192 131.861  0.00  0.00    +0.000 C 
ENDBRANCH  35  36
ENDBRANCH  32  35
ENDBRANCH  28  29
ENDBRANCH   3  28
TORSDOF 7
ENDMDL
MODEL 9
REMARK VINA RESULT:     -10.0      3.249      9.584
REMARK  Name = CHEMBL306645
REMARK  9 active torsions:
REMARK  status: ('A' for Active; 'I' for Inactive)
REMARK    1  A    between atoms: C_1  and  O_2
REMARK    2  A    between atoms: O_2  and  C_3
REMARK    3  A    between atoms: C_5  and  O_6
REMARK    4  A    between atoms: O_6  and  C_7
REMARK    5  A    between atoms: N_10  and  C_11
REMARK    6  A    between atoms: C_11  and  C_12
REMARK    7  A    between atoms: C_18  and  C_19
REMARK    8  A    between atoms: C_24  and  C_25
REMARK    9  A    between atoms: C_30  and  N_31
REMARK                            x       y       z     vdW  Elec       q    Type
REMARK                         _______ _______ _______ _____ _____    ______ ____
ROOT
ATOM      1  C   UNL     1      -4.307   3.570 126.948  0.00  0.00    +0.000 A 
ATOM      2  C   UNL     1      -3.433   3.538 128.079  0.00  0.00    +0.000 A 
ATOM      3  C   UNL     1      -3.291   4.634 128.867  0.00  0.00    +0.000 A 
ATOM      4  C   UNL     1      -3.928   5.705 128.329  0.00  0.00    +0.000 A 
ATOM      5  C   UNL     1      -4.795   5.825 127.268  0.00  0.00    +0.000 A 
ATOM      6  C   UNL     1      -5.054   4.716 126.543  0.00  0.00    +0.000 A 
ENDROOT
BRANCH   6   7
ATOM      7  C   UNL     1      -5.999   5.025 125.407  0.00  0.00    +0.000 C 
ATOM      8  O   UNL     1      -5.961   6.134 124.861  0.00  0.00    +0.000 OA
ATOM      9  N   UNL     1      -6.820   4.020 124.911  0.00  0.00    +0.000 N 
ATOM     10  C   UNL     1      -6.523   3.547 123.541  0.00  0.00    +0.000 C 
ATOM     11  C   UNL     1      -7.760   3.078 122.857  0.00  0.00    +0.000 C 
ATOM     12  C   UNL     1      -8.292   1.606 123.653  0.00  0.00    +0.000 C 
ATOM     13  C   UNL     1      -8.719   2.496 125.093  0.00  0.00    +0.000 C 
ATOM     14  C   UNL     1      -7.554   3.121 125.807  0.00  0.00    +0.000 C 
BRANCH  12  15
ATOM     15  N   UNL     1      -7.500   0.089 122.961  0.00  0.00    +0.000 N 
ATOM     16  C   UNL     1      -8.733  -0.527 123.326  0.00  0.00    +0.000 C 
ATOM     17  O   UNL     1      -9.919  -0.202 122.964  0.00  0.00    +0.000 OA
ATOM     18  O   UNL     1      -8.695  -1.355 124.343  0.00  0.00    +0.000 OA
ATOM     19  C   UNL     1      -8.532  -2.493 123.592  0.00  0.00    +0.000 C 
ATOM     20  C   UNL     1      -7.088  -2.456 123.822  0.00  0.00    +0.000 A 
ATOM     21  C   UNL     1      -6.519  -3.506 124.628  0.00  0.00    +0.000 A 
ATOM     22  C   UNL     1      -5.252  -4.002 124.465  0.00  0.00    +0.000 A 
ATOM     23  C   UNL     1      -4.759  -3.644 123.244  0.00  0.00    +0.000 A 
ATOM     24  C   UNL     1      -5.372  -2.367 122.553  0.00  0.00    +0.000 A 
ATOM     25  C   UNL     1      -6.426  -1.399 123.198  0.00  0.00    +0.000 A 
ENDBRANCH  12  15
ENDBRANCH   6   7
BRANCH   1  27
ATOM     26  C   UNL     1      -4.876   1.383 127.236  0.00  0.00    +0.000 C 
ATOM     27  O   UNL     1      -4.312   2.332 126.368  0.00  0.00    +0.000 OA
ENDBRANCH   1  27
BRANCH   3  28
ATOM     28  O   UNL     1      -2.613   4.633 130.043  0.00  0.00    +0.000 OA
BRANCH  28  29
ATOM     29  C   UNL     1      -3.191   4.359 131.364  0.00  0.00    +0.000 C 
ATOM     30  C   UNL     1      -3.183   2.912 131.922  0.00  0.00    +0.000 C 
ATOM     31  C   UNL     1      -4.250   1.963 131.363  0.00  0.00    +0.000 C 
ATOM     32  N   UNL     1      -5.601   2.601 131.382  0.00  0.00    +0.000 NA
ATOM     33  C   UNL     1      -5.622   4.048 131.119  0.00  0.00    +0.000 C 
ATOM     34  C   UNL     1      -4.552   4.988 131.576  0.00  0.00    +0.000 C 
BRANCH  32  35
ATOM     35  C   UNL     1      -6.562   1.921 130.471  0.00  0.00    +0.000 C 
BRANCH  35  36
ATOM     36  C   UNL     1      -8.031   2.287 130.663  0.00  0.00    +0.000 A 
ATOM     37  C   UNL     1      -8.701   1.459 131.579  0.00  0.00    +0.000 A 
ATOM     38  C   UNL     1     -10.025   1.688 131.889  0.00  0.00    +0.000 A 
ATOM     39  C   UNL     1     -10.672   2.768 131.314  0.00  0.00    +0.000 A 
ATOM     40  N   UNL     1     -10.066   3.599 130.390  0.00  0.00    +0.000 N 
ATOM     41  O   UNL     1     -10.736   4.581 129.927  0.00  0.00    +0.000 OA
ATOM     42  C   UNL     1      -8.762   3.337 129.985  0.00  0.00    +0.000 A 
ATOM     43  C   UNL     1      -8.314   4.243 128.857  0.00  0.00    +0.000 C 
ENDBRANCH  35  36
ENDBRANCH  32  35
ENDBRANCH  28  29
ENDBRANCH   3  28
TORSDOF 7
ENDMDL
