MODEL 1
REMARK VINA RESULT:      -9.8      0.000      0.000
REMARK  Name = CHEMBL319646
REMARK  7 active torsions:
REMARK  status: ('A' for Active; 'I' for Inactive)
REMARK    1  A    between atoms: C_1  and  O_2
REMARK    2  A    between atoms: O_2  and  C_3
REMARK    3  A    between atoms: C_5  and  O_6
REMARK    4  A    between atoms: O_6  and  C_7
REMARK    5  A    between atoms: C_7  and  C_8
REMARK    6  A    between atoms: C_16  and  C_17
REMARK    7  A    between atoms: C_22  and  N_23
REMARK                            x       y       z     vdW  Elec       q    Type
REMARK                         _______ _______ _______ _____ _____    ______ ____
ROOT
ATOM      1  C   UNL     1      -5.147   3.922 130.367  0.00  0.00    +0.000 C 
ATOM      2  O   UNL     1      -6.021   3.840 131.240  0.00  0.00    +0.000 OA
ATOM      3  N   UNL     1      -5.393   3.404 129.043  0.00  0.00    +0.000 N 
ATOM      4  C   UNL     1      -6.549   3.954 128.280  0.00  0.00    +0.000 C 
ATOM      5  C   UNL     1      -7.150   3.006 127.251  0.00  0.00    +0.000 C 
ATOM      6  C   UNL     1      -6.006   2.478 126.020  0.00  0.00    +0.000 C 
ATOM      7  C   UNL     1      -4.967   1.760 127.179  0.00  0.00    +0.000 C 
ATOM      8  C   UNL     1      -4.372   2.703 128.238  0.00  0.00    +0.000 C 
ENDROOT
BRANCH   6   9
ATOM      9  N   UNL     1      -5.785   3.229 124.377  0.00  0.00    +0.000 N 
ATOM     10  C   UNL     1      -7.103   2.610 124.129  0.00  0.00    +0.000 C 
ATOM     11  O   UNL     1      -7.565   1.472 124.536  0.00  0.00    +0.000 OA
ATOM     12  O   UNL     1      -7.981   3.424 123.628  0.00  0.00    +0.000 OA
ATOM     13  C   UNL     1      -8.114   2.994 122.318  0.00  0.00    +0.000 C 
ATOM     14  C   UNL     1      -6.920   3.614 121.746  0.00  0.00    +0.000 A 
ATOM     15  C   UNL     1      -7.252   3.929 120.286  0.00  0.00    +0.000 A 
ATOM     16  C   UNL     1      -6.442   4.583 119.416  0.00  0.00    +0.000 A 
ATOM     17  C   UNL     1      -5.314   5.005 120.092  0.00  0.00    +0.000 A 
ATOM     18  C   UNL     1      -4.972   4.666 121.662  0.00  0.00    +0.000 A 
ATOM     19  C   UNL     1      -5.798   3.849 122.643  0.00  0.00    +0.000 A 
ENDBRANCH   6   9
BRANCH   1  25
ATOM     20  C   UNL     1      -3.505   5.976 130.200  0.00  0.00    +0.000 A 
ATOM     21  C   UNL     1      -2.341   6.634 130.624  0.00  0.00    +0.000 A 
ATOM     22  C   UNL     1      -1.543   6.118 131.633  0.00  0.00    +0.000 A 
ATOM     23  C   UNL     1      -1.966   4.976 132.292  0.00  0.00    +0.000 A 
ATOM     24  C   UNL     1      -3.109   4.281 131.839  0.00  0.00    +0.000 A 
ATOM     25  C   UNL     1      -3.889   4.733 130.737  0.00  0.00    +0.000 A 
BRANCH  20  27
ATOM     26  C   UNL     1      -3.656   6.506 127.960  0.00  0.00    +0.000 C 
ATOM     27  O   UNL     1      -4.161   6.728 129.261  0.00  0.00    +0.000 OA
ENDBRANCH  20  27
BRANCH  22  28
ATOM     28  O   UNL     1      -0.396   6.808 131.879  0.00  0.00    +0.000 OA
BRANCH  28  29
ATOM     29  C   UNL     1      -0.214   7.313 133.206  0.00  0.00    +0.000 C 
BRANCH  29  30
ATOM     30  C   UNL     1      -0.545   8.786 133.253  0.00  0.00    +0.000 A 
ATOM     31  C   UNL     1      -1.873   9.231 133.241  0.00  0.00    +0.000 A 
ATOM     32  C   UNL     1      -2.163  10.589 133.157  0.00  0.00    +0.000 A 
ATOM     33  C   UNL     1      -1.132  11.523 133.194  0.00  0.00    +0.000 A 
ATOM     34  C   UNL     1       0.193  11.098 133.270  0.00  0.00    +0.000 A 
ATOM     35  C   UNL     1       0.489   9.734 133.292  0.00  0.00    +0.000 A 
ENDBRANCH  29  30
ENDBRANCH  28  29
ENDBRANCH  22  28
ENDBRANCH   1  25
TORSDOF 6
ENDMDL
MODEL 2
REMARK VINA RESULT:      -9.7      5.326     10.747
REMARK  Name = CHEMBL319646
REMARK  7 active torsions:
REMARK  status: ('A' for Active; 'I' for Inactive)
REMARK    1  A    between atoms: C_1  and  O_2
REMARK    2  A    between atoms: O_2  and  C_3
REMARK    3  A    between atoms: C_5  and  O_6
REMARK    4  A    between atoms: O_6  and  C_7
REMARK    5  A    between atoms: C_7  and  C_8
REMARK    6  A    between atoms: C_16  and  C_17
REMARK    7  A    between atoms: C_22  and  N_23
REMARK                            x       y       z     vdW  Elec       q    Type
REMARK                         _______ _______ _______ _____ _____    ______ ____
ROOT
ATOM      1  C   UNL     1      -6.127   3.280 131.484  0.00  0.00    +0.000 C 
ATOM      2  O   UNL     1      -5.783   2.159 131.088  0.00  0.00    +0.000 OA
ATOM      3  N   UNL     1      -5.175   4.140 132.145  0.00  0.00    +0.000 N 
ATOM      4  C   UNL     1      -3.936   4.514 131.406  0.00  0.00    +0.000 C 
ATOM      5  C   UNL     1      -2.735   4.835 132.283  0.00  0.00    +0.000 C 
ATOM      6  C   UNL     1      -3.011   6.166 133.404  0.00  0.00    +0.000 C 
ATOM      7  C   UNL     1      -4.305   5.352 134.178  0.00  0.00    +0.000 C 
ATOM      8  C   UNL     1      -5.515   5.000 133.296  0.00  0.00    +0.000 C 
ENDROOT
BRANCH   6   9
ATOM      9  N   UNL     1      -2.566   7.908 133.120  0.00  0.00    +0.000 N 
ATOM     10  C   UNL     1      -1.283   7.477 133.712  0.00  0.00    +0.000 C 
ATOM     11  O   UNL     1      -1.065   6.645 134.680  0.00  0.00    +0.000 OA
ATOM     12  O   UNL     1      -0.242   7.809 133.013  0.00  0.00    +0.000 OA
ATOM     13  C   UNL     1       0.347   8.814 133.763  0.00  0.00    +0.000 C 
ATOM     14  C   UNL     1      -0.515   9.930 133.376  0.00  0.00    +0.000 A 
ATOM     15  C   UNL     1       0.352  11.189 133.437  0.00  0.00    +0.000 A 
ATOM     16  C   UNL     1      -0.042  12.436 133.076  0.00  0.00    +0.000 A 
ATOM     17  C   UNL     1      -1.317  12.364 132.551  0.00  0.00    +0.000 A 
ATOM     18  C   UNL     1      -2.236  11.004 132.485  0.00  0.00    +0.000 A 
ATOM     19  C   UNL     1      -1.877   9.610 132.974  0.00  0.00    +0.000 A 
ENDBRANCH   6   9
BRANCH   1  25
ATOM     20  C   UNL     1      -7.889   4.953 130.462  0.00  0.00    +0.000 A 
ATOM     21  C   UNL     1      -9.217   5.260 130.131  0.00  0.00    +0.000 A 
ATOM     22  C   UNL     1     -10.247   4.358 130.351  0.00  0.00    +0.000 A 
ATOM     23  C   UNL     1      -9.929   3.094 130.821  0.00  0.00    +0.000 A 
ATOM     24  C   UNL     1      -8.604   2.795 131.204  0.00  0.00    +0.000 A 
ATOM     25  C   UNL     1      -7.545   3.738 131.086  0.00  0.00    +0.000 A 
BRANCH  20  27
ATOM     26  C   UNL     1      -7.098   7.063 130.956  0.00  0.00    +0.000 C 
ATOM     27  O   UNL     1      -7.055   5.965 130.067  0.00  0.00    +0.000 OA
ENDBRANCH  20  27
BRANCH  22  28
ATOM     28  O   UNL     1     -11.496   4.820 130.072  0.00  0.00    +0.000 OA
BRANCH  28  29
ATOM     29  C   UNL     1     -11.934   5.980 130.787  0.00  0.00    +0.000 C 
BRANCH  29  30
ATOM     30  C   UNL     1     -12.465   7.016 129.825  0.00  0.00    +0.000 A 
ATOM     31  C   UNL     1     -12.308   8.385 130.076  0.00  0.00    +0.000 A 
ATOM     32  C   UNL     1     -12.911   9.329 129.250  0.00  0.00    +0.000 A 
ATOM     33  C   UNL     1     -13.584   8.920 128.103  0.00  0.00    +0.000 A 
ATOM     34  C   UNL     1     -13.695   7.563 127.805  0.00  0.00    +0.000 A 
ATOM     35  C   UNL     1     -13.144   6.612 128.665  0.00  0.00    +0.000 A 
ENDBRANCH  29  30
ENDBRANCH  28  29
ENDBRANCH  22  28
ENDBRANCH   1  25
TORSDOF 6
ENDMDL
MODEL 3
REMARK VINA RESULT:      -9.7      5.264     11.312
REMARK  Name = CHEMBL319646
REMARK  7 active torsions:
REMARK  status: ('A' for Active; 'I' for Inactive)
REMARK    1  A    between atoms: C_1  and  O_2
REMARK    2  A    between atoms: O_2  and  C_3
REMARK    3  A    between atoms: C_5  and  O_6
REMARK    4  A    between atoms: O_6  and  C_7
REMARK    5  A    between atoms: C_7  and  C_8
REMARK    6  A    between atoms: C_16  and  C_17
REMARK    7  A    between atoms: C_22  and  N_23
REMARK                            x       y       z     vdW  Elec       q    Type
REMARK                         _______ _______ _______ _____ _____    ______ ____
ROOT
ATOM      1  C   UNL     1      -5.895   4.901 130.560  0.00  0.00    +0.000 C 
ATOM      2  O   UNL     1      -5.597   4.136 129.635  0.00  0.00    +0.000 OA
ATOM      3  N   UNL     1      -4.867   5.653 131.240  0.00  0.00    +0.000 N 
ATOM      4  C   UNL     1      -4.020   6.572 130.429  0.00  0.00    +0.000 C 
ATOM      5  C   UNL     1      -2.627   6.824 130.988  0.00  0.00    +0.000 C 
ATOM      6  C   UNL     1      -2.627   7.520 132.607  0.00  0.00    +0.000 C 
ATOM      7  C   UNL     1      -3.466   6.180 133.269  0.00  0.00    +0.000 C 
ATOM      8  C   UNL     1      -4.865   5.901 132.695  0.00  0.00    +0.000 C 
ENDROOT
BRANCH   6   9
ATOM      9  N   UNL     1      -2.500   9.291 133.006  0.00  0.00    +0.000 N 
ATOM     10  C   UNL     1      -1.166   8.888 133.497  0.00  0.00    +0.000 C 
ATOM     11  O   UNL     1      -0.810   7.806 134.111  0.00  0.00    +0.000 OA
ATOM     12  O   UNL     1      -0.195   9.621 133.045  0.00  0.00    +0.000 OA
ATOM     13  C   UNL     1       0.196  10.360 134.149  0.00  0.00    +0.000 C 
ATOM     14  C   UNL     1      -0.850  11.382 134.129  0.00  0.00    +0.000 A 
ATOM     15  C   UNL     1      -0.224  12.654 134.705  0.00  0.00    +0.000 A 
ATOM     16  C   UNL     1      -0.832  13.863 134.791  0.00  0.00    +0.000 A 
ATOM     17  C   UNL     1      -2.069  13.782 134.182  0.00  0.00    +0.000 A 
ATOM     18  C   UNL     1      -2.727  12.411 133.560  0.00  0.00    +0.000 A 
ATOM     19  C   UNL     1      -2.128  11.014 133.537  0.00  0.00    +0.000 A 
ENDBRANCH   6   9
BRANCH   1  25
ATOM     20  C   UNL     1      -8.330   4.124 131.199  0.00  0.00    +0.000 A 
ATOM     21  C   UNL     1      -9.682   4.432 131.419  0.00  0.00    +0.000 A 
ATOM     22  C   UNL     1     -10.155   5.731 131.322  0.00  0.00    +0.000 A 
ATOM     23  C   UNL     1      -9.245   6.751 131.095  0.00  0.00    +0.000 A 
ATOM     24  C   UNL     1      -7.894   6.445 130.824  0.00  0.00    +0.000 A 
ATOM     25  C   UNL     1      -7.401   5.110 130.814  0.00  0.00    +0.000 A 
BRANCH  20  27
ATOM     26  C   UNL     1      -9.241   2.150 131.971  0.00  0.00    +0.000 C 
ATOM     27  O   UNL     1      -8.100   2.796 131.442  0.00  0.00    +0.000 OA
ENDBRANCH  20  27
BRANCH  22  28
ATOM     28  O   UNL     1     -11.500   5.874 131.466  0.00  0.00    +0.000 OA
BRANCH  28  29
ATOM     29  C   UNL     1     -12.010   7.210 131.510  0.00  0.00    +0.000 C 
BRANCH  29  30
ATOM     30  C   UNL     1     -12.567   7.601 130.161  0.00  0.00    +0.000 A 
ATOM     31  C   UNL     1     -12.677   8.946 129.785  0.00  0.00    +0.000 A 
ATOM     32  C   UNL     1     -13.307   9.298 128.595  0.00  0.00    +0.000 A 
ATOM     33  C   UNL     1     -13.737   8.308 127.717  0.00  0.00    +0.000 A 
ATOM     34  C   UNL     1     -13.578   6.963 128.048  0.00  0.00    +0.000 A 
ATOM     35  C   UNL     1     -13.002   6.608 129.269  0.00  0.00    +0.000 A 
ENDBRANCH  29  30
ENDBRANCH  28  29
ENDBRANCH  22  28
ENDBRANCH   1  25
TORSDOF 6
ENDMDL
MODEL 4
REMARK VINA RESULT:      -9.6      4.635     11.651
REMARK  Name = CHEMBL319646
REMARK  7 active torsions:
REMARK  status: ('A' for Active; 'I' for Inactive)
REMARK    1  A    between atoms: C_1  and  O_2
REMARK    2  A    between atoms: O_2  and  C_3
REMARK    3  A    between atoms: C_5  and  O_6
REMARK    4  A    between atoms: O_6  and  C_7
REMARK    5  A    between atoms: C_7  and  C_8
REMARK    6  A    between atoms: C_16  and  C_17
REMARK    7  A    between atoms: C_22  and  N_23
REMARK                            x       y       z     vdW  Elec       q    Type
REMARK                         _______ _______ _______ _____ _____    ______ ____
ROOT
ATOM      1  C   UNL     1      -6.932  -2.681 130.220  0.00  0.00    +0.000 C 
ATOM      2  O   UNL     1      -6.670  -3.816 130.639  0.00  0.00    +0.000 OA
ATOM      3  N   UNL     1      -6.432  -1.518 130.913  0.00  0.00    +0.000 N 
ATOM      4  C   UNL     1      -4.958  -1.380 131.077  0.00  0.00    +0.000 C 
ATOM      5  C   UNL     1      -4.518  -0.572 132.288  0.00  0.00    +0.000 C 
ATOM      6  C   UNL     1      -5.129   1.081 132.298  0.00  0.00    +0.000 C 
ATOM      7  C   UNL     1      -6.762   0.561 132.301  0.00  0.00    +0.000 C 
ATOM      8  C   UNL     1      -7.213  -0.278 131.093  0.00  0.00    +0.000 C 
ENDROOT
BRANCH   6   9
ATOM      9  N   UNL     1      -4.242   2.550 131.692  0.00  0.00    +0.000 N 
ATOM     10  C   UNL     1      -3.990   2.755 133.134  0.00  0.00    +0.000 C 
ATOM     11  O   UNL     1      -4.772   2.536 134.142  0.00  0.00    +0.000 OA
ATOM     12  O   UNL     1      -2.744   2.967 133.426  0.00  0.00    +0.000 OA
ATOM     13  C   UNL     1      -2.712   4.311 133.761  0.00  0.00    +0.000 C 
ATOM     14  C   UNL     1      -2.701   4.886 132.417  0.00  0.00    +0.000 A 
ATOM     15  C   UNL     1      -1.921   6.199 132.513  0.00  0.00    +0.000 A 
ATOM     16  C   UNL     1      -1.609   7.010 131.472  0.00  0.00    +0.000 A 
ATOM     17  C   UNL     1      -2.022   6.406 130.300  0.00  0.00    +0.000 A 
ATOM     18  C   UNL     1      -2.853   4.992 130.209  0.00  0.00    +0.000 A 
ATOM     19  C   UNL     1      -3.316   4.105 131.354  0.00  0.00    +0.000 A 
ENDBRANCH   6   9
BRANCH   1  25
ATOM     20  C   UNL     1      -7.423  -1.683 127.831  0.00  0.00    +0.000 A 
ATOM     21  C   UNL     1      -8.143  -1.719 126.628  0.00  0.00    +0.000 A 
ATOM     22  C   UNL     1      -9.088  -2.702 126.377  0.00  0.00    +0.000 A 
ATOM     23  C   UNL     1      -9.246  -3.719 127.304  0.00  0.00    +0.000 A 
ATOM     24  C   UNL     1      -8.562  -3.663 128.538  0.00  0.00    +0.000 A 
ATOM     25  C   UNL     1      -7.664  -2.608 128.865  0.00  0.00    +0.000 A 
BRANCH  20  27
ATOM     26  C   UNL     1      -5.545  -0.867 126.769  0.00  0.00    +0.000 C 
ATOM     27  O   UNL     1      -6.494  -0.677 127.799  0.00  0.00    +0.000 OA
ENDBRANCH  20  27
BRANCH  22  28
ATOM     28  O   UNL     1      -9.778  -2.563 125.213  0.00  0.00    +0.000 OA
BRANCH  28  29
ATOM     29  C   UNL     1      -9.392  -3.409 124.125  0.00  0.00    +0.000 C 
BRANCH  29  30
ATOM     30  C   UNL     1      -7.950  -3.156 123.753  0.00  0.00    +0.000 A 
ATOM     31  C   UNL     1      -6.919  -3.952 124.269  0.00  0.00    +0.000 A 
ATOM     32  C   UNL     1      -5.588  -3.631 124.021  0.00  0.00    +0.000 A 
ATOM     33  C   UNL     1      -5.273  -2.579 123.166  0.00  0.00    +0.000 A 
ATOM     34  C   UNL     1      -6.290  -1.816 122.595  0.00  0.00    +0.000 A 
ATOM     35  C   UNL     1      -7.625  -2.097 122.891  0.00  0.00    +0.000 A 
ENDBRANCH  29  30
ENDBRANCH  28  29
ENDBRANCH  22  28
ENDBRANCH   1  25
TORSDOF 6
ENDMDL
MODEL 5
REMARK VINA RESULT:      -9.5      5.522      7.623
REMARK  Name = CHEMBL319646
REMARK  7 active torsions:
REMARK  status: ('A' for Active; 'I' for Inactive)
REMARK    1  A    between atoms: C_1  and  O_2
REMARK    2  A    between atoms: O_2  and  C_3
REMARK    3  A    between atoms: C_5  and  O_6
REMARK    4  A    between atoms: O_6  and  C_7
REMARK    5  A    between atoms: C_7  and  C_8
REMARK    6  A    between atoms: C_16  and  C_17
REMARK    7  A    between atoms: C_22  and  N_23
REMARK                            x       y       z     vdW  Elec       q    Type
REMARK                         _______ _______ _______ _____ _____    ______ ____
ROOT
ATOM      1  C   UNL     1      -5.928   3.108 131.965  0.00  0.00    +0.000 C 
ATOM      2  O   UNL     1      -5.152   2.992 132.922  0.00  0.00    +0.000 OA
ATOM      3  N   UNL     1      -5.740   2.310 130.777  0.00  0.00    +0.000 N 
ATOM      4  C   UNL     1      -5.755   0.827 130.921  0.00  0.00    +0.000 C 
ATOM      5  C   UNL     1      -4.953   0.071 129.872  0.00  0.00    +0.000 C 
ATOM      6  C   UNL     1      -5.487   0.370 128.219  0.00  0.00    +0.000 C 
ATOM      7  C   UNL     1      -5.168   2.049 128.335  0.00  0.00    +0.000 C 
ATOM      8  C   UNL     1      -5.955   2.820 129.408  0.00  0.00    +0.000 C 
ENDROOT
BRANCH   6   9
ATOM      9  N   UNL     1      -6.647  -0.663 127.271  0.00  0.00    +0.000 N 
ATOM     10  C   UNL     1      -5.590  -0.571 126.244  0.00  0.00    +0.000 C 
ATOM     11  O   UNL     1      -4.829   0.431 125.937  0.00  0.00    +0.000 OA
ATOM     12  O   UNL     1      -5.235  -1.717 125.749  0.00  0.00    +0.000 OA
ATOM     13  C   UNL     1      -5.758  -1.693 124.466  0.00  0.00    +0.000 C 
ATOM     14  C   UNL     1      -7.146  -2.032 124.774  0.00  0.00    +0.000 A 
ATOM     15  C   UNL     1      -7.687  -2.792 123.561  0.00  0.00    +0.000 A 
ATOM     16  C   UNL     1      -8.916  -3.356 123.467  0.00  0.00    +0.000 A 
ATOM     17  C   UNL     1      -9.561  -3.220 124.681  0.00  0.00    +0.000 A 
ATOM     18  C   UNL     1      -8.967  -2.409 125.979  0.00  0.00    +0.000 A 
ATOM     19  C   UNL     1      -7.642  -1.671 126.094  0.00  0.00    +0.000 A 
ENDBRANCH   6   9
BRANCH   1  25
ATOM     20  C   UNL     1      -8.380   3.634 132.774  0.00  0.00    +0.000 A 
ATOM     21  C   UNL     1      -9.430   4.549 132.943  0.00  0.00    +0.000 A 
ATOM     22  C   UNL     1      -9.292   5.884 132.593  0.00  0.00    +0.000 A 
ATOM     23  C   UNL     1      -8.056   6.328 132.157  0.00  0.00    +0.000 A 
ATOM     24  C   UNL     1      -7.010   5.406 131.937  0.00  0.00    +0.000 A 
ATOM     25  C   UNL     1      -7.157   4.012 132.189  0.00  0.00    +0.000 A 
BRANCH  20  27
ATOM     26  C   UNL     1      -9.416   1.624 132.319  0.00  0.00    +0.000 C 
ATOM     27  O   UNL     1      -8.733   2.409 133.276  0.00  0.00    +0.000 OA
ENDBRANCH  20  27
BRANCH  22  28
ATOM     28  O   UNL     1     -10.417   6.638 132.721  0.00  0.00    +0.000 OA
BRANCH  28  29
ATOM     29  C   UNL     1     -11.548   6.258 131.930  0.00  0.00    +0.000 C 
BRANCH  29  30
ATOM     30  C   UNL     1     -11.605   7.087 130.669  0.00  0.00    +0.000 A 
ATOM     31  C   UNL     1     -10.628   6.959 129.672  0.00  0.00    +0.000 A 
ATOM     32  C   UNL     1     -10.620   7.816 128.576  0.00  0.00    +0.000 A 
ATOM     33  C   UNL     1     -11.648   8.738 128.407  0.00  0.00    +0.000 A 
ATOM     34  C   UNL     1     -12.662   8.836 129.358  0.00  0.00    +0.000 A 
ATOM     35  C   UNL     1     -12.639   8.019 130.490  0.00  0.00    +0.000 A 
ENDBRANCH  29  30
ENDBRANCH  28  29
ENDBRANCH  22  28
ENDBRANCH   1  25
TORSDOF 6
ENDMDL
MODEL 6
REMARK VINA RESULT:      -9.2      5.992      8.123
REMARK  Name = CHEMBL319646
REMARK  7 active torsions:
REMARK  status: ('A' for Active; 'I' for Inactive)
REMARK    1  A    between atoms: C_1  and  O_2
REMARK    2  A    between atoms: O_2  and  C_3
REMARK    3  A    between atoms: C_5  and  O_6
REMARK    4  A    between atoms: O_6  and  C_7
REMARK    5  A    between atoms: C_7  and  C_8
REMARK    6  A    between atoms: C_16  and  C_17
REMARK    7  A    between atoms: C_22  and  N_23
REMARK                            x       y       z     vdW  Elec       q    Type
REMARK                         _______ _______ _______ _____ _____    ______ ____
ROOT
ATOM      1  C   UNL     1      -7.989   2.315 132.334  0.00  0.00    +0.000 C 
ATOM      2  O   UNL     1      -7.915   1.786 133.450  0.00  0.00    +0.000 OA
ATOM      3  N   UNL     1      -7.480   1.630 131.170  0.00  0.00    +0.000 N 
ATOM      4  C   UNL     1      -8.048   0.292 130.841  0.00  0.00    +0.000 C 
ATOM      5  C   UNL     1      -7.113  -0.633 130.076  0.00  0.00    +0.000 C 
ATOM      6  C   UNL     1      -6.575   0.021 128.531  0.00  0.00    +0.000 C 
ATOM      7  C   UNL     1      -5.839   1.380 129.272  0.00  0.00    +0.000 C 
ATOM      8  C   UNL     1      -6.770   2.310 130.069  0.00  0.00    +0.000 C 
ENDROOT
BRANCH   6   9
ATOM      9  N   UNL     1      -7.331  -0.315 126.910  0.00  0.00    +0.000 N 
ATOM     10  C   UNL     1      -6.316  -1.389 126.875  0.00  0.00    +0.000 C 
ATOM     11  O   UNL     1      -5.097  -1.379 127.307  0.00  0.00    +0.000 OA
ATOM     12  O   UNL     1      -6.796  -2.557 126.575  0.00  0.00    +0.000 OA
ATOM     13  C   UNL     1      -6.324  -2.783 125.293  0.00  0.00    +0.000 C 
ATOM     14  C   UNL     1      -7.286  -1.976 124.544  0.00  0.00    +0.000 A 
ATOM     15  C   UNL     1      -7.454  -2.653 123.182  0.00  0.00    +0.000 A 
ATOM     16  C   UNL     1      -8.319  -2.269 122.211  0.00  0.00    +0.000 A 
ATOM     17  C   UNL     1      -9.093  -1.231 122.692  0.00  0.00    +0.000 A 
ATOM     18  C   UNL     1      -8.908  -0.517 124.160  0.00  0.00    +0.000 A 
ATOM     19  C   UNL     1      -7.885  -0.843 125.235  0.00  0.00    +0.000 A 
ENDBRANCH   6   9
BRANCH   1  25
ATOM     20  C   UNL     1      -8.495   4.827 132.950  0.00  0.00    +0.000 A 
ATOM     21  C   UNL     1      -9.280   5.979 132.791  0.00  0.00    +0.000 A 
ATOM     22  C   UNL     1     -10.343   6.015 131.902  0.00  0.00    +0.000 A 
ATOM     23  C   UNL     1     -10.564   4.915 131.091  0.00  0.00    +0.000 A 
ATOM     24  C   UNL     1      -9.811   3.735 131.279  0.00  0.00    +0.000 A 
ATOM     25  C   UNL     1      -8.782   3.635 132.257  0.00  0.00    +0.000 A 
BRANCH  20  27
ATOM     26  C   UNL     1      -7.914   5.596 135.046  0.00  0.00    +0.000 C 
ATOM     27  O   UNL     1      -7.460   5.073 133.814  0.00  0.00    +0.000 OA
ENDBRANCH  20  27
BRANCH  22  28
ATOM     28  O   UNL     1     -11.077   7.161 131.917  0.00  0.00    +0.000 OA
BRANCH  28  29
ATOM     29  C   UNL     1     -12.478   7.038 131.656  0.00  0.00    +0.000 C 
BRANCH  29  30
ATOM     30  C   UNL     1     -12.806   7.597 130.291  0.00  0.00    +0.000 A 
ATOM     31  C   UNL     1     -12.796   8.977 130.052  0.00  0.00    +0.000 A 
ATOM     32  C   UNL     1     -13.222   9.486 128.829  0.00  0.00    +0.000 A 
ATOM     33  C   UNL     1     -13.557   8.618 127.794  0.00  0.00    +0.000 A 
ATOM     34  C   UNL     1     -13.512   7.240 127.996  0.00  0.00    +0.000 A 
ATOM     35  C   UNL     1     -13.144   6.728 129.242  0.00  0.00    +0.000 A 
ENDBRANCH  29  30
ENDBRANCH  28  29
ENDBRANCH  22  28
ENDBRANCH   1  25
TORSDOF 6
ENDMDL
MODEL 7
REMARK VINA RESULT:      -9.1      1.836      2.473
REMARK  Name = CHEMBL319646
REMARK  7 active torsions:
REMARK  status: ('A' for Active; 'I' for Inactive)
REMARK    1  A    between atoms: C_1  and  O_2
REMARK    2  A    between atoms: O_2  and  C_3
REMARK    3  A    between atoms: C_5  and  O_6
REMARK    4  A    between atoms: O_6  and  C_7
REMARK    5  A    between atoms: C_7  and  C_8
REMARK    6  A    between atoms: C_16  and  C_17
REMARK    7  A    between atoms: C_22  and  N_23
REMARK                            x       y       z     vdW  Elec       q    Type
REMARK                         _______ _______ _______ _____ _____    ______ ____
ROOT
ATOM      1  C   UNL     1      -6.130   5.744 132.158  0.00  0.00    +0.000 C 
ATOM      2  O   UNL     1      -7.039   6.005 132.956  0.00  0.00    +0.000 OA
ATOM      3  N   UNL     1      -6.397   4.932 130.994  0.00  0.00    +0.000 N 
ATOM      4  C   UNL     1      -7.434   5.405 130.034  0.00  0.00    +0.000 C 
ATOM      5  C   UNL     1      -8.123   4.305 129.240  0.00  0.00    +0.000 C 
ATOM      6  C   UNL     1      -7.020   3.332 128.271  0.00  0.00    +0.000 C 
ATOM      7  C   UNL     1      -6.138   2.817 129.647  0.00  0.00    +0.000 C 
ATOM      8  C   UNL     1      -5.456   3.922 130.472  0.00  0.00    +0.000 C 
ENDROOT
BRANCH   6   9
ATOM      9  N   UNL     1      -6.634   3.592 126.511  0.00  0.00    +0.000 N 
ATOM     10  C   UNL     1      -7.945   2.938 126.325  0.00  0.00    +0.000 C 
ATOM     11  O   UNL     1      -8.477   1.962 126.987  0.00  0.00    +0.000 OA
ATOM     12  O   UNL     1      -8.749   3.586 125.538  0.00  0.00    +0.000 OA
ATOM     13  C   UNL     1      -8.783   2.807 124.393  0.00  0.00    +0.000 C 
ATOM     14  C   UNL     1      -7.524   3.234 123.784  0.00  0.00    +0.000 A 
ATOM     15  C   UNL     1      -7.718   3.130 122.269  0.00  0.00    +0.000 A 
ATOM     16  C   UNL     1      -6.815   3.508 121.331  0.00  0.00    +0.000 A 
ATOM     17  C   UNL     1      -5.736   4.094 121.964  0.00  0.00    +0.000 A 
ATOM     18  C   UNL     1      -5.543   4.206 123.591  0.00  0.00    +0.000 A 
ATOM     19  C   UNL     1      -6.477   3.702 124.680  0.00  0.00    +0.000 A 
ENDBRANCH   6   9
BRANCH   1  25
ATOM     20  C   UNL     1      -4.114   7.309 131.501  0.00  0.00    +0.000 A 
ATOM     21  C   UNL     1      -2.895   7.919 131.835  0.00  0.00    +0.000 A 
ATOM     22  C   UNL     1      -2.322   7.757 133.087  0.00  0.00    +0.000 A 
ATOM     23  C   UNL     1      -3.025   7.052 134.050  0.00  0.00    +0.000 A 
ATOM     24  C   UNL     1      -4.226   6.394 133.708  0.00  0.00    +0.000 A 
ATOM     25  C   UNL     1      -4.785   6.457 132.400  0.00  0.00    +0.000 A 
BRANCH  20  27
ATOM     26  C   UNL     1      -3.574   7.313 129.259  0.00  0.00    +0.000 C 
ATOM     27  O   UNL     1      -4.510   7.693 130.248  0.00  0.00    +0.000 OA
ENDBRANCH  20  27
BRANCH  22  28
ATOM     28  O   UNL     1      -1.096   8.325 133.244  0.00  0.00    +0.000 OA
BRANCH  28  29
ATOM     29  C   UNL     1      -1.030   9.520 134.029  0.00  0.00    +0.000 C 
BRANCH  29  30
ATOM     30  C   UNL     1      -0.574  10.680 133.177  0.00  0.00    +0.000 A 
ATOM     31  C   UNL     1       0.787  10.975 133.023  0.00  0.00    +0.000 A 
ATOM     32  C   UNL     1       1.190  12.119 132.340  0.00  0.00    +0.000 A 
ATOM     33  C   UNL     1       0.244  12.922 131.711  0.00  0.00    +0.000 A 
ATOM     34  C   UNL     1      -1.111  12.607 131.802  0.00  0.00    +0.000 A 
ATOM     35  C   UNL     1      -1.521  11.495 132.538  0.00  0.00    +0.000 A 
ENDBRANCH  29  30
ENDBRANCH  28  29
ENDBRANCH  22  28
ENDBRANCH   1  25
TORSDOF 6
ENDMDL
MODEL 8
REMARK VINA RESULT:      -9.1      3.057      4.934
REMARK  Name = CHEMBL319646
REMARK  7 active torsions:
REMARK  status: ('A' for Active; 'I' for Inactive)
REMARK    1  A    between atoms: C_1  and  O_2
REMARK    2  A    between atoms: O_2  and  C_3
REMARK    3  A    between atoms: C_5  and  O_6
REMARK    4  A    between atoms: O_6  and  C_7
REMARK    5  A    between atoms: C_7  and  C_8
REMARK    6  A    between atoms: C_16  and  C_17
REMARK    7  A    between atoms: C_22  and  N_23
REMARK                            x       y       z     vdW  Elec       q    Type
REMARK                         _______ _______ _______ _____ _____    ______ ____
ROOT
ATOM      1  C   UNL     1      -3.385   5.433 128.550  0.00  0.00    +0.000 C 
ATOM      2  O   UNL     1      -2.489   5.899 127.835  0.00  0.00    +0.000 OA
ATOM      3  N   UNL     1      -4.331   4.489 128.005  0.00  0.00    +0.000 N 
ATOM      4  C   UNL     1      -3.801   3.223 127.425  0.00  0.00    +0.000 C 
ATOM      5  C   UNL     1      -4.670   2.599 126.342  0.00  0.00    +0.000 C 
ATOM      6  C   UNL     1      -6.300   2.202 126.881  0.00  0.00    +0.000 C 
ATOM      7  C   UNL     1      -6.653   3.833 127.274  0.00  0.00    +0.000 C 
ATOM      8  C   UNL     1      -5.767   4.482 128.350  0.00  0.00    +0.000 C 
ENDROOT
BRANCH   6   9
ATOM      9  N   UNL     1      -6.857   0.578 127.484  0.00  0.00    +0.000 N 
ATOM     10  C   UNL     1      -7.358   0.451 126.099  0.00  0.00    +0.000 C 
ATOM     11  O   UNL     1      -7.887   1.349 125.333  0.00  0.00    +0.000 OA
ATOM     12  O   UNL     1      -7.007  -0.652 125.512  0.00  0.00    +0.000 OA
ATOM     13  C   UNL     1      -8.185  -1.377 125.450  0.00  0.00    +0.000 C 
ATOM     14  C   UNL     1      -8.217  -1.885 126.821  0.00  0.00    +0.000 A 
ATOM     15  C   UNL     1      -8.925  -3.241 126.764  0.00  0.00    +0.000 A 
ATOM     16  C   UNL     1      -9.095  -4.086 127.811  0.00  0.00    +0.000 A 
ATOM     17  C   UNL     1      -8.439  -3.570 128.911  0.00  0.00    +0.000 A 
ATOM     18  C   UNL     1      -7.676  -2.116 128.957  0.00  0.00    +0.000 A 
ATOM     19  C   UNL     1      -7.551  -1.090 127.842  0.00  0.00    +0.000 A 
ENDBRANCH   6   9
BRANCH   1  25
ATOM     20  C   UNL     1      -4.179   6.668 130.738  0.00  0.00    +0.000 A 
ATOM     21  C   UNL     1      -4.034   6.912 132.113  0.00  0.00    +0.000 A 
ATOM     22  C   UNL     1      -3.071   6.259 132.867  0.00  0.00    +0.000 A 
ATOM     23  C   UNL     1      -2.305   5.279 132.258  0.00  0.00    +0.000 A 
ATOM     24  C   UNL     1      -2.410   5.064 130.866  0.00  0.00    +0.000 A 
ATOM     25  C   UNL     1      -3.318   5.794 130.048  0.00  0.00    +0.000 A 
BRANCH  20  27
ATOM     26  C   UNL     1      -6.440   7.073 130.950  0.00  0.00    +0.000 C 
ATOM     27  O   UNL     1      -5.251   7.363 130.243  0.00  0.00    +0.000 OA
ENDBRANCH  20  27
BRANCH  22  28
ATOM     28  O   UNL     1      -2.978   6.659 134.165  0.00  0.00    +0.000 OA
BRANCH  28  29
ATOM     29  C   UNL     1      -1.673   6.989 134.650  0.00  0.00    +0.000 C 
BRANCH  29  30
ATOM     30  C   UNL     1      -1.276   8.369 134.183  0.00  0.00    +0.000 A 
ATOM     31  C   UNL     1       0.026   8.637 133.741  0.00  0.00    +0.000 A 
ATOM     32  C   UNL     1       0.414   9.938 133.434  0.00  0.00    +0.000 A 
ATOM     33  C   UNL     1      -0.522  10.967 133.460  0.00  0.00    +0.000 A 
ATOM     34  C   UNL     1      -1.838  10.705 133.839  0.00  0.00    +0.000 A 
ATOM     35  C   UNL     1      -2.214   9.413 134.206  0.00  0.00    +0.000 A 
ENDBRANCH  29  30
ENDBRANCH  28  29
ENDBRANCH  22  28
ENDBRANCH   1  25
TORSDOF 6
ENDMDL
MODEL 9
REMARK VINA RESULT:      -8.9      4.114     11.724
REMARK  Name = CHEMBL319646
REMARK  7 active torsions:
REMARK  status: ('A' for Active; 'I' for Inactive)
REMARK    1  A    between atoms: C_1  and  O_2
REMARK    2  A    between atoms: O_2  and  C_3
REMARK    3  A    between atoms: C_5  and  O_6
REMARK    4  A    between atoms: O_6  and  C_7
REMARK    5  A    between atoms: C_7  and  C_8
REMARK    6  A    between atoms: C_16  and  C_17
REMARK    7  A    between atoms: C_22  and  N_23
REMARK                            x       y       z     vdW  Elec       q    Type
REMARK                         _______ _______ _______ _____ _____    ______ ____
ROOT
ATOM      1  C   UNL     1      -2.587   5.726 129.018  0.00  0.00    +0.000 C 
ATOM      2  O   UNL     1      -1.899   6.515 128.358  0.00  0.00    +0.000 OA
ATOM      3  N   UNL     1      -2.689   5.875 130.451  0.00  0.00    +0.000 N 
ATOM      4  C   UNL     1      -3.216   7.162 130.985  0.00  0.00    +0.000 C 
ATOM      5  C   UNL     1      -2.727   7.528 132.379  0.00  0.00    +0.000 C 
ATOM      6  C   UNL     1      -3.126   6.331 133.608  0.00  0.00    +0.000 C 
ATOM      7  C   UNL     1      -2.246   5.098 132.808  0.00  0.00    +0.000 C 
ATOM      8  C   UNL     1      -2.716   4.735 131.389  0.00  0.00    +0.000 C 
ENDROOT
BRANCH   6   9
ATOM      9  N   UNL     1      -4.574   6.377 134.711  0.00  0.00    +0.000 N 
ATOM     10  C   UNL     1      -3.604   6.989 135.642  0.00  0.00    +0.000 C 
ATOM     11  O   UNL     1      -2.353   6.712 135.822  0.00  0.00    +0.000 OA
ATOM     12  O   UNL     1      -4.016   8.096 136.180  0.00  0.00    +0.000 OA
ATOM     13  C   UNL     1      -4.268   7.745 137.496  0.00  0.00    +0.000 C 
ATOM     14  C   UNL     1      -5.574   7.110 137.322  0.00  0.00    +0.000 A 
ATOM     15  C   UNL     1      -6.348   7.347 138.621  0.00  0.00    +0.000 A 
ATOM     16  C   UNL     1      -7.636   6.989 138.849  0.00  0.00    +0.000 A 
ATOM     17  C   UNL     1      -8.164   6.468 137.684  0.00  0.00    +0.000 A 
ATOM     18  C   UNL     1      -7.325   6.225 136.293  0.00  0.00    +0.000 A 
ATOM     19  C   UNL     1      -5.856   6.512 136.025  0.00  0.00    +0.000 A 
ENDBRANCH   6   9
BRANCH   1  25
ATOM     20  C   UNL     1      -4.831   4.607 128.206  0.00  0.00    +0.000 A 
ATOM     21  C   UNL     1      -5.493   3.653 127.418  0.00  0.00    +0.000 A 
ATOM     22  C   UNL     1      -4.799   2.809 126.565  0.00  0.00    +0.000 A 
ATOM     23  C   UNL     1      -3.432   2.986 126.428  0.00  0.00    +0.000 A 
ATOM     24  C   UNL     1      -2.752   3.908 127.253  0.00  0.00    +0.000 A 
ATOM     25  C   UNL     1      -3.427   4.714 128.213  0.00  0.00    +0.000 A 
BRANCH  20  27
ATOM     26  C   UNL     1      -6.429   4.623 129.869  0.00  0.00    +0.000 C 
ATOM     27  O   UNL     1      -5.739   5.372 128.889  0.00  0.00    +0.000 OA
ENDBRANCH  20  27
BRANCH  22  28
ATOM     28  O   UNL     1      -5.554   1.871 125.932  0.00  0.00    +0.000 OA
BRANCH  28  29
ATOM     29  C   UNL     1      -5.307   0.502 126.271  0.00  0.00    +0.000 C 
BRANCH  29  30
ATOM     30  C   UNL     1      -5.797  -0.405 125.167  0.00  0.00    +0.000 A 
ATOM     31  C   UNL     1      -5.282  -1.698 125.010  0.00  0.00    +0.000 A 
ATOM     32  C   UNL     1      -5.648  -2.477 123.916  0.00  0.00    +0.000 A 
ATOM     33  C   UNL     1      -6.614  -2.016 123.027  0.00  0.00    +0.000 A 
ATOM     34  C   UNL     1      -7.182  -0.755 123.205  0.00  0.00    +0.000 A 
ATOM     35  C   UNL     1      -6.772   0.052 124.266  0.00  0.00    +0.000 A 
ENDBRANCH  29  30
ENDBRANCH  28  29
ENDBRANCH  22  28
ENDBRANCH   1  25
TORSDOF 6
ENDMDL
