MODEL 1
REMARK VINA RESULT:     -10.5      0.000      0.000
REMARK  Name = CHEMBL358793
REMARK  5 active torsions:
REMARK  status: ('A' for Active; 'I' for Inactive)
REMARK    1  A    between atoms: C_1  and  C_2
REMARK    2  A    between atoms: C_7  and  O_8
REMARK    3  A    between atoms: O_8  and  C_9
REMARK    4  A    between atoms: C_12  and  C_13
REMARK    5  A    between atoms: C_18  and  N_19
REMARK                            x       y       z     vdW  Elec       q    Type
REMARK                         _______ _______ _______ _____ _____    ______ ____
ROOT
ATOM      1  C   UNL     1      -5.088   2.854 130.703  0.00  0.00    +0.000 C 
ATOM      2  O   UNL     1      -4.024   3.064 131.285  0.00  0.00    +0.000 OA
ATOM      3  N   UNL     1      -6.242   3.651 130.916  0.00  0.00    +0.000 N 
ATOM      4  C   UNL     1      -6.159   5.110 130.833  0.00  0.00    +0.000 C 
ATOM      5  C   UNL     1      -6.783   5.803 132.031  0.00  0.00    +0.000 C 
ATOM      6  C   UNL     1      -8.513   5.563 131.965  0.00  0.00    +0.000 C 
ATOM      7  C   UNL     1      -8.288   3.886 132.306  0.00  0.00    +0.000 C 
ATOM      8  C   UNL     1      -7.585   3.126 131.188  0.00  0.00    +0.000 C 
ENDROOT
BRANCH   6   9
ATOM      9  N   UNL     1      -9.365   6.764 130.845  0.00  0.00    +0.000 N 
ATOM     10  C   UNL     1     -10.505   6.493 131.685  0.00  0.00    +0.000 C 
ATOM     11  O   UNL     1     -10.612   6.537 132.939  0.00  0.00    +0.000 OA
ATOM     12  O   UNL     1     -11.493   5.863 131.090  0.00  0.00    +0.000 OA
ATOM     13  C   UNL     1     -12.203   6.985 130.744  0.00  0.00    +0.000 C 
ATOM     14  C   UNL     1     -11.693   6.899 129.377  0.00  0.00    +0.000 A 
ATOM     15  C   UNL     1     -12.756   6.723 128.378  0.00  0.00    +0.000 A 
ATOM     16  C   UNL     1     -12.649   7.080 127.069  0.00  0.00    +0.000 A 
ATOM     17  C   UNL     1     -11.640   7.994 126.933  0.00  0.00    +0.000 A 
ATOM     18  C   UNL     1     -10.481   8.082 128.046  0.00  0.00    +0.000 A 
ATOM     19  C   UNL     1     -10.295   7.127 129.281  0.00  0.00    +0.000 A 
ENDBRANCH   6   9
BRANCH   1  23
ATOM     20  C   UNL     1      -5.433  -0.059 127.478  0.00  0.00    +0.000 A 
ATOM     21  C   UNL     1      -5.040   1.246 127.194  0.00  0.00    +0.000 A 
ATOM     22  C   UNL     1      -4.811   2.166 128.249  0.00  0.00    +0.000 A 
ATOM     23  C   UNL     1      -5.093   1.828 129.592  0.00  0.00    +0.000 A 
ATOM     24  C   UNL     1      -5.514   0.533 129.838  0.00  0.00    +0.000 A 
ATOM     25  C   UNL     1      -5.614  -0.400 128.812  0.00  0.00    +0.000 A 
BRANCH  20  26
ATOM     26  O   UNL     1      -5.399  -0.996 126.480  0.00  0.00    +0.000 OA
BRANCH  26  33
ATOM     27  C   UNL     1      -9.637  -3.516 123.479  0.00  0.00    +0.000 C 
ATOM     28  C   UNL     1      -9.181  -2.060 123.459  0.00  0.00    +0.000 C 
ATOM     29  O   UNL     1      -9.714  -1.232 122.727  0.00  0.00    +0.000 OA
ATOM     30  N   UNL     1      -8.201  -1.749 124.395  0.00  0.00    +0.000 N 
ATOM     31  C   UNL     1      -8.143  -0.499 125.154  0.00  0.00    +0.000 C 
ATOM     32  C   UNL     1      -6.862   0.287 124.853  0.00  0.00    +0.000 C 
ATOM     33  C   UNL     1      -5.611  -0.569 125.114  0.00  0.00    +0.000 C 
ATOM     34  C   UNL     1      -5.750  -1.841 124.254  0.00  0.00    +0.000 C 
ATOM     35  C   UNL     1      -7.042  -2.602 124.564  0.00  0.00    +0.000 C 
ENDBRANCH  26  33
ENDBRANCH  20  26
ENDBRANCH   1  23
TORSDOF 4
ENDMDL
MODEL 2
REMARK VINA RESULT:     -10.4      1.065      1.480
REMARK  Name = CHEMBL358793
REMARK  5 active torsions:
REMARK  status: ('A' for Active; 'I' for Inactive)
REMARK    1  A    between atoms: C_1  and  C_2
REMARK    2  A    between atoms: C_7  and  O_8
REMARK    3  A    between atoms: O_8  and  C_9
REMARK    4  A    between atoms: C_12  and  C_13
REMARK    5  A    between atoms: C_18  and  N_19
REMARK                            x       y       z     vdW  Elec       q    Type
REMARK                         _______ _______ _______ _____ _____    ______ ____
ROOT
ATOM      1  C   UNL     1      -4.638   3.321 129.917  0.00  0.00    +0.000 C 
ATOM      2  O   UNL     1      -3.513   3.598 130.330  0.00  0.00    +0.000 OA
ATOM      3  N   UNL     1      -5.795   4.032 130.324  0.00  0.00    +0.000 N 
ATOM      4  C   UNL     1      -5.826   5.494 130.261  0.00  0.00    +0.000 C 
ATOM      5  C   UNL     1      -6.299   6.128 131.556  0.00  0.00    +0.000 C 
ATOM      6  C   UNL     1      -7.998   5.768 131.755  0.00  0.00    +0.000 C 
ATOM      7  C   UNL     1      -7.609   4.107 132.020  0.00  0.00    +0.000 C 
ATOM      8  C   UNL     1      -7.040   3.411 130.791  0.00  0.00    +0.000 C 
ENDROOT
BRANCH   6   9
ATOM      9  N   UNL     1      -9.095   6.918 130.807  0.00  0.00    +0.000 N 
ATOM     10  C   UNL     1     -10.094   6.486 131.752  0.00  0.00    +0.000 C 
ATOM     11  O   UNL     1     -10.059   6.461 133.010  0.00  0.00    +0.000 OA
ATOM     12  O   UNL     1     -11.075   5.780 131.234  0.00  0.00    +0.000 OA
ATOM     13  C   UNL     1     -11.932   6.831 131.035  0.00  0.00    +0.000 C 
ATOM     14  C   UNL     1     -11.579   6.864 129.617  0.00  0.00    +0.000 A 
ATOM     15  C   UNL     1     -12.727   6.619 128.734  0.00  0.00    +0.000 A 
ATOM     16  C   UNL     1     -12.811   7.044 127.443  0.00  0.00    +0.000 A 
ATOM     17  C   UNL     1     -11.924   8.067 127.249  0.00  0.00    +0.000 A 
ATOM     18  C   UNL     1     -10.660   8.231 128.230  0.00  0.00    +0.000 A 
ATOM     19  C   UNL     1     -10.233   7.248 129.380  0.00  0.00    +0.000 A 
ENDBRANCH   6   9
BRANCH   1  23
ATOM     20  C   UNL     1      -5.285   0.436 126.713  0.00  0.00    +0.000 A 
ATOM     21  C   UNL     1      -4.977   1.759 126.403  0.00  0.00    +0.000 A 
ATOM     22  C   UNL     1      -4.649   2.673 127.437  0.00  0.00    +0.000 A 
ATOM     23  C   UNL     1      -4.747   2.309 128.798  0.00  0.00    +0.000 A 
ATOM     24  C   UNL     1      -5.088   0.996 129.073  0.00  0.00    +0.000 A 
ATOM     25  C   UNL     1      -5.285   0.072 128.052  0.00  0.00    +0.000 A 
BRANCH  20  26
ATOM     26  O   UNL     1      -5.345  -0.486 125.702  0.00  0.00    +0.000 OA
BRANCH  26  33
ATOM     27  C   UNL     1     -10.124   1.303 123.004  0.00  0.00    +0.000 C 
ATOM     28  C   UNL     1      -9.499  -0.089 123.028  0.00  0.00    +0.000 C 
ATOM     29  O   UNL     1     -10.013  -1.032 122.435  0.00  0.00    +0.000 OA
ATOM     30  N   UNL     1      -8.274  -0.160 123.682  0.00  0.00    +0.000 N 
ATOM     31  C   UNL     1      -7.141  -0.975 123.238  0.00  0.00    +0.000 C 
ATOM     32  C   UNL     1      -6.764  -2.034 124.280  0.00  0.00    +0.000 C 
ATOM     33  C   UNL     1      -6.473  -1.390 125.647  0.00  0.00    +0.000 C 
ATOM     34  C   UNL     1      -7.726  -0.583 126.039  0.00  0.00    +0.000 C 
ATOM     35  C   UNL     1      -8.090   0.460 124.978  0.00  0.00    +0.000 C 
ENDBRANCH  26  33
ENDBRANCH  20  26
ENDBRANCH   1  23
TORSDOF 4
ENDMDL
MODEL 3
REMARK VINA RESULT:     -10.0      4.489     10.662
REMARK  Name = CHEMBL358793
REMARK  5 active torsions:
REMARK  status: ('A' for Active; 'I' for Inactive)
REMARK    1  A    between atoms: C_1  and  C_2
REMARK    2  A    between atoms: C_7  and  O_8
REMARK    3  A    between atoms: O_8  and  C_9
REMARK    4  A    between atoms: C_12  and  C_13
REMARK    5  A    between atoms: C_18  and  N_19
REMARK                            x       y       z     vdW  Elec       q    Type
REMARK                         _______ _______ _______ _____ _____    ______ ____
ROOT
ATOM      1  C   UNL     1      -6.359   4.678 125.677  0.00  0.00    +0.000 C 
ATOM      2  O   UNL     1      -6.391   5.763 125.098  0.00  0.00    +0.000 OA
ATOM      3  N   UNL     1      -6.890   3.494 125.106  0.00  0.00    +0.000 N 
ATOM      4  C   UNL     1      -6.518   3.097 123.746  0.00  0.00    +0.000 C 
ATOM      5  C   UNL     1      -7.720   2.765 122.882  0.00  0.00    +0.000 C 
ATOM      6  C   UNL     1      -8.434   1.284 123.478  0.00  0.00    +0.000 C 
ATOM      7  C   UNL     1      -8.945   2.111 124.905  0.00  0.00    +0.000 C 
ATOM      8  C   UNL     1      -7.792   2.563 125.793  0.00  0.00    +0.000 C 
ENDROOT
BRANCH   6   9
ATOM      9  N   UNL     1      -7.579  -0.232 122.848  0.00  0.00    +0.000 N 
ATOM     10  C   UNL     1      -8.807  -0.886 123.225  0.00  0.00    +0.000 C 
ATOM     11  O   UNL     1      -9.998  -0.601 122.929  0.00  0.00    +0.000 OA
ATOM     12  O   UNL     1      -8.697  -1.735 124.223  0.00  0.00    +0.000 OA
ATOM     13  C   UNL     1      -8.514  -2.853 123.452  0.00  0.00    +0.000 C 
ATOM     14  C   UNL     1      -7.074  -2.802 123.702  0.00  0.00    +0.000 A 
ATOM     15  C   UNL     1      -6.569  -3.999 124.388  0.00  0.00    +0.000 A 
ATOM     16  C   UNL     1      -5.281  -4.437 124.324  0.00  0.00    +0.000 A 
ATOM     17  C   UNL     1      -4.676  -3.896 123.223  0.00  0.00    +0.000 A 
ATOM     18  C   UNL     1      -5.262  -2.549 122.566  0.00  0.00    +0.000 A 
ATOM     19  C   UNL     1      -6.441  -1.671 123.123  0.00  0.00    +0.000 A 
ENDBRANCH   6   9
BRANCH   1  23
ATOM     20  C   UNL     1      -4.098   4.743 129.404  0.00  0.00    +0.000 A 
ATOM     21  C   UNL     1      -5.434   4.352 129.411  0.00  0.00    +0.000 A 
ATOM     22  C   UNL     1      -6.142   4.214 128.189  0.00  0.00    +0.000 A 
ATOM     23  C   UNL     1      -5.558   4.587 126.957  0.00  0.00    +0.000 A 
ATOM     24  C   UNL     1      -4.239   5.002 126.988  0.00  0.00    +0.000 A 
ATOM     25  C   UNL     1      -3.513   5.014 128.174  0.00  0.00    +0.000 A 
BRANCH  20  26
ATOM     26  O   UNL     1      -3.364   4.622 130.554  0.00  0.00    +0.000 OA
BRANCH  26  33
ATOM     27  C   UNL     1      -0.015   8.402 133.348  0.00  0.00    +0.000 C 
ATOM     28  C   UNL     1      -1.529   8.416 133.160  0.00  0.00    +0.000 C 
ATOM     29  O   UNL     1      -2.225   9.303 133.643  0.00  0.00    +0.000 OA
ATOM     30  N   UNL     1      -2.017   7.414 132.330  0.00  0.00    +0.000 N 
ATOM     31  C   UNL     1      -3.105   7.590 131.367  0.00  0.00    +0.000 C 
ATOM     32  C   UNL     1      -4.300   6.686 131.692  0.00  0.00    +0.000 C 
ATOM     33  C   UNL     1      -3.874   5.210 131.773  0.00  0.00    +0.000 C 
ATOM     34  C   UNL     1      -2.751   5.124 132.827  0.00  0.00    +0.000 C 
ATOM     35  C   UNL     1      -1.576   6.043 132.486  0.00  0.00    +0.000 C 
ENDBRANCH  26  33
ENDBRANCH  20  26
ENDBRANCH   1  23
TORSDOF 4
ENDMDL
MODEL 4
REMARK VINA RESULT:      -9.4      5.073      6.420
REMARK  Name = CHEMBL358793
REMARK  5 active torsions:
REMARK  status: ('A' for Active; 'I' for Inactive)
REMARK    1  A    between atoms: C_1  and  C_2
REMARK    2  A    between atoms: C_7  and  O_8
REMARK    3  A    between atoms: O_8  and  C_9
REMARK    4  A    between atoms: C_12  and  C_13
REMARK    5  A    between atoms: C_18  and  N_19
REMARK                            x       y       z     vdW  Elec       q    Type
REMARK                         _______ _______ _______ _____ _____    ______ ____
ROOT
ATOM      1  C   UNL     1      -5.099  -2.401 131.338  0.00  0.00    +0.000 C 
ATOM      2  O   UNL     1      -4.702  -3.498 131.730  0.00  0.00    +0.000 OA
ATOM      3  N   UNL     1      -4.856  -1.203 132.057  0.00  0.00    +0.000 N 
ATOM      4  C   UNL     1      -3.503  -0.869 132.504  0.00  0.00    +0.000 C 
ATOM      5  C   UNL     1      -3.446  -0.488 133.972  0.00  0.00    +0.000 C 
ATOM      6  C   UNL     1      -4.251   1.051 134.171  0.00  0.00    +0.000 C 
ATOM      7  C   UNL     1      -5.764   0.298 133.817  0.00  0.00    +0.000 C 
ATOM      8  C   UNL     1      -5.875  -0.198 132.381  0.00  0.00    +0.000 C 
ENDROOT
BRANCH   6   9
ATOM      9  N   UNL     1      -3.162   2.492 133.769  0.00  0.00    +0.000 N 
ATOM     10  C   UNL     1      -3.746   3.059 134.959  0.00  0.00    +0.000 C 
ATOM     11  O   UNL     1      -3.841   2.580 136.120  0.00  0.00    +0.000 OA
ATOM     12  O   UNL     1      -4.515   4.105 134.752  0.00  0.00    +0.000 OA
ATOM     13  C   UNL     1      -3.544   5.052 134.958  0.00  0.00    +0.000 C 
ATOM     14  C   UNL     1      -3.394   5.225 133.514  0.00  0.00    +0.000 A 
ATOM     15  C   UNL     1      -3.700   6.590 133.066  0.00  0.00    +0.000 A 
ATOM     16  C   UNL     1      -3.211   7.156 131.928  0.00  0.00    +0.000 A 
ATOM     17  C   UNL     1      -2.095   6.472 131.530  0.00  0.00    +0.000 A 
ATOM     18  C   UNL     1      -1.864   4.957 132.023  0.00  0.00    +0.000 A 
ATOM     19  C   UNL     1      -2.865   4.082 132.861  0.00  0.00    +0.000 A 
ENDBRANCH   6   9
BRANCH   1  23
ATOM     20  C   UNL     1      -6.667  -2.457 127.271  0.00  0.00    +0.000 A 
ATOM     21  C   UNL     1      -7.446  -2.938 128.321  0.00  0.00    +0.000 A 
ATOM     22  C   UNL     1      -6.990  -2.814 129.659  0.00  0.00    +0.000 A 
ATOM     23  C   UNL     1      -5.699  -2.322 129.952  0.00  0.00    +0.000 A 
ATOM     24  C   UNL     1      -4.937  -1.883 128.884  0.00  0.00    +0.000 A 
ATOM     25  C   UNL     1      -5.440  -1.890 127.587  0.00  0.00    +0.000 A 
BRANCH  20  26
ATOM     26  O   UNL     1      -7.225  -2.350 126.025  0.00  0.00    +0.000 OA
BRANCH  26  33
ATOM     27  C   UNL     1      -9.190   2.035 122.826  0.00  0.00    +0.000 C 
ATOM     28  C   UNL     1      -9.755   0.625 122.974  0.00  0.00    +0.000 C 
ATOM     29  O   UNL     1     -10.773   0.279 122.384  0.00  0.00    +0.000 OA
ATOM     30  N   UNL     1      -8.972  -0.233 123.737  0.00  0.00    +0.000 N 
ATOM     31  C   UNL     1      -8.757  -1.650 123.437  0.00  0.00    +0.000 C 
ATOM     32  C   UNL     1      -9.284  -2.552 124.559  0.00  0.00    +0.000 C 
ATOM     33  C   UNL     1      -8.657  -2.179 125.913  0.00  0.00    +0.000 C 
ATOM     34  C   UNL     1      -8.960  -0.686 126.151  0.00  0.00    +0.000 C 
ATOM     35  C   UNL     1      -8.434   0.193 125.013  0.00  0.00    +0.000 C 
ENDBRANCH  26  33
ENDBRANCH  20  26
ENDBRANCH   1  23
TORSDOF 4
ENDMDL
MODEL 5
REMARK VINA RESULT:      -9.2      4.891      9.951
REMARK  Name = CHEMBL358793
REMARK  5 active torsions:
REMARK  status: ('A' for Active; 'I' for Inactive)
REMARK    1  A    between atoms: C_1  and  C_2
REMARK    2  A    between atoms: C_7  and  O_8
REMARK    3  A    between atoms: O_8  and  C_9
REMARK    4  A    between atoms: C_12  and  C_13
REMARK    5  A    between atoms: C_18  and  N_19
REMARK                            x       y       z     vdW  Elec       q    Type
REMARK                         _______ _______ _______ _____ _____    ______ ____
ROOT
ATOM      1  C   UNL     1      -4.867   4.326 132.468  0.00  0.00    +0.000 C 
ATOM      2  O   UNL     1      -3.938   5.111 132.660  0.00  0.00    +0.000 OA
ATOM      3  N   UNL     1      -4.707   2.920 132.564  0.00  0.00    +0.000 N 
ATOM      4  C   UNL     1      -4.076   2.326 133.744  0.00  0.00    +0.000 C 
ATOM      5  C   UNL     1      -2.978   1.341 133.390  0.00  0.00    +0.000 C 
ATOM      6  C   UNL     1      -3.716  -0.067 132.663  0.00  0.00    +0.000 C 
ATOM      7  C   UNL     1      -4.132   0.875 131.277  0.00  0.00    +0.000 C 
ATOM      8  C   UNL     1      -5.169   1.953 131.563  0.00  0.00    +0.000 C 
ENDROOT
BRANCH   6   9
ATOM      9  N   UNL     1      -4.368  -1.265 133.913  0.00  0.00    +0.000 N 
ATOM     10  C   UNL     1      -4.145  -2.231 132.866  0.00  0.00    +0.000 C 
ATOM     11  O   UNL     1      -3.113  -2.455 132.181  0.00  0.00    +0.000 OA
ATOM     12  O   UNL     1      -5.236  -2.776 132.376  0.00  0.00    +0.000 OA
ATOM     13  C   UNL     1      -5.234  -3.880 133.189  0.00  0.00    +0.000 C 
ATOM     14  C   UNL     1      -6.255  -3.268 134.038  0.00  0.00    +0.000 A 
ATOM     15  C   UNL     1      -7.499  -4.048 134.093  0.00  0.00    +0.000 A 
ATOM     16  C   UNL     1      -8.396  -3.999 135.116  0.00  0.00    +0.000 A 
ATOM     17  C   UNL     1      -7.779  -3.498 136.230  0.00  0.00    +0.000 A 
ATOM     18  C   UNL     1      -6.450  -2.604 136.078  0.00  0.00    +0.000 A 
ATOM     19  C   UNL     1      -5.796  -2.119 134.733  0.00  0.00    +0.000 A 
ENDBRANCH   6   9
BRANCH   1  23
ATOM     20  C   UNL     1      -8.804   6.188 132.271  0.00  0.00    +0.000 A 
ATOM     21  C   UNL     1      -7.788   6.622 131.422  0.00  0.00    +0.000 A 
ATOM     22  C   UNL     1      -6.543   5.943 131.398  0.00  0.00    +0.000 A 
ATOM     23  C   UNL     1      -6.256   4.903 132.310  0.00  0.00    +0.000 A 
ATOM     24  C   UNL     1      -7.274   4.517 133.163  0.00  0.00    +0.000 A 
ATOM     25  C   UNL     1      -8.534   5.103 133.094  0.00  0.00    +0.000 A 
BRANCH  20  26
ATOM     26  O   UNL     1     -10.069   6.683 132.100  0.00  0.00    +0.000 OA
BRANCH  26  33
ATOM     27  C   UNL     1     -13.538   9.459 128.416  0.00  0.00    +0.000 C 
ATOM     28  C   UNL     1     -12.885   8.088 128.272  0.00  0.00    +0.000 C 
ATOM     29  O   UNL     1     -13.072   7.391 127.280  0.00  0.00    +0.000 OA
ATOM     30  N   UNL     1     -12.006   7.757 129.297  0.00  0.00    +0.000 N 
ATOM     31  C   UNL     1     -10.741   7.043 129.108  0.00  0.00    +0.000 C 
ATOM     32  C   UNL     1     -10.730   5.705 129.856  0.00  0.00    +0.000 C 
ATOM     33  C   UNL     1     -11.030   5.902 131.352  0.00  0.00    +0.000 C 
ATOM     34  C   UNL     1     -12.385   6.631 131.447  0.00  0.00    +0.000 C 
ATOM     35  C   UNL     1     -12.375   7.958 130.683  0.00  0.00    +0.000 C 
ENDBRANCH  26  33
ENDBRANCH  20  26
ENDBRANCH   1  23
TORSDOF 4
ENDMDL
MODEL 6
REMARK VINA RESULT:      -9.1      4.862      5.615
REMARK  Name = CHEMBL358793
REMARK  5 active torsions:
REMARK  status: ('A' for Active; 'I' for Inactive)
REMARK    1  A    between atoms: C_1  and  C_2
REMARK    2  A    between atoms: C_7  and  O_8
REMARK    3  A    between atoms: O_8  and  C_9
REMARK    4  A    between atoms: C_12  and  C_13
REMARK    5  A    between atoms: C_18  and  N_19
REMARK                            x       y       z     vdW  Elec       q    Type
REMARK                         _______ _______ _______ _____ _____    ______ ____
ROOT
ATOM      1  C   UNL     1      -5.238  -1.363 132.524  0.00  0.00    +0.000 C 
ATOM      2  O   UNL     1      -4.791  -2.145 133.363  0.00  0.00    +0.000 OA
ATOM      3  N   UNL     1      -4.996   0.033 132.581  0.00  0.00    +0.000 N 
ATOM      4  C   UNL     1      -3.633   0.542 132.741  0.00  0.00    +0.000 C 
ATOM      5  C   UNL     1      -3.516   1.570 133.851  0.00  0.00    +0.000 C 
ATOM      6  C   UNL     1      -4.356   3.019 133.349  0.00  0.00    +0.000 C 
ATOM      7  C   UNL     1      -5.861   2.183 133.476  0.00  0.00    +0.000 C 
ATOM      8  C   UNL     1      -6.027   1.069 132.451  0.00  0.00    +0.000 C 
ENDROOT
BRANCH   6   9
ATOM      9  N   UNL     1      -3.330   4.104 132.256  0.00  0.00    +0.000 N 
ATOM     10  C   UNL     1      -3.672   5.122 133.218  0.00  0.00    +0.000 C 
ATOM     11  O   UNL     1      -3.561   5.119 134.472  0.00  0.00    +0.000 OA
ATOM     12  O   UNL     1      -4.444   6.081 132.756  0.00  0.00    +0.000 OA
ATOM     13  C   UNL     1      -3.433   6.945 132.424  0.00  0.00    +0.000 C 
ATOM     14  C   UNL     1      -3.548   6.556 131.019  0.00  0.00    +0.000 A 
ATOM     15  C   UNL     1      -3.904   7.678 130.140  0.00  0.00    +0.000 A 
ATOM     16  C   UNL     1      -3.621   7.734 128.809  0.00  0.00    +0.000 A 
ATOM     17  C   UNL     1      -2.612   6.855 128.527  0.00  0.00    +0.000 A 
ATOM     18  C   UNL     1      -2.325   5.617 129.515  0.00  0.00    +0.000 A 
ATOM     19  C   UNL     1      -3.173   5.209 130.775  0.00  0.00    +0.000 A 
ENDBRANCH   6   9
BRANCH   1  23
ATOM     20  C   UNL     1      -7.193  -2.739 128.879  0.00  0.00    +0.000 A 
ATOM     21  C   UNL     1      -5.805  -2.790 128.983  0.00  0.00    +0.000 A 
ATOM     22  C   UNL     1      -5.170  -2.457 130.207  0.00  0.00    +0.000 A 
ATOM     23  C   UNL     1      -5.906  -1.949 131.301  0.00  0.00    +0.000 A 
ATOM     24  C   UNL     1      -7.281  -1.880 131.154  0.00  0.00    +0.000 A 
ATOM     25  C   UNL     1      -7.906  -2.328 129.996  0.00  0.00    +0.000 A 
BRANCH  20  26
ATOM     26  O   UNL     1      -7.798  -3.305 127.789  0.00  0.00    +0.000 OA
BRANCH  26  33
ATOM     27  C   UNL     1      -6.106  -1.826 122.472  0.00  0.00    +0.000 C 
ATOM     28  C   UNL     1      -7.500  -2.202 122.967  0.00  0.00    +0.000 C 
ATOM     29  O   UNL     1      -8.467  -2.208 122.212  0.00  0.00    +0.000 OA
ATOM     30  N   UNL     1      -7.549  -2.623 124.291  0.00  0.00    +0.000 N 
ATOM     31  C   UNL     1      -8.393  -3.712 124.786  0.00  0.00    +0.000 C 
ATOM     32  C   UNL     1      -9.403  -3.215 125.827  0.00  0.00    +0.000 C 
ATOM     33  C   UNL     1      -8.695  -2.499 126.990  0.00  0.00    +0.000 C 
ATOM     34  C   UNL     1      -7.859  -1.359 126.374  0.00  0.00    +0.000 C 
ATOM     35  C   UNL     1      -6.867  -1.878 125.330  0.00  0.00    +0.000 C 
ENDBRANCH  26  33
ENDBRANCH  20  26
ENDBRANCH   1  23
TORSDOF 4
ENDMDL
MODEL 7
REMARK VINA RESULT:      -9.1      4.031     10.048
REMARK  Name = CHEMBL358793
REMARK  5 active torsions:
REMARK  status: ('A' for Active; 'I' for Inactive)
REMARK    1  A    between atoms: C_1  and  C_2
REMARK    2  A    between atoms: C_7  and  O_8
REMARK    3  A    between atoms: O_8  and  C_9
REMARK    4  A    between atoms: C_12  and  C_13
REMARK    5  A    between atoms: C_18  and  N_19
REMARK                            x       y       z     vdW  Elec       q    Type
REMARK                         _______ _______ _______ _____ _____    ______ ____
ROOT
ATOM      1  C   UNL     1      -5.154   4.916 127.499  0.00  0.00    +0.000 C 
ATOM      2  O   UNL     1      -4.453   5.873 127.173  0.00  0.00    +0.000 OA
ATOM      3  N   UNL     1      -5.857   4.129 126.551  0.00  0.00    +0.000 N 
ATOM      4  C   UNL     1      -5.163   3.583 125.383  0.00  0.00    +0.000 C 
ATOM      5  C   UNL     1      -5.893   3.862 124.083  0.00  0.00    +0.000 C 
ATOM      6  C   UNL     1      -7.366   2.920 124.066  0.00  0.00    +0.000 C 
ATOM      7  C   UNL     1      -8.007   3.911 125.326  0.00  0.00    +0.000 C 
ATOM      8  C   UNL     1      -7.273   3.760 126.652  0.00  0.00    +0.000 C 
ENDROOT
BRANCH   6   9
ATOM      9  N   UNL     1      -7.096   1.172 123.523  0.00  0.00    +0.000 N 
ATOM     10  C   UNL     1      -8.495   1.232 123.180  0.00  0.00    +0.000 C 
ATOM     11  O   UNL     1      -9.120   2.073 122.483  0.00  0.00    +0.000 OA
ATOM     12  O   UNL     1      -9.274   0.457 123.902  0.00  0.00    +0.000 OA
ATOM     13  C   UNL     1      -9.264  -0.612 123.044  0.00  0.00    +0.000 C 
ATOM     14  C   UNL     1      -8.278  -1.290 123.885  0.00  0.00    +0.000 A 
ATOM     15  C   UNL     1      -8.764  -2.569 124.420  0.00  0.00    +0.000 A 
ATOM     16  C   UNL     1      -7.961  -3.598 124.807  0.00  0.00    +0.000 A 
ATOM     17  C   UNL     1      -6.731  -3.450 124.226  0.00  0.00    +0.000 A 
ATOM     18  C   UNL     1      -6.252  -2.001 123.717  0.00  0.00    +0.000 A 
ATOM     19  C   UNL     1      -7.016  -0.641 123.910  0.00  0.00    +0.000 A 
ENDBRANCH   6   9
BRANCH   1  23
ATOM     20  C   UNL     1      -4.856   3.905 131.729  0.00  0.00    +0.000 A 
ATOM     21  C   UNL     1      -6.039   4.443 131.227  0.00  0.00    +0.000 A 
ATOM     22  C   UNL     1      -6.184   4.663 129.833  0.00  0.00    +0.000 A 
ATOM     23  C   UNL     1      -5.105   4.466 128.942  0.00  0.00    +0.000 A 
ATOM     24  C   UNL     1      -3.933   3.961 129.478  0.00  0.00    +0.000 A 
ATOM     25  C   UNL     1      -3.840   3.629 130.825  0.00  0.00    +0.000 A 
BRANCH  20  26
ATOM     26  O   UNL     1      -4.826   3.462 133.025  0.00  0.00    +0.000 OA
BRANCH  26  33
ATOM     27  C   UNL     1      -7.503   6.411 137.202  0.00  0.00    +0.000 C 
ATOM     28  C   UNL     1      -6.212   5.603 137.274  0.00  0.00    +0.000 C 
ATOM     29  O   UNL     1      -5.568   5.516 138.315  0.00  0.00    +0.000 OA
ATOM     30  N   UNL     1      -5.897   4.912 136.109  0.00  0.00    +0.000 N 
ATOM     31  C   UNL     1      -5.319   3.567 136.071  0.00  0.00    +0.000 C 
ATOM     32  C   UNL     1      -3.941   3.563 135.399  0.00  0.00    +0.000 C 
ATOM     33  C   UNL     1      -4.010   4.169 133.987  0.00  0.00    +0.000 C 
ATOM     34  C   UNL     1      -4.602   5.586 134.135  0.00  0.00    +0.000 C 
ATOM     35  C   UNL     1      -5.971   5.565 134.818  0.00  0.00    +0.000 C 
ENDBRANCH  26  33
ENDBRANCH  20  26
ENDBRANCH   1  23
TORSDOF 4
ENDMDL
MODEL 8
REMARK VINA RESULT:      -9.1      4.055      8.838
REMARK  Name = CHEMBL358793
REMARK  5 active torsions:
REMARK  status: ('A' for Active; 'I' for Inactive)
REMARK    1  A    between atoms: C_1  and  C_2
REMARK    2  A    between atoms: C_7  and  O_8
REMARK    3  A    between atoms: O_8  and  C_9
REMARK    4  A    between atoms: C_12  and  C_13
REMARK    5  A    between atoms: C_18  and  N_19
REMARK                            x       y       z     vdW  Elec       q    Type
REMARK                         _______ _______ _______ _____ _____    ______ ____
ROOT
ATOM      1  C   UNL     1      -5.094   4.777 127.530  0.00  0.00    +0.000 C 
ATOM      2  O   UNL     1      -4.441   5.773 127.221  0.00  0.00    +0.000 OA
ATOM      3  N   UNL     1      -5.820   4.018 126.577  0.00  0.00    +0.000 N 
ATOM      4  C   UNL     1      -5.171   3.559 125.347  0.00  0.00    +0.000 C 
ATOM      5  C   UNL     1      -5.977   3.881 124.102  0.00  0.00    +0.000 C 
ATOM      6  C   UNL     1      -7.418   2.891 124.109  0.00  0.00    +0.000 C 
ATOM      7  C   UNL     1      -8.023   3.791 125.452  0.00  0.00    +0.000 C 
ATOM      8  C   UNL     1      -7.217   3.596 126.729  0.00  0.00    +0.000 C 
ENDROOT
BRANCH   6   9
ATOM      9  N   UNL     1      -7.122   1.184 123.458  0.00  0.00    +0.000 N 
ATOM     10  C   UNL     1      -8.543   1.205 123.213  0.00  0.00    +0.000 C 
ATOM     11  O   UNL     1      -9.245   2.054 122.604  0.00  0.00    +0.000 OA
ATOM     12  O   UNL     1      -9.242   0.364 123.944  0.00  0.00    +0.000 OA
ATOM     13  C   UNL     1      -9.251  -0.660 123.032  0.00  0.00    +0.000 C 
ATOM     14  C   UNL     1      -8.186  -1.338 123.769  0.00  0.00    +0.000 A 
ATOM     15  C   UNL     1      -8.587  -2.661 124.268  0.00  0.00    +0.000 A 
ATOM     16  C   UNL     1      -7.721  -3.674 124.546  0.00  0.00    +0.000 A 
ATOM     17  C   UNL     1      -6.541  -3.449 123.892  0.00  0.00    +0.000 A 
ATOM     18  C   UNL     1      -6.151  -1.958 123.429  0.00  0.00    +0.000 A 
ATOM     19  C   UNL     1      -6.950  -0.641 123.744  0.00  0.00    +0.000 A 
ENDBRANCH   6   9
BRANCH   1  23
ATOM     20  C   UNL     1      -4.986   3.111 131.557  0.00  0.00    +0.000 A 
ATOM     21  C   UNL     1      -4.277   2.491 130.531  0.00  0.00    +0.000 A 
ATOM     22  C   UNL     1      -4.211   3.092 129.247  0.00  0.00    +0.000 A 
ATOM     23  C   UNL     1      -4.955   4.253 128.942  0.00  0.00    +0.000 A 
ATOM     24  C   UNL     1      -5.675   4.827 129.974  0.00  0.00    +0.000 A 
ATOM     25  C   UNL     1      -5.634   4.303 131.262  0.00  0.00    +0.000 A 
BRANCH  20  26
ATOM     26  O   UNL     1      -4.828   2.660 132.840  0.00  0.00    +0.000 OA
BRANCH  26  33
ATOM     27  C   UNL     1      -6.368  -2.870 133.441  0.00  0.00    +0.000 C 
ATOM     28  C   UNL     1      -6.440  -1.737 134.460  0.00  0.00    +0.000 C 
ATOM     29  O   UNL     1      -6.885  -1.919 135.589  0.00  0.00    +0.000 OA
ATOM     30  N   UNL     1      -5.877  -0.540 134.033  0.00  0.00    +0.000 N 
ATOM     31  C   UNL     1      -5.096   0.361 134.884  0.00  0.00    +0.000 C 
ATOM     32  C   UNL     1      -5.761   1.736 135.010  0.00  0.00    +0.000 C 
ATOM     33  C   UNL     1      -6.006   2.364 133.627  0.00  0.00    +0.000 C 
ATOM     34  C   UNL     1      -6.853   1.360 132.821  0.00  0.00    +0.000 C 
ATOM     35  C   UNL     1      -6.175  -0.009 132.719  0.00  0.00    +0.000 C 
ENDBRANCH  26  33
ENDBRANCH  20  26
ENDBRANCH   1  23
TORSDOF 4
ENDMDL
MODEL 9
REMARK VINA RESULT:      -9.1      6.307     11.276
REMARK  Name = CHEMBL358793
REMARK  5 active torsions:
REMARK  status: ('A' for Active; 'I' for Inactive)
REMARK    1  A    between atoms: C_1  and  C_2
REMARK    2  A    between atoms: C_7  and  O_8
REMARK    3  A    between atoms: O_8  and  C_9
REMARK    4  A    between atoms: C_12  and  C_13
REMARK    5  A    between atoms: C_18  and  N_19
REMARK                            x       y       z     vdW  Elec       q    Type
REMARK                         _______ _______ _______ _____ _____    ______ ____
ROOT
ATOM      1  C   UNL     1      -4.084   5.325 134.073  0.00  0.00    +0.000 C 
ATOM      2  O   UNL     1      -3.568   4.514 134.840  0.00  0.00    +0.000 OA
ATOM      3  N   UNL     1      -5.269   5.040 133.347  0.00  0.00    +0.000 N 
ATOM      4  C   UNL     1      -6.449   4.515 134.035  0.00  0.00    +0.000 C 
ATOM      5  C   UNL     1      -7.026   3.286 133.357  0.00  0.00    +0.000 C 
ATOM      6  C   UNL     1      -7.722   3.777 131.829  0.00  0.00    +0.000 C 
ATOM      7  C   UNL     1      -6.139   4.098 131.219  0.00  0.00    +0.000 C 
ATOM      8  C   UNL     1      -5.446   5.266 131.908  0.00  0.00    +0.000 C 
ENDROOT
BRANCH   6   9
ATOM      9  N   UNL     1      -9.430   4.466 132.004  0.00  0.00    +0.000 N 
ATOM     10  C   UNL     1      -9.765   3.449 131.038  0.00  0.00    +0.000 C 
ATOM     11  O   UNL     1      -9.524   2.213 131.050  0.00  0.00    +0.000 OA
ATOM     12  O   UNL     1     -10.142   3.904 129.864  0.00  0.00    +0.000 OA
ATOM     13  C   UNL     1     -11.489   3.893 130.120  0.00  0.00    +0.000 C 
ATOM     14  C   UNL     1     -11.465   5.335 130.362  0.00  0.00    +0.000 A 
ATOM     15  C   UNL     1     -12.318   6.086 129.432  0.00  0.00    +0.000 A 
ATOM     16  C   UNL     1     -12.855   7.310 129.696  0.00  0.00    +0.000 A 
ATOM     17  C   UNL     1     -12.862   7.515 131.048  0.00  0.00    +0.000 A 
ATOM     18  C   UNL     1     -11.853   6.689 131.991  0.00  0.00    +0.000 A 
ATOM     19  C   UNL     1     -10.726   5.701 131.518  0.00  0.00    +0.000 A 
ENDBRANCH   6   9
BRANCH   1  23
ATOM     20  C   UNL     1      -2.191   9.252 134.129  0.00  0.00    +0.000 A 
ATOM     21  C   UNL     1      -2.304   8.554 132.929  0.00  0.00    +0.000 A 
ATOM     22  C   UNL     1      -3.023   7.332 132.882  0.00  0.00    +0.000 A 
ATOM     23  C   UNL     1      -3.528   6.732 134.057  0.00  0.00    +0.000 A 
ATOM     24  C   UNL     1      -3.371   7.435 135.238  0.00  0.00    +0.000 A 
ATOM     25  C   UNL     1      -2.777   8.692 135.257  0.00  0.00    +0.000 A 
BRANCH  20  26
ATOM     26  O   UNL     1      -1.725  10.539 134.108  0.00  0.00    +0.000 OA
BRANCH  26  33
ATOM     27  C   UNL     1       1.805  14.894 135.482  0.00  0.00    +0.000 C 
ATOM     28  C   UNL     1       2.128  13.587 134.766  0.00  0.00    +0.000 C 
ATOM     29  O   UNL     1       3.262  13.335 134.373  0.00  0.00    +0.000 OA
ATOM     30  N   UNL     1       1.066  12.691 134.693  0.00  0.00    +0.000 N 
ATOM     31  C   UNL     1       1.191  11.240 134.842  0.00  0.00    +0.000 C 
ATOM     32  C   UNL     1       0.753  10.502 133.572  0.00  0.00    +0.000 C 
ATOM     33  C   UNL     1      -0.680  10.889 133.171  0.00  0.00    +0.000 C 
ATOM     34  C   UNL     1      -0.703  12.422 133.011  0.00  0.00    +0.000 C 
ATOM     35  C   UNL     1      -0.251  13.137 134.287  0.00  0.00    +0.000 C 
ENDBRANCH  26  33
ENDBRANCH  20  26
ENDBRANCH   1  23
TORSDOF 4
ENDMDL
