MODEL 1
REMARK VINA RESULT:      -8.3      0.000      0.000
REMARK  Name = CHEMBL194922
REMARK  12 active torsions:
REMARK  status: ('A' for Active; 'I' for Inactive)
REMARK    1  A    between atoms: C_1  and  C_2
REMARK    2  A    between atoms: C_5  and  C_6
REMARK    3  A    between atoms: C_6  and  C_7
REMARK    4  A    between atoms: C_6  and  N_13
REMARK    5  A    between atoms: N_9  and  C_10
REMARK    6  A    between atoms: C_10  and  C_11
REMARK    7  A    between atoms: C_10  and  C_12
REMARK    8  A    between atoms: C_16  and  C_17
REMARK    9  A    between atoms: CA_29  and  CB_30
REMARK   10  A    between atoms: CB_30  and  CG_31
REMARK   11  A    between atoms: CG_31  and  CD1_32
REMARK   12  A    between atoms: CG_31  and  CD2_33
REMARK                            x       y       z     vdW  Elec       q    Type
REMARK                         _______ _______ _______ _____ _____    ______ ____
ROOT
ATOM      1  N   LEU A   1      -7.512   2.173 130.451  0.00  0.00    +0.000 N 
ATOM      2  C   UNK A   2      -7.812   1.062 129.753  0.00  0.00    +0.000 C 
ATOM      3  O   UNK A   2      -8.178   1.174 128.555  0.00  0.00    +0.000 OA
ATOM      4  C   UNK A   2      -7.870  -0.315 130.400  0.00  0.00    +0.000 C 
ATOM      5  N   UNK A   2      -6.931  -0.339 131.477  0.00  0.00    +0.000 N 
ATOM      6  C   LEU A   1      -7.295   0.537 132.449  0.00  0.00    +0.000 C 
ATOM      7  O   LEU A   1      -7.271   0.167 133.620  0.00  0.00    +0.000 OA
ATOM      8  CA  LEU A   1      -7.753   1.939 131.894  0.00  0.00    +0.000 C 
ATOM      9  H   UNK A   2      -6.532  -1.209 131.810  0.00  0.00    +0.000 HD
ENDROOT
BRANCH   4  10
ATOM     10  C   UNK A   2      -7.428  -1.092 129.248  0.00  0.00    +0.000 C 
ATOM     11  C   UNK A   2      -5.885  -0.957 128.728  0.00  0.00    +0.000 C 
ATOM     12  C   UNK A   2      -5.425  -2.365 128.783  0.00  0.00    +0.000 A 
ATOM     13  C   UNK A   2      -4.157  -2.729 129.299  0.00  0.00    +0.000 A 
ATOM     14  C   UNK A   2      -4.033  -3.771 130.194  0.00  0.00    +0.000 A 
ATOM     15  C   UNK A   2      -5.235  -4.308 130.650  0.00  0.00    +0.000 A 
ATOM     16  C   UNK A   2      -6.546  -3.916 130.006  0.00  0.00    +0.000 A 
ATOM     17  C   UNK A   2      -6.636  -3.046 128.792  0.00  0.00    +0.000 A 
ATOM     18  C   UNK A   2      -7.770  -1.784 128.050  0.00  0.00    +0.000 C 
ENDBRANCH   4  10
BRANCH   1  19
ATOM     19  C   UNK A   0      -7.663   3.515 129.675  0.00  0.00    +0.000 C 
BRANCH  19  24
ATOM     20  C   UNK A   0     -11.997   6.870 131.687  0.00  0.00    +0.000 C 
ATOM     21  C   UNK A   0     -10.911   6.001 131.166  0.00  0.00    +0.000 A 
ATOM     22  C   UNK A   0     -11.181   4.783 130.550  0.00  0.00    +0.000 A 
ATOM     23  C   UNK A   0     -10.138   3.972 130.129  0.00  0.00    +0.000 A 
ATOM     24  C   UNK A   0      -8.816   4.436 130.153  0.00  0.00    +0.000 A 
ATOM     25  C   UNK A   0      -8.605   5.732 130.652  0.00  0.00    +0.000 A 
ATOM     26  C   UNK A   0      -9.605   6.439 131.283  0.00  0.00    +0.000 A 
ENDBRANCH  19  24
BRANCH  19  27
ATOM     27  C   UNK A   0      -6.444   4.467 129.637  0.00  0.00    +0.000 C 
ATOM     28  O   UNK A   0      -6.152   5.084 128.613  0.00  0.00    +0.000 OA
ATOM     29  N   UNK A   0      -5.544   4.560 130.670  0.00  0.00    +0.000 N 
ATOM     30  H   UNK A   0      -5.355   3.780 131.282  0.00  0.00    +0.000 HD
BRANCH  29  31
ATOM     31  C   UNK A   0      -4.495   5.546 130.466  0.00  0.00    +0.000 C 
ATOM     32  C   UNK A   0      -4.758   6.699 131.425  0.00  0.00    +0.000 C 
ATOM     33  C   UNK A   0      -3.132   4.937 130.665  0.00  0.00    +0.000 C 
ENDBRANCH  29  31
ENDBRANCH  19  27
ENDBRANCH   1  19
BRANCH   8  34
ATOM     34  CB  LEU A   1      -7.094   3.017 132.689  0.00  0.00    +0.000 C 
BRANCH  34  35
ATOM     35  CG  LEU A   1      -7.736   3.614 133.895  0.00  0.00    +0.000 C 
ATOM     36  CD1 LEU A   1      -7.341   5.082 134.038  0.00  0.00    +0.000 C 
ATOM     37  CD2 LEU A   1      -9.239   3.525 133.678  0.00  0.00    +0.000 C 
ENDBRANCH  34  35
ENDBRANCH   8  34
TORSDOF 7
ENDMDL
MODEL 2
REMARK VINA RESULT:      -7.8      2.702      7.484
REMARK  Name = CHEMBL194922
REMARK  12 active torsions:
REMARK  status: ('A' for Active; 'I' for Inactive)
REMARK    1  A    between atoms: C_1  and  C_2
REMARK    2  A    between atoms: C_5  and  C_6
REMARK    3  A    between atoms: C_6  and  C_7
REMARK    4  A    between atoms: C_6  and  N_13
REMARK    5  A    between atoms: N_9  and  C_10
REMARK    6  A    between atoms: C_10  and  C_11
REMARK    7  A    between atoms: C_10  and  C_12
REMARK    8  A    between atoms: C_16  and  C_17
REMARK    9  A    between atoms: CA_29  and  CB_30
REMARK   10  A    between atoms: CB_30  and  CG_31
REMARK   11  A    between atoms: CG_31  and  CD1_32
REMARK   12  A    between atoms: CG_31  and  CD2_33
REMARK                            x       y       z     vdW  Elec       q    Type
REMARK                         _______ _______ _______ _____ _____    ______ ____
ROOT
ATOM      1  N   LEU A   1      -7.661   4.278 131.559  0.00  0.00    +0.000 N 
ATOM      2  C   UNK A   2      -8.871   4.820 131.792  0.00  0.00    +0.000 C 
ATOM      3  O   UNK A   2      -9.064   5.443 132.866  0.00  0.00    +0.000 OA
ATOM      4  C   UNK A   2     -10.060   4.581 130.871  0.00  0.00    +0.000 C 
ATOM      5  N   UNK A   2      -9.564   4.399 129.543  0.00  0.00    +0.000 N 
ATOM      6  C   LEU A   1      -8.809   3.272 129.465  0.00  0.00    +0.000 C 
ATOM      7  O   LEU A   1      -8.993   2.499 128.529  0.00  0.00    +0.000 OA
ATOM      8  CA  LEU A   1      -7.800   3.105 130.664  0.00  0.00    +0.000 C 
ATOM      9  H   UNK A   2     -10.143   4.586 128.733  0.00  0.00    +0.000 HD
ENDROOT
BRANCH   4  10
ATOM     10  C   UNK A   2     -10.714   5.871 131.057  0.00  0.00    +0.000 C 
ATOM     11  C   UNK A   2      -9.992   7.229 130.506  0.00  0.00    +0.000 C 
ATOM     12  C   UNK A   2     -11.038   7.784 129.615  0.00  0.00    +0.000 A 
ATOM     13  C   UNK A   2     -10.739   8.313 128.334  0.00  0.00    +0.000 A 
ATOM     14  C   UNK A   2     -11.491   7.961 127.233  0.00  0.00    +0.000 A 
ATOM     15  C   UNK A   2     -12.432   6.957 127.453  0.00  0.00    +0.000 A 
ATOM     16  C   UNK A   2     -12.741   6.486 128.857  0.00  0.00    +0.000 A 
ATOM     17  C   UNK A   2     -12.170   7.129 130.082  0.00  0.00    +0.000 A 
ATOM     18  C   UNK A   2     -11.641   6.664 131.795  0.00  0.00    +0.000 C 
ENDBRANCH   4  10
BRANCH   1  19
ATOM     19  C   UNK A   0      -6.605   4.483 132.686  0.00  0.00    +0.000 C 
BRANCH  19  24
ATOM     20  C   UNK A   0      -4.027  -0.483 134.353  0.00  0.00    +0.000 C 
ATOM     21  C   UNK A   0      -4.702   0.775 133.943  0.00  0.00    +0.000 A 
ATOM     22  C   UNK A   0      -5.996   1.078 134.354  0.00  0.00    +0.000 A 
ATOM     23  C   UNK A   0      -6.615   2.234 133.903  0.00  0.00    +0.000 A 
ATOM     24  C   UNK A   0      -5.896   3.195 133.180  0.00  0.00    +0.000 A 
ATOM     25  C   UNK A   0      -4.547   2.911 132.910  0.00  0.00    +0.000 A 
ATOM     26  C   UNK A   0      -4.004   1.668 133.151  0.00  0.00    +0.000 A 
ENDBRANCH  19  24
BRANCH  19  27
ATOM     27  C   UNK A   0      -5.428   5.448 132.404  0.00  0.00    +0.000 C 
ATOM     28  O   UNK A   0      -4.900   6.086 133.313  0.00  0.00    +0.000 OA
ATOM     29  N   UNK A   0      -5.014   5.760 131.132  0.00  0.00    +0.000 N 
ATOM     30  H   UNK A   0      -5.652   5.753 130.349  0.00  0.00    +0.000 HD
BRANCH  29  31
ATOM     31  C   UNK A   0      -3.862   6.645 131.076  0.00  0.00    +0.000 C 
ATOM     32  C   UNK A   0      -2.689   5.835 130.538  0.00  0.00    +0.000 C 
ATOM     33  C   UNK A   0      -4.153   7.859 130.232  0.00  0.00    +0.000 C 
ENDBRANCH  29  31
ENDBRANCH  19  27
ENDBRANCH   1  19
BRANCH   8  34
ATOM     34  CB  LEU A   1      -6.460   2.730 130.124  0.00  0.00    +0.000 C 
BRANCH  34  35
ATOM     35  CG  LEU A   1      -6.144   1.338 129.692  0.00  0.00    +0.000 C 
ATOM     36  CD1 LEU A   1      -4.633   1.130 129.624  0.00  0.00    +0.000 C 
ATOM     37  CD2 LEU A   1      -6.724   0.411 130.749  0.00  0.00    +0.000 C 
ENDBRANCH  34  35
ENDBRANCH   8  34
TORSDOF 7
ENDMDL
MODEL 3
REMARK VINA RESULT:      -7.6      2.865      3.909
REMARK  Name = CHEMBL194922
REMARK  12 active torsions:
REMARK  status: ('A' for Active; 'I' for Inactive)
REMARK    1  A    between atoms: C_1  and  C_2
REMARK    2  A    between atoms: C_5  and  C_6
REMARK    3  A    between atoms: C_6  and  C_7
REMARK    4  A    between atoms: C_6  and  N_13
REMARK    5  A    between atoms: N_9  and  C_10
REMARK    6  A    between atoms: C_10  and  C_11
REMARK    7  A    between atoms: C_10  and  C_12
REMARK    8  A    between atoms: C_16  and  C_17
REMARK    9  A    between atoms: CA_29  and  CB_30
REMARK   10  A    between atoms: CB_30  and  CG_31
REMARK   11  A    between atoms: CG_31  and  CD1_32
REMARK   12  A    between atoms: CG_31  and  CD2_33
REMARK                            x       y       z     vdW  Elec       q    Type
REMARK                         _______ _______ _______ _____ _____    ______ ____
ROOT
ATOM      1  N   LEU A   1      -7.537   2.107 127.880  0.00  0.00    +0.000 N 
ATOM      2  C   UNK A   2      -8.173   1.659 126.781  0.00  0.00    +0.000 C 
ATOM      3  O   UNK A   2      -8.529   2.484 125.902  0.00  0.00    +0.000 OA
ATOM      4  C   UNK A   2      -8.611   0.208 126.630  0.00  0.00    +0.000 C 
ATOM      5  N   UNK A   2      -7.686  -0.612 127.346  0.00  0.00    +0.000 N 
ATOM      6  C   LEU A   1      -7.746  -0.350 128.678  0.00  0.00    +0.000 C 
ATOM      7  O   LEU A   1      -7.793  -1.291 129.466  0.00  0.00    +0.000 OA
ATOM      8  CA  LEU A   1      -7.790   1.189 129.015  0.00  0.00    +0.000 C 
ATOM      9  H   UNK A   2      -7.549  -1.587 127.105  0.00  0.00    +0.000 HD
ENDROOT
BRANCH   4  10
ATOM     10  C   UNK A   2      -8.454   0.106 125.183  0.00  0.00    +0.000 C 
ATOM     11  C   UNK A   2      -6.956   0.132 124.531  0.00  0.00    +0.000 C 
ATOM     12  C   UNK A   2      -6.938  -1.139 123.769  0.00  0.00    +0.000 A 
ATOM     13  C   UNK A   2      -5.823  -2.014 123.780  0.00  0.00    +0.000 A 
ATOM     14  C   UNK A   2      -5.993  -3.369 123.973  0.00  0.00    +0.000 A 
ATOM     15  C   UNK A   2      -7.288  -3.764 124.302  0.00  0.00    +0.000 A 
ATOM     16  C   UNK A   2      -8.439  -2.788 124.207  0.00  0.00    +0.000 A 
ATOM     17  C   UNK A   2      -8.297  -1.405 123.652  0.00  0.00    +0.000 A 
ATOM     18  C   UNK A   2      -9.020   0.283 123.887  0.00  0.00    +0.000 C 
ENDBRANCH   4  10
BRANCH   1  19
ATOM     19  C   UNK A   0      -7.314   3.647 127.945  0.00  0.00    +0.000 C 
BRANCH  19  24
ATOM     20  C   UNK A   0      -8.985   6.004 133.018  0.00  0.00    +0.000 C 
ATOM     21  C   UNK A   0      -8.583   5.403 131.721  0.00  0.00    +0.000 A 
ATOM     22  C   UNK A   0      -9.525   4.969 130.793  0.00  0.00    +0.000 A 
ATOM     23  C   UNK A   0      -9.112   4.359 129.618  0.00  0.00    +0.000 A 
ATOM     24  C   UNK A   0      -7.756   4.331 129.265  0.00  0.00    +0.000 A 
ATOM     25  C   UNK A   0      -6.850   4.912 130.168  0.00  0.00    +0.000 A 
ATOM     26  C   UNK A   0      -7.235   5.301 131.432  0.00  0.00    +0.000 A 
ENDBRANCH  19  24
BRANCH  19  27
ATOM     27  C   UNK A   0      -5.874   4.176 127.738  0.00  0.00    +0.000 C 
ATOM     28  O   UNK A   0      -5.666   5.235 127.149  0.00  0.00    +0.000 OA
ATOM     29  N   UNK A   0      -4.761   3.436 128.055  0.00  0.00    +0.000 N 
ATOM     30  H   UNK A   0      -4.767   2.427 128.025  0.00  0.00    +0.000 HD
BRANCH  29  31
ATOM     31  C   UNK A   0      -3.500   4.125 127.834  0.00  0.00    +0.000 C 
ATOM     32  C   UNK A   0      -2.991   4.595 129.191  0.00  0.00    +0.000 C 
ATOM     33  C   UNK A   0      -2.511   3.233 127.132  0.00  0.00    +0.000 C 
ENDBRANCH  29  31
ENDBRANCH  19  27
ENDBRANCH   1  19
BRANCH   8  34
ATOM     34  CB  LEU A   1      -6.818   1.475 130.111  0.00  0.00    +0.000 C 
BRANCH  34  35
ATOM     35  CG  LEU A   1      -7.239   1.554 131.539  0.00  0.00    +0.000 C 
ATOM     36  CD1 LEU A   1      -8.747   1.350 131.663  0.00  0.00    +0.000 C 
ATOM     37  CD2 LEU A   1      -6.526   0.425 132.267  0.00  0.00    +0.000 C 
ENDBRANCH  34  35
ENDBRANCH   8  34
TORSDOF 7
ENDMDL
MODEL 4
REMARK VINA RESULT:      -7.5      1.198      2.413
REMARK  Name = CHEMBL194922
REMARK  12 active torsions:
REMARK  status: ('A' for Active; 'I' for Inactive)
REMARK    1  A    between atoms: C_1  and  C_2
REMARK    2  A    between atoms: C_5  and  C_6
REMARK    3  A    between atoms: C_6  and  C_7
REMARK    4  A    between atoms: C_6  and  N_13
REMARK    5  A    between atoms: N_9  and  C_10
REMARK    6  A    between atoms: C_10  and  C_11
REMARK    7  A    between atoms: C_10  and  C_12
REMARK    8  A    between atoms: C_16  and  C_17
REMARK    9  A    between atoms: CA_29  and  CB_30
REMARK   10  A    between atoms: CB_30  and  CG_31
REMARK   11  A    between atoms: CG_31  and  CD1_32
REMARK   12  A    between atoms: CG_31  and  CD2_33
REMARK                            x       y       z     vdW  Elec       q    Type
REMARK                         _______ _______ _______ _____ _____    ______ ____
ROOT
ATOM      1  N   LEU A   1      -7.073   2.342 130.378  0.00  0.00    +0.000 N 
ATOM      2  C   UNK A   2      -7.174   1.346 129.478  0.00  0.00    +0.000 C 
ATOM      3  O   UNK A   2      -7.324   1.633 128.264  0.00  0.00    +0.000 OA
ATOM      4  C   UNK A   2      -7.263  -0.117 129.891  0.00  0.00    +0.000 C 
ATOM      5  N   UNK A   2      -6.535  -0.280 131.110  0.00  0.00    +0.000 N 
ATOM      6  C   LEU A   1      -7.122   0.420 132.115  0.00  0.00    +0.000 C 
ATOM      7  O   LEU A   1      -7.287  -0.128 133.201  0.00  0.00    +0.000 OA
ATOM      8  CA  LEU A   1      -7.556   1.877 131.699  0.00  0.00    +0.000 C 
ATOM      9  H   UNK A   2      -6.150  -1.178 131.378  0.00  0.00    +0.000 HD
ENDROOT
BRANCH   4  10
ATOM     10  C   UNK A   2      -6.573  -0.688 128.740  0.00  0.00    +0.000 C 
ATOM     11  C   UNK A   2      -6.633  -2.300 128.483  0.00  0.00    +0.000 C 
ATOM     12  C   UNK A   2      -7.187  -2.365 127.110  0.00  0.00    +0.000 A 
ATOM     13  C   UNK A   2      -8.200  -3.286 126.744  0.00  0.00    +0.000 A 
ATOM     14  C   UNK A   2      -9.301  -2.873 126.023  0.00  0.00    +0.000 A 
ATOM     15  C   UNK A   2      -9.403  -1.496 125.833  0.00  0.00    +0.000 A 
ATOM     16  C   UNK A   2      -8.254  -0.582 126.192  0.00  0.00    +0.000 A 
ATOM     17  C   UNK A   2      -6.919  -1.082 126.648  0.00  0.00    +0.000 A 
ATOM     18  C   UNK A   2      -5.536  -0.573 127.769  0.00  0.00    +0.000 C 
ENDBRANCH   4  10
BRANCH   1  19
ATOM     19  C   UNK A   0      -7.163   3.785 129.796  0.00  0.00    +0.000 C 
BRANCH  19  24
ATOM     20  C   UNK A   0     -11.759   7.039 131.335  0.00  0.00    +0.000 C 
ATOM     21  C   UNK A   0     -10.575   6.227 130.955  0.00  0.00    +0.000 A 
ATOM     22  C   UNK A   0      -9.281   6.626 131.275  0.00  0.00    +0.000 A 
ATOM     23  C   UNK A   0      -8.198   5.872 130.852  0.00  0.00    +0.000 A 
ATOM     24  C   UNK A   0      -8.387   4.616 130.260  0.00  0.00    +0.000 A 
ATOM     25  C   UNK A   0      -9.714   4.187 130.086  0.00  0.00    +0.000 A 
ATOM     26  C   UNK A   0     -10.783   5.034 130.288  0.00  0.00    +0.000 A 
ENDBRANCH  19  24
BRANCH  19  27
ATOM     27  C   UNK A   0      -5.972   4.739 130.047  0.00  0.00    +0.000 C 
ATOM     28  O   UNK A   0      -5.655   5.590 129.217  0.00  0.00    +0.000 OA
ATOM     29  N   UNK A   0      -5.120   4.596 131.115  0.00  0.00    +0.000 N 
ATOM     30  H   UNK A   0      -4.935   3.695 131.530  0.00  0.00    +0.000 HD
BRANCH  29  31
ATOM     31  C   UNK A   0      -4.093   5.621 131.205  0.00  0.00    +0.000 C 
ATOM     32  C   UNK A   0      -4.400   6.470 132.432  0.00  0.00    +0.000 C 
ATOM     33  C   UNK A   0      -2.719   5.007 131.265  0.00  0.00    +0.000 C 
ENDBRANCH  29  31
ENDBRANCH  19  27
ENDBRANCH   1  19
BRANCH   8  34
ATOM     34  CB  LEU A   1      -7.119   2.837 132.755  0.00  0.00    +0.000 C 
BRANCH  34  35
ATOM     35  CG  LEU A   1      -8.013   3.236 133.879  0.00  0.00    +0.000 C 
ATOM     36  CD1 LEU A   1      -7.771   4.693 134.262  0.00  0.00    +0.000 C 
ATOM     37  CD2 LEU A   1      -9.440   3.087 133.375  0.00  0.00    +0.000 C 
ENDBRANCH  34  35
ENDBRANCH   8  34
TORSDOF 7
ENDMDL
MODEL 5
REMARK VINA RESULT:      -7.4      2.644      5.146
REMARK  Name = CHEMBL194922
REMARK  12 active torsions:
REMARK  status: ('A' for Active; 'I' for Inactive)
REMARK    1  A    between atoms: C_1  and  C_2
REMARK    2  A    between atoms: C_5  and  C_6
REMARK    3  A    between atoms: C_6  and  C_7
REMARK    4  A    between atoms: C_6  and  N_13
REMARK    5  A    between atoms: N_9  and  C_10
REMARK    6  A    between atoms: C_10  and  C_11
REMARK    7  A    between atoms: C_10  and  C_12
REMARK    8  A    between atoms: C_16  and  C_17
REMARK    9  A    between atoms: CA_29  and  CB_30
REMARK   10  A    between atoms: CB_30  and  CG_31
REMARK   11  A    between atoms: CG_31  and  CD1_32
REMARK   12  A    between atoms: CG_31  and  CD2_33
REMARK                            x       y       z     vdW  Elec       q    Type
REMARK                         _______ _______ _______ _____ _____    ______ ____
ROOT
ATOM      1  N   LEU A   1      -6.696   2.795 128.689  0.00  0.00    +0.000 N 
ATOM      2  C   UNK A   2      -6.919   1.478 128.524  0.00  0.00    +0.000 C 
ATOM      3  O   UNK A   2      -7.832   0.925 129.188  0.00  0.00    +0.000 OA
ATOM      4  C   UNK A   2      -6.010   0.600 127.675  0.00  0.00    +0.000 C 
ATOM      5  N   UNK A   2      -5.468   1.405 126.625  0.00  0.00    +0.000 N 
ATOM      6  C   LEU A   1      -4.666   2.377 127.134  0.00  0.00    +0.000 C 
ATOM      7  O   LEU A   1      -3.570   2.571 126.616  0.00  0.00    +0.000 OA
ATOM      8  CA  LEU A   1      -5.278   3.106 128.389  0.00  0.00    +0.000 C 
ATOM      9  H   UNK A   2      -5.148   0.994 125.756  0.00  0.00    +0.000 HD
ENDROOT
BRANCH   4  10
ATOM     10  C   UNK A   2      -7.025  -0.334 127.202  0.00  0.00    +0.000 C 
ATOM     11  C   UNK A   2      -7.931   0.051 125.898  0.00  0.00    +0.000 C 
ATOM     12  C   UNK A   2      -7.672  -1.100 125.002  0.00  0.00    +0.000 A 
ATOM     13  C   UNK A   2      -7.420  -0.940 123.616  0.00  0.00    +0.000 A 
ATOM     14  C   UNK A   2      -6.369  -1.598 123.010  0.00  0.00    +0.000 A 
ATOM     15  C   UNK A   2      -5.516  -2.279 123.877  0.00  0.00    +0.000 A 
ATOM     16  C   UNK A   2      -5.883  -2.462 125.332  0.00  0.00    +0.000 A 
ATOM     17  C   UNK A   2      -7.203  -2.047 125.904  0.00  0.00    +0.000 A 
ATOM     18  C   UNK A   2      -7.908  -1.415 127.495  0.00  0.00    +0.000 C 
ENDBRANCH   4  10
BRANCH   1  19
ATOM     19  C   UNK A   0      -7.619   3.508 129.723  0.00  0.00    +0.000 C 
BRANCH  19  24
ATOM     20  C   UNK A   0      -4.661   6.186 133.984  0.00  0.00    +0.000 C 
ATOM     21  C   UNK A   0      -5.410   5.484 132.911  0.00  0.00    +0.000 A 
ATOM     22  C   UNK A   0      -5.540   4.099 132.897  0.00  0.00    +0.000 A 
ATOM     23  C   UNK A   0      -6.196   3.474 131.848  0.00  0.00    +0.000 A 
ATOM     24  C   UNK A   0      -6.888   4.225 130.888  0.00  0.00    +0.000 A 
ATOM     25  C   UNK A   0      -6.849   5.623 131.023  0.00  0.00    +0.000 A 
ATOM     26  C   UNK A   0      -6.007   6.242 131.922  0.00  0.00    +0.000 A 
ENDBRANCH  19  24
BRANCH  19  27
ATOM     27  C   UNK A   0      -8.590   4.591 129.195  0.00  0.00    +0.000 C 
ATOM     28  O   UNK A   0      -8.513   5.004 128.039  0.00  0.00    +0.000 OA
ATOM     29  N   UNK A   0      -9.475   5.253 130.012  0.00  0.00    +0.000 N 
ATOM     30  H   UNK A   0      -9.281   5.408 130.990  0.00  0.00    +0.000 HD
BRANCH  29  31
ATOM     31  C   UNK A   0     -10.336   6.199 129.321  0.00  0.00    +0.000 C 
ATOM     32  C   UNK A   0     -11.771   5.892 129.728  0.00  0.00    +0.000 C 
ATOM     33  C   UNK A   0      -9.944   7.619 129.636  0.00  0.00    +0.000 C 
ENDBRANCH  29  31
ENDBRANCH  19  27
ENDBRANCH   1  19
BRANCH   8  34
ATOM     34  CB  LEU A   1      -5.118   4.581 128.222  0.00  0.00    +0.000 C 
BRANCH  34  35
ATOM     35  CG  LEU A   1      -4.034   5.340 128.909  0.00  0.00    +0.000 C 
ATOM     36  CD1 LEU A   1      -3.250   4.422 129.844  0.00  0.00    +0.000 C 
ATOM     37  CD2 LEU A   1      -3.103   5.852 127.822  0.00  0.00    +0.000 C 
ENDBRANCH  34  35
ENDBRANCH   8  34
TORSDOF 7
ENDMDL
MODEL 6
REMARK VINA RESULT:      -7.3      4.786      7.294
REMARK  Name = CHEMBL194922
REMARK  12 active torsions:
REMARK  status: ('A' for Active; 'I' for Inactive)
REMARK    1  A    between atoms: C_1  and  C_2
REMARK    2  A    between atoms: C_5  and  C_6
REMARK    3  A    between atoms: C_6  and  C_7
REMARK    4  A    between atoms: C_6  and  N_13
REMARK    5  A    between atoms: N_9  and  C_10
REMARK    6  A    between atoms: C_10  and  C_11
REMARK    7  A    between atoms: C_10  and  C_12
REMARK    8  A    between atoms: C_16  and  C_17
REMARK    9  A    between atoms: CA_29  and  CB_30
REMARK   10  A    between atoms: CB_30  and  CG_31
REMARK   11  A    between atoms: CG_31  and  CD1_32
REMARK   12  A    between atoms: CG_31  and  CD2_33
REMARK                            x       y       z     vdW  Elec       q    Type
REMARK                         _______ _______ _______ _____ _____    ______ ____
ROOT
ATOM      1  N   LEU A   1      -6.092  -2.000 128.228  0.00  0.00    +0.000 N 
ATOM      2  C   UNK A   2      -5.389  -2.629 129.189  0.00  0.00    +0.000 C 
ATOM      3  O   UNK A   2      -4.143  -2.472 129.236  0.00  0.00    +0.000 OA
ATOM      4  C   UNK A   2      -6.026  -3.641 130.132  0.00  0.00    +0.000 C 
ATOM      5  N   UNK A   2      -7.393  -3.269 130.325  0.00  0.00    +0.000 N 
ATOM      6  C   LEU A   1      -8.085  -3.369 129.160  0.00  0.00    +0.000 C 
ATOM      7  O   LEU A   1      -9.181  -3.923 129.167  0.00  0.00    +0.000 OA
ATOM      8  CA  LEU A   1      -7.320  -2.769 127.919  0.00  0.00    +0.000 C 
ATOM      9  H   UNK A   2      -7.904  -3.549 131.154  0.00  0.00    +0.000 HD
ENDROOT
BRANCH   4  10
ATOM     10  C   UNK A   2      -5.197  -3.369 131.301  0.00  0.00    +0.000 C 
ATOM     11  C   UNK A   2      -5.528  -2.075 132.241  0.00  0.00    +0.000 C 
ATOM     12  C   UNK A   2      -5.705  -2.706 133.570  0.00  0.00    +0.000 A 
ATOM     13  C   UNK A   2      -6.759  -2.344 134.446  0.00  0.00    +0.000 A 
ATOM     14  C   UNK A   2      -7.521  -3.311 135.068  0.00  0.00    +0.000 A 
ATOM     15  C   UNK A   2      -7.277  -4.618 134.652  0.00  0.00    +0.000 A 
ATOM     16  C   UNK A   2      -6.095  -4.936 133.764  0.00  0.00    +0.000 A 
ATOM     17  C   UNK A   2      -5.062  -3.923 133.380  0.00  0.00    +0.000 A 
ATOM     18  C   UNK A   2      -3.943  -3.527 131.959  0.00  0.00    +0.000 C 
ENDBRANCH   4  10
BRANCH   1  19
ATOM     19  C   UNK A   0      -5.254  -1.127 127.246  0.00  0.00    +0.000 C 
BRANCH  19  24
ATOM     20  C   UNK A   0      -6.350  -2.287 121.631  0.00  0.00    +0.000 C 
ATOM     21  C   UNK A   0      -6.058  -2.012 123.060  0.00  0.00    +0.000 A 
ATOM     22  C   UNK A   0      -5.314  -2.895 123.837  0.00  0.00    +0.000 A 
ATOM     23  C   UNK A   0      -5.112  -2.633 125.184  0.00  0.00    +0.000 A 
ATOM     24  C   UNK A   0      -5.491  -1.404 125.739  0.00  0.00    +0.000 A 
ATOM     25  C   UNK A   0      -6.111  -0.481 124.880  0.00  0.00    +0.000 A 
ATOM     26  C   UNK A   0      -6.522  -0.832 123.612  0.00  0.00    +0.000 A 
ENDBRANCH  19  24
BRANCH  19  27
ATOM     27  C   UNK A   0      -5.392   0.410 127.350  0.00  0.00    +0.000 C 
ATOM     28  O   UNK A   0      -6.429   0.928 127.762  0.00  0.00    +0.000 OA
ATOM     29  N   UNK A   0      -4.446   1.274 126.854  0.00  0.00    +0.000 N 
ATOM     30  H   UNK A   0      -3.867   1.031 126.064  0.00  0.00    +0.000 HD
BRANCH  29  31
ATOM     31  C   UNK A   0      -4.733   2.679 127.092  0.00  0.00    +0.000 C 
ATOM     32  C   UNK A   0      -3.608   3.237 127.953  0.00  0.00    +0.000 C 
ATOM     33  C   UNK A   0      -4.883   3.429 125.794  0.00  0.00    +0.000 C 
ENDBRANCH  29  31
ENDBRANCH  19  27
ENDBRANCH   1  19
BRANCH   8  34
ATOM     34  CB  LEU A   1      -8.258  -1.912 127.136  0.00  0.00    +0.000 C 
BRANCH  34  35
ATOM     35  CG  LEU A   1      -9.199  -2.486 126.132  0.00  0.00    +0.000 C 
ATOM     36  CD1 LEU A   1      -9.519  -1.457 125.050  0.00  0.00    +0.000 C 
ATOM     37  CD2 LEU A   1      -8.489  -3.670 125.494  0.00  0.00    +0.000 C 
ENDBRANCH  34  35
ENDBRANCH   8  34
TORSDOF 7
ENDMDL
MODEL 7
REMARK VINA RESULT:      -7.2      2.880      6.663
REMARK  Name = CHEMBL194922
REMARK  12 active torsions:
REMARK  status: ('A' for Active; 'I' for Inactive)
REMARK    1  A    between atoms: C_1  and  C_2
REMARK    2  A    between atoms: C_5  and  C_6
REMARK    3  A    between atoms: C_6  and  C_7
REMARK    4  A    between atoms: C_6  and  N_13
REMARK    5  A    between atoms: N_9  and  C_10
REMARK    6  A    between atoms: C_10  and  C_11
REMARK    7  A    between atoms: C_10  and  C_12
REMARK    8  A    between atoms: C_16  and  C_17
REMARK    9  A    between atoms: CA_29  and  CB_30
REMARK   10  A    between atoms: CB_30  and  CG_31
REMARK   11  A    between atoms: CG_31  and  CD1_32
REMARK   12  A    between atoms: CG_31  and  CD2_33
REMARK                            x       y       z     vdW  Elec       q    Type
REMARK                         _______ _______ _______ _____ _____    ______ ____
ROOT
ATOM      1  N   LEU A   1      -7.069   0.017 128.484  0.00  0.00    +0.000 N 
ATOM      2  C   UNK A   2      -7.331   1.042 129.316  0.00  0.00    +0.000 C 
ATOM      3  O   UNK A   2      -7.049   2.212 128.951  0.00  0.00    +0.000 OA
ATOM      4  C   UNK A   2      -7.819   0.828 130.742  0.00  0.00    +0.000 C 
ATOM      5  N   UNK A   2      -8.588  -0.376 130.773  0.00  0.00    +0.000 N 
ATOM      6  C   LEU A   1      -7.806  -1.450 130.489  0.00  0.00    +0.000 C 
ATOM      7  O   LEU A   1      -7.893  -2.450 131.196  0.00  0.00    +0.000 OA
ATOM      8  CA  LEU A   1      -6.836  -1.219 129.268  0.00  0.00    +0.000 C 
ATOM      9  H   UNK A   2      -9.294  -0.534 131.482  0.00  0.00    +0.000 HD
ENDROOT
BRANCH   4  10
ATOM     10  C   UNK A   2      -8.642   2.027 130.851  0.00  0.00    +0.000 C 
ATOM     11  C   UNK A   2      -9.625   2.216 132.142  0.00  0.00    +0.000 C 
ATOM     12  C   UNK A   2      -9.163   3.515 132.684  0.00  0.00    +0.000 A 
ATOM     13  C   UNK A   2      -8.968   3.731 134.071  0.00  0.00    +0.000 A 
ATOM     14  C   UNK A   2      -7.820   4.340 134.534  0.00  0.00    +0.000 A 
ATOM     15  C   UNK A   2      -6.839   4.568 133.572  0.00  0.00    +0.000 A 
ATOM     16  C   UNK A   2      -7.141   4.373 132.103  0.00  0.00    +0.000 A 
ATOM     17  C   UNK A   2      -8.507   4.051 131.582  0.00  0.00    +0.000 A 
ATOM     18  C   UNK A   2      -9.296   3.111 130.196  0.00  0.00    +0.000 C 
ENDBRANCH   4  10
BRANCH   1  19
ATOM     19  C   UNK A   0      -6.418   0.406 127.123  0.00  0.00    +0.000 C 
BRANCH  19  24
ATOM     20  C   UNK A   0     -10.160   0.820 122.661  0.00  0.00    +0.000 C 
ATOM     21  C   UNK A   0      -9.190   0.714 123.780  0.00  0.00    +0.000 A 
ATOM     22  C   UNK A   0      -7.830   0.520 123.554  0.00  0.00    +0.000 A 
ATOM     23  C   UNK A   0      -6.963   0.366 124.624  0.00  0.00    +0.000 A 
ATOM     24  C   UNK A   0      -7.403   0.579 125.938  0.00  0.00    +0.000 A 
ATOM     25  C   UNK A   0      -8.756   0.916 126.110  0.00  0.00    +0.000 A 
ATOM     26  C   UNK A   0      -9.662   0.836 125.073  0.00  0.00    +0.000 A 
ENDBRANCH  19  24
BRANCH  19  27
ATOM     27  C   UNK A   0      -5.572   1.700 127.072  0.00  0.00    +0.000 C 
ATOM     28  O   UNK A   0      -5.912   2.653 126.372  0.00  0.00    +0.000 OA
ATOM     29  N   UNK A   0      -4.339   1.803 127.669  0.00  0.00    +0.000 N 
ATOM     30  H   UNK A   0      -3.738   1.001 127.789  0.00  0.00    +0.000 HD
BRANCH  29  31
ATOM     31  C   UNK A   0      -3.723   3.115 127.552  0.00  0.00    +0.000 C 
ATOM     32  C   UNK A   0      -3.582   3.681 128.959  0.00  0.00    +0.000 C 
ATOM     33  C   UNK A   0      -2.401   3.030 126.835  0.00  0.00    +0.000 C 
ENDBRANCH  29  31
ENDBRANCH  19  27
ENDBRANCH   1  19
BRANCH   8  34
ATOM     34  CB  LEU A   1      -6.903  -2.403 128.361  0.00  0.00    +0.000 C 
BRANCH  34  35
ATOM     35  CG  LEU A   1      -8.121  -2.716 127.561  0.00  0.00    +0.000 C 
ATOM     36  CD1 LEU A   1      -7.751  -2.963 126.100  0.00  0.00    +0.000 C 
ATOM     37  CD2 LEU A   1      -8.711  -3.990 128.143  0.00  0.00    +0.000 C 
ENDBRANCH  34  35
ENDBRANCH   8  34
TORSDOF 7
ENDMDL
MODEL 8
REMARK VINA RESULT:      -7.2      3.357      7.588
REMARK  Name = CHEMBL194922
REMARK  12 active torsions:
REMARK  status: ('A' for Active; 'I' for Inactive)
REMARK    1  A    between atoms: C_1  and  C_2
REMARK    2  A    between atoms: C_5  and  C_6
REMARK    3  A    between atoms: C_6  and  C_7
REMARK    4  A    between atoms: C_6  and  N_13
REMARK    5  A    between atoms: N_9  and  C_10
REMARK    6  A    between atoms: C_10  and  C_11
REMARK    7  A    between atoms: C_10  and  C_12
REMARK    8  A    between atoms: C_16  and  C_17
REMARK    9  A    between atoms: CA_29  and  CB_30
REMARK   10  A    between atoms: CB_30  and  CG_31
REMARK   11  A    between atoms: CG_31  and  CD1_32
REMARK   12  A    between atoms: CG_31  and  CD2_33
REMARK                            x       y       z     vdW  Elec       q    Type
REMARK                         _______ _______ _______ _____ _____    ______ ____
ROOT
ATOM      1  N   LEU A   1      -7.057   1.814 128.315  0.00  0.00    +0.000 N 
ATOM      2  C   UNK A   2      -7.797   2.289 129.334  0.00  0.00    +0.000 C 
ATOM      3  O   UNK A   2      -9.034   2.065 129.348  0.00  0.00    +0.000 OA
ATOM      4  C   UNK A   2      -7.220   3.217 130.395  0.00  0.00    +0.000 C 
ATOM      5  N   UNK A   2      -5.837   2.897 130.560  0.00  0.00    +0.000 N 
ATOM      6  C   LEU A   1      -5.145   3.166 129.422  0.00  0.00    +0.000 C 
ATOM      7  O   LEU A   1      -4.079   3.771 129.506  0.00  0.00    +0.000 OA
ATOM      8  CA  LEU A   1      -5.870   2.675 128.112  0.00  0.00    +0.000 C 
ATOM      9  H   UNK A   2      -5.346   3.104 131.421  0.00  0.00    +0.000 HD
ENDROOT
BRANCH   4  10
ATOM     10  C   UNK A   2      -8.040   2.769 131.515  0.00  0.00    +0.000 C 
ATOM     11  C   UNK A   2      -7.326   2.368 132.928  0.00  0.00    +0.000 C 
ATOM     12  C   UNK A   2      -8.020   3.265 133.881  0.00  0.00    +0.000 A 
ATOM     13  C   UNK A   2      -7.328   3.976 134.894  0.00  0.00    +0.000 A 
ATOM     14  C   UNK A   2      -7.570   5.318 135.104  0.00  0.00    +0.000 A 
ATOM     15  C   UNK A   2      -8.402   5.924 134.166  0.00  0.00    +0.000 A 
ATOM     16  C   UNK A   2      -9.157   5.093 133.153  0.00  0.00    +0.000 A 
ATOM     17  C   UNK A   2      -9.161   3.595 133.161  0.00  0.00    +0.000 A 
ATOM     18  C   UNK A   2      -9.259   2.185 131.966  0.00  0.00    +0.000 C 
ENDBRANCH   4  10
BRANCH   1  19
ATOM     19  C   UNK A   0      -7.843   1.019 127.229  0.00  0.00    +0.000 C 
BRANCH  19  24
ATOM     20  C   UNK A   0      -7.260   3.256 121.868  0.00  0.00    +0.000 C 
ATOM     21  C   UNK A   0      -7.423   2.705 123.238  0.00  0.00    +0.000 A 
ATOM     22  C   UNK A   0      -8.189   3.355 124.201  0.00  0.00    +0.000 A 
ATOM     23  C   UNK A   0      -8.271   2.841 125.485  0.00  0.00    +0.000 A 
ATOM     24  C   UNK A   0      -7.739   1.580 125.787  0.00  0.00    +0.000 A 
ATOM     25  C   UNK A   0      -7.098   0.892 124.742  0.00  0.00    +0.000 A 
ATOM     26  C   UNK A   0      -6.812   1.502 123.540  0.00  0.00    +0.000 A 
ENDBRANCH  19  24
BRANCH  19  27
ATOM     27  C   UNK A   0      -7.508  -0.481 127.050  0.00  0.00    +0.000 C 
ATOM     28  O   UNK A   0      -6.371  -0.905 127.246  0.00  0.00    +0.000 OA
ATOM     29  N   UNK A   0      -8.403  -1.382 126.524  0.00  0.00    +0.000 N 
ATOM     30  H   UNK A   0      -9.109  -1.102 125.859  0.00  0.00    +0.000 HD
BRANCH  29  31
ATOM     31  C   UNK A   0      -7.920  -2.752 126.483  0.00  0.00    +0.000 C 
ATOM     32  C   UNK A   0      -8.746  -3.559 127.476  0.00  0.00    +0.000 C 
ATOM     33  C   UNK A   0      -7.999  -3.313 125.087  0.00  0.00    +0.000 C 
ENDBRANCH  29  31
ENDBRANCH  19  27
ENDBRANCH   1  19
BRANCH   8  34
ATOM     34  CB  LEU A   1      -4.883   1.965 127.246  0.00  0.00    +0.000 C 
BRANCH  34  35
ATOM     35  CG  LEU A   1      -4.173   2.653 126.130  0.00  0.00    +0.000 C 
ATOM     36  CD1 LEU A   1      -4.800   4.019 125.860  0.00  0.00    +0.000 C 
ATOM     37  CD2 LEU A   1      -2.735   2.849 126.582  0.00  0.00    +0.000 C 
ENDBRANCH  34  35
ENDBRANCH   8  34
TORSDOF 7
ENDMDL
MODEL 9
REMARK VINA RESULT:      -7.0      3.121      6.415
REMARK  Name = CHEMBL194922
REMARK  12 active torsions:
REMARK  status: ('A' for Active; 'I' for Inactive)
REMARK    1  A    between atoms: C_1  and  C_2
REMARK    2  A    between atoms: C_5  and  C_6
REMARK    3  A    between atoms: C_6  and  C_7
REMARK    4  A    between atoms: C_6  and  N_13
REMARK    5  A    between atoms: N_9  and  C_10
REMARK    6  A    between atoms: C_10  and  C_11
REMARK    7  A    between atoms: C_10  and  C_12
REMARK    8  A    between atoms: C_16  and  C_17
REMARK    9  A    between atoms: CA_29  and  CB_30
REMARK   10  A    between atoms: CB_30  and  CG_31
REMARK   11  A    between atoms: CG_31  and  CD1_32
REMARK   12  A    between atoms: CG_31  and  CD2_33
REMARK                            x       y       z     vdW  Elec       q    Type
REMARK                         _______ _______ _______ _____ _____    ______ ____
ROOT
ATOM      1  N   LEU A   1      -6.508  -0.477 128.909  0.00  0.00    +0.000 N 
ATOM      2  C   UNK A   2      -5.990  -0.870 127.730  0.00  0.00    +0.000 C 
ATOM      3  O   UNK A   2      -4.925  -1.537 127.723  0.00  0.00    +0.000 OA
ATOM      4  C   UNK A   2      -6.565  -0.411 126.397  0.00  0.00    +0.000 C 
ATOM      5  N   UNK A   2      -7.968  -0.202 126.566  0.00  0.00    +0.000 N 
ATOM      6  C   LEU A   1      -8.199   0.818 127.434  0.00  0.00    +0.000 C 
ATOM      7  O   LEU A   1      -9.029   1.673 127.136  0.00  0.00    +0.000 OA
ATOM      8  CA  LEU A   1      -7.295   0.764 128.724  0.00  0.00    +0.000 C 
ATOM      9  H   UNK A   2      -8.608  -0.252 125.782  0.00  0.00    +0.000 HD
ENDROOT
BRANCH   4  10
ATOM     10  C   UNK A   2      -6.262  -1.613 125.628  0.00  0.00    +0.000 C 
ATOM     11  C   UNK A   2      -7.138  -2.969 125.875  0.00  0.00    +0.000 C 
ATOM     12  C   UNK A   2      -7.643  -3.252 124.511  0.00  0.00    +0.000 A 
ATOM     13  C   UNK A   2      -8.984  -3.640 124.265  0.00  0.00    +0.000 A 
ATOM     14  C   UNK A   2      -9.717  -3.043 123.259  0.00  0.00    +0.000 A 
ATOM     15  C   UNK A   2      -9.100  -1.960 122.638  0.00  0.00    +0.000 A 
ATOM     16  C   UNK A   2      -7.645  -1.644 122.906  0.00  0.00    +0.000 A 
ATOM     17  C   UNK A   2      -6.755  -2.518 123.734  0.00  0.00    +0.000 A 
ATOM     18  C   UNK A   2      -5.310  -2.364 124.880  0.00  0.00    +0.000 C 
ENDBRANCH   4  10
BRANCH   1  19
ATOM     19  C   UNK A   0      -5.699  -0.900 130.172  0.00  0.00    +0.000 C 
BRANCH  19  24
ATOM     20  C   UNK A   0      -4.144   3.282 133.937  0.00  0.00    +0.000 C 
ATOM     21  C   UNK A   0      -4.558   2.212 132.994  0.00  0.00    +0.000 A 
ATOM     22  C   UNK A   0      -5.597   1.337 133.292  0.00  0.00    +0.000 A 
ATOM     23  C   UNK A   0      -5.916   0.313 132.413  0.00  0.00    +0.000 A 
ATOM     24  C   UNK A   0      -5.327   0.251 131.143  0.00  0.00    +0.000 A 
ATOM     25  C   UNK A   0      -4.384   1.243 130.829  0.00  0.00    +0.000 A 
ATOM     26  C   UNK A   0      -3.899   2.112 131.783  0.00  0.00    +0.000 A 
ENDBRANCH  19  24
BRANCH  19  27
ATOM     27  C   UNK A   0      -6.324  -1.963 131.106  0.00  0.00    +0.000 C 
ATOM     28  O   UNK A   0      -7.540  -2.140 131.142  0.00  0.00    +0.000 OA
ATOM     29  N   UNK A   0      -5.590  -2.649 132.043  0.00  0.00    +0.000 N 
ATOM     30  H   UNK A   0      -4.771  -2.247 132.475  0.00  0.00    +0.000 HD
BRANCH  29  31
ATOM     31  C   UNK A   0      -6.347  -3.641 132.790  0.00  0.00    +0.000 C 
ATOM     32  C   UNK A   0      -5.620  -4.972 132.650  0.00  0.00    +0.000 C 
ATOM     33  C   UNK A   0      -6.508  -3.227 134.230  0.00  0.00    +0.000 C 
ENDBRANCH  29  31
ENDBRANCH  19  27
ENDBRANCH   1  19
BRANCH   8  34
ATOM     34  CB  LEU A   1      -8.148   0.996 129.927  0.00  0.00    +0.000 C 
BRANCH  34  35
ATOM     35  CG  LEU A   1      -8.217   2.324 130.601  0.00  0.00    +0.000 C 
ATOM     36  CD1 LEU A   1      -7.270   3.315 129.928  0.00  0.00    +0.000 C 
ATOM     37  CD2 LEU A   1      -9.646   2.820 130.443  0.00  0.00    +0.000 C 
ENDBRANCH  34  35
ENDBRANCH   8  34
TORSDOF 7
ENDMDL
