MODEL 1
REMARK VINA RESULT:      -8.7      0.000      0.000
REMARK  Name = CHEMBL2369830
REMARK  21 active torsions:
REMARK  status: ('A' for Active; 'I' for Inactive)
REMARK    1  A    between atoms: C_1  and  C_2
REMARK    2  A    between atoms: C_2  and  C_3
REMARK    3  A    between atoms: C_3  and  C_4
REMARK    4  A    between atoms: C_4  and  C_5
REMARK    5  A    between atoms: C_9  and  C_10
REMARK    6  A    between atoms: C_10  and  C_11
REMARK    7  A    between atoms: C_20  and  C_21
REMARK    8  A    between atoms: C_21  and  C_22
REMARK    9  A    between atoms: C_25  and  O_26
REMARK   10  A    between atoms: C_37  and  C_38
REMARK   11  A    between atoms: C_44  and  C_45
REMARK   12  A    between atoms: N_47  and  C_48
REMARK   13  A    between atoms: C_48  and  C_49
REMARK   14  A    between atoms: C_48  and  C_56
REMARK   15  A    between atoms: C_49  and  C_50
REMARK   16  A    between atoms: C_50  and  C_51
REMARK   17  A    between atoms: C_51  and  N_52
REMARK   18  A    between atoms: N_58  and  C_59
REMARK   19  A    between atoms: C_59  and  C_60
REMARK   20  A    between atoms: C_66  and  C_67
REMARK   21  A    between atoms: C_67  and  C_68
REMARK                            x       y       z     vdW  Elec       q    Type
REMARK                         _______ _______ _______ _____ _____    ______ ____
ROOT
ATOM      1  C   UNL     1      -5.344   2.615 135.056  0.00  0.00    +0.000 C 
ATOM      2  N   UNL     1      -4.317   1.809 136.127  0.00  0.00    +0.000 N 
ATOM      3  C   UNL     1      -4.187   0.420 136.498  0.00  0.00    +0.000 C 
ATOM      4  O   UNL     1      -3.105  -0.212 136.605  0.00  0.00    +0.000 OA
ATOM      5  C   UNL     1      -5.621  -0.216 136.729  0.00  0.00    +0.000 C 
ATOM      6  N   UNL     1      -6.505  -0.829 135.728  0.00  0.00    +0.000 N 
ATOM      7  C   UNL     1      -6.373  -2.079 135.142  0.00  0.00    +0.000 C 
ATOM      8  O   UNL     1      -7.425  -2.417 134.572  0.00  0.00    +0.000 OA
ATOM      9  C   UNL     1      -4.787  -2.967 135.157  0.00  0.00    +0.000 C 
ATOM     10  N   UNL     1      -5.166  -4.266 135.493  0.00  0.00    +0.000 N 
ATOM     11  C   UNL     1      -5.704  -5.084 134.543  0.00  0.00    +0.000 C 
ATOM     12  O   UNL     1      -5.941  -6.238 134.912  0.00  0.00    +0.000 OA
ATOM     13  C   UNL     1      -6.056  -4.682 133.050  0.00  0.00    +0.000 C 
ATOM     14  C   UNL     1      -5.834  -3.369 132.369  0.00  0.00    +0.000 C 
ATOM     15  S   UNL     1      -6.477  -2.870 130.726  0.00  0.00    +0.000 S 
ATOM     16  S   UNL     1      -5.168  -1.361 130.181  0.00  0.00    +0.000 S 
ATOM     17  C   UNL     1      -5.961   0.021 129.316  0.00  0.00    +0.000 C 
ATOM     18  C   UNL     1      -5.456   1.472 129.110  0.00  0.00    +0.000 C 
ATOM     19  N   UNL     1      -6.188   2.438 130.025  0.00  0.00    +0.000 N 
ATOM     20  C   UNL     1      -6.240   2.467 131.372  0.00  0.00    +0.000 C 
ATOM     21  O   UNL     1      -6.895   3.162 132.129  0.00  0.00    +0.000 OA
ATOM     22  C   UNL     1      -5.216   1.691 131.941  0.00  0.00    +0.000 C 
ATOM     23  N   UNL     1      -4.331   2.984 132.815  0.00  0.00    +0.000 N 
ATOM     24  C   UNL     1      -4.287   3.280 134.183  0.00  0.00    +0.000 C 
ATOM     25  O   UNL     1      -3.131   3.450 134.641  0.00  0.00    +0.000 OA
ATOM     26  H   UNL     1      -3.330   2.124 136.052  0.00  0.00    +0.000 HD
ATOM     27  H   UNL     1      -7.230  -0.271 135.276  0.00  0.00    +0.000 HD
ATOM     28  H   UNL     1      -4.856  -4.604 136.398  0.00  0.00    +0.000 HD
ATOM     29  H   UNL     1      -6.708   3.201 129.619  0.00  0.00    +0.000 HD
ATOM     30  H   UNL     1      -3.314   2.773 132.968  0.00  0.00    +0.000 HD
ENDROOT
BRANCH  18  31
ATOM     31  C   UNL     1      -5.705   1.963 127.653  0.00  0.00    +0.000 C 
ATOM     32  O   UNL     1      -6.571   1.375 126.995  0.00  0.00    +0.000 OA
ATOM     33  N   UNL     1      -5.104   3.151 127.239  0.00  0.00    +0.000 N 
ATOM     34  C   UNL     1      -3.703   3.542 127.335  0.00  0.00    +0.000 C 
ATOM     35  C   UNL     1      -3.789   5.039 127.390  0.00  0.00    +0.000 C 
ATOM     36  C   UNL     1      -4.799   5.325 126.299  0.00  0.00    +0.000 C 
ATOM     37  C   UNL     1      -5.753   4.110 126.298  0.00  0.00    +0.000 C 
BRANCH  37  38
ATOM     38  C   UNL     1      -5.749   3.616 124.849  0.00  0.00    +0.000 C 
ATOM     39  O   UNL     1      -4.934   4.104 124.065  0.00  0.00    +0.000 OA
ATOM     40  N   UNL     1      -6.730   2.710 124.449  0.00  0.00    +0.000 N 
ATOM     41  H   UNL     1      -7.554   2.531 125.019  0.00  0.00    +0.000 HD
BRANCH  40  42
ATOM     42  C   UNL     1      -6.711   2.037 123.121  0.00  0.00    +0.000 C 
BRANCH  42  43
ATOM     43  C   UNL     1      -7.221   3.002 121.992  0.00  0.00    +0.000 C 
ATOM     44  O   UNL     1      -8.397   3.364 121.941  0.00  0.00    +0.000 OA
ATOM     45  N   UNL     1      -6.289   3.430 121.060  0.00  0.00    +0.000 N 
ATOM     46  H   UNL     1      -5.337   3.124 121.137  0.00  0.00    +0.000 HD
BRANCH  45  47
ATOM     47  C   UNL     1      -6.640   4.319 119.947  0.00  0.00    +0.000 C 
BRANCH  47  48
ATOM     48  C   UNL     1      -5.594   5.398 119.602  0.00  0.00    +0.000 C 
ATOM     49  N   UNL     1      -5.586   5.900 118.328  0.00  0.00    +0.000 N 
ATOM     50  O   UNL     1      -4.781   5.815 120.424  0.00  0.00    +0.000 OA
ATOM     51  H   UNL     1      -6.199   5.629 117.581  0.00  0.00    +0.000 HD
ATOM     52  H   UNL     1      -4.897   6.606 118.097  0.00  0.00    +0.000 HD
ENDBRANCH  47  48
ENDBRANCH  45  47
ENDBRANCH  42  43
BRANCH  42  53
ATOM     53  C   UNL     1      -7.599   0.778 123.144  0.00  0.00    +0.000 C 
BRANCH  53  54
ATOM     54  C   UNL     1      -6.779  -0.504 123.123  0.00  0.00    +0.000 C 
BRANCH  54  55
ATOM     55  C   UNL     1      -6.360  -1.012 124.464  0.00  0.00    +0.000 C 
BRANCH  55  56
ATOM     56  N   UNL     1      -7.113  -2.235 124.759  0.00  0.00    +0.000 NA
ATOM     57  C   UNL     1      -7.987  -2.154 125.696  0.00  0.00    +0.000 C 
ATOM     58  N   UNL     1      -8.263  -1.038 126.398  0.00  0.00    +0.000 N 
ATOM     59  N   UNL     1      -8.722  -3.230 126.035  0.00  0.00    +0.000 N 
ATOM     60  H   UNL     1      -7.737  -0.198 126.201  0.00  0.00    +0.000 HD
ATOM     61  H   UNL     1      -8.955  -0.975 127.121  0.00  0.00    +0.000 HD
ATOM     62  H   UNL     1      -8.543  -4.098 125.540  0.00  0.00    +0.000 HD
ATOM     63  H   UNL     1      -9.433  -3.246 126.746  0.00  0.00    +0.000 HD
ENDBRANCH  55  56
ENDBRANCH  54  55
ENDBRANCH  53  54
ENDBRANCH  42  53
ENDBRANCH  40  42
ENDBRANCH  37  38
ENDBRANCH  18  31
BRANCH   9  64
ATOM     64  C   UNL     1      -3.559  -3.246 134.185  0.00  0.00    +0.000 C 
BRANCH  64  65
ATOM     65  C   UNL     1      -2.394  -3.159 134.999  0.00  0.00    +0.000 A 
ATOM     66  C   UNL     1      -1.132  -1.973 134.491  0.00  0.00    +0.000 A 
ATOM     67  C   UNL     1       0.438  -2.114 135.301  0.00  0.00    +0.000 A 
ATOM     68  C   UNL     1       0.806  -3.462 136.506  0.00  0.00    +0.000 A 
ATOM     69  C   UNL     1      -0.356  -4.562 136.912  0.00  0.00    +0.000 A 
ATOM     70  C   UNL     1      -1.955  -4.457 136.173  0.00  0.00    +0.000 A 
BRANCH  68  71
ATOM     71  O   UNL     1       1.895  -3.402 137.363  0.00  0.00    +0.000 OA
ATOM     72  H   UNL     1       2.537  -4.150 137.311  0.00  0.00    +0.000 HD
ENDBRANCH  68  71
ENDBRANCH  64  65
ENDBRANCH   9  64
BRANCH   5  73
ATOM     73  C   UNL     1      -5.474  -1.192 137.839  0.00  0.00    +0.000 C 
BRANCH  73  74
ATOM     74  C   UNL     1      -6.429  -0.902 138.948  0.00  0.00    +0.000 A 
ATOM     75  C   UNL     1      -7.706  -1.490 139.108  0.00  0.00    +0.000 A 
ATOM     76  C   UNL     1      -8.752  -0.842 139.700  0.00  0.00    +0.000 A 
ATOM     77  C   UNL     1      -8.394   0.127 140.585  0.00  0.00    +0.000 A 
ATOM     78  C   UNL     1      -7.082   0.616 140.611  0.00  0.00    +0.000 A 
ATOM     79  C   UNL     1      -6.111   0.152 139.745  0.00  0.00    +0.000 A 
ENDBRANCH  73  74
ENDBRANCH   5  73
BRANCH   1  80
ATOM     80  C   UNL     1      -6.578   3.468 135.183  0.00  0.00    +0.000 C 
BRANCH  80  81
ATOM     81  C   UNL     1      -6.043   4.819 135.184  0.00  0.00    +0.000 C 
BRANCH  81  83
ATOM     82  C   UNL     1      -7.612   6.014 136.511  0.00  0.00    +0.000 C 
ATOM     83  C   UNL     1      -7.153   5.816 135.094  0.00  0.00    +0.000 C 
ENDBRANCH  81  83
ENDBRANCH  80  81
ENDBRANCH   1  80
BRANCH  22  84
ATOM     84  C   UNL     1      -5.708   0.429 132.554  0.00  0.00    +0.000 C 
BRANCH  84  85
ATOM     85  C   UNL     1      -7.478   0.598 132.347  0.00  0.00    +0.000 C 
ATOM     86  N   UNL     1      -8.837  -0.263 131.326  0.00  0.00    +0.000 N 
ATOM     87  O   UNL     1      -7.366   0.545 133.669  0.00  0.00    +0.000 OA
ATOM     88  H   UNL     1      -8.803  -0.759 130.387  0.00  0.00    +0.000 HD
ATOM     89  H   UNL     1      -9.471  -1.064 131.666  0.00  0.00    +0.000 HD
ENDBRANCH  84  85
ENDBRANCH  22  84
TORSDOF 20
ENDMDL
MODEL 2
REMARK VINA RESULT:      -8.7      3.548     12.861
REMARK  Name = CHEMBL2369830
REMARK  21 active torsions:
REMARK  status: ('A' for Active; 'I' for Inactive)
REMARK    1  A    between atoms: C_1  and  C_2
REMARK    2  A    between atoms: C_2  and  C_3
REMARK    3  A    between atoms: C_3  and  C_4
REMARK    4  A    between atoms: C_4  and  C_5
REMARK    5  A    between atoms: C_9  and  C_10
REMARK    6  A    between atoms: C_10  and  C_11
REMARK    7  A    between atoms: C_20  and  C_21
REMARK    8  A    between atoms: C_21  and  C_22
REMARK    9  A    between atoms: C_25  and  O_26
REMARK   10  A    between atoms: C_37  and  C_38
REMARK   11  A    between atoms: C_44  and  C_45
REMARK   12  A    between atoms: N_47  and  C_48
REMARK   13  A    between atoms: C_48  and  C_49
REMARK   14  A    between atoms: C_48  and  C_56
REMARK   15  A    between atoms: C_49  and  C_50
REMARK   16  A    between atoms: C_50  and  C_51
REMARK   17  A    between atoms: C_51  and  N_52
REMARK   18  A    between atoms: N_58  and  C_59
REMARK   19  A    between atoms: C_59  and  C_60
REMARK   20  A    between atoms: C_66  and  C_67
REMARK   21  A    between atoms: C_67  and  C_68
REMARK                            x       y       z     vdW  Elec       q    Type
REMARK                         _______ _______ _______ _____ _____    ______ ____
ROOT
ATOM      1  C   UNL     1      -7.261  -1.533 126.728  0.00  0.00    +0.000 C 
ATOM      2  N   UNL     1      -6.401  -0.276 125.998  0.00  0.00    +0.000 N 
ATOM      3  C   UNL     1      -6.413   1.156 126.186  0.00  0.00    +0.000 C 
ATOM      4  O   UNL     1      -5.396   1.892 126.272  0.00  0.00    +0.000 OA
ATOM      5  C   UNL     1      -7.906   1.675 126.297  0.00  0.00    +0.000 C 
ATOM      6  N   UNL     1      -8.740   1.765 127.504  0.00  0.00    +0.000 N 
ATOM      7  C   UNL     1      -8.651   2.706 128.520  0.00  0.00    +0.000 C 
ATOM      8  O   UNL     1      -9.670   2.688 129.233  0.00  0.00    +0.000 OA
ATOM      9  C   UNL     1      -7.146   3.695 128.762  0.00  0.00    +0.000 C 
ATOM     10  N   UNL     1      -7.653   4.977 128.975  0.00  0.00    +0.000 N 
ATOM     11  C   UNL     1      -8.163   5.312 130.196  0.00  0.00    +0.000 C 
ATOM     12  O   UNL     1      -8.521   6.486 130.315  0.00  0.00    +0.000 OA
ATOM     13  C   UNL     1      -8.346   4.337 131.434  0.00  0.00    +0.000 C 
ATOM     14  C   UNL     1      -7.962   2.896 131.542  0.00  0.00    +0.000 C 
ATOM     15  S   UNL     1      -8.412   1.746 132.897  0.00  0.00    +0.000 S 
ATOM     16  S   UNL     1      -6.946   0.291 132.744  0.00  0.00    +0.000 S 
ATOM     17  C   UNL     1      -7.549  -1.391 133.049  0.00  0.00    +0.000 C 
ATOM     18  C   UNL     1      -6.916  -2.749 132.650  0.00  0.00    +0.000 C 
ATOM     19  N   UNL     1      -7.653  -3.368 131.475  0.00  0.00    +0.000 N 
ATOM     20  C   UNL     1      -7.825  -2.889 130.226  0.00  0.00    +0.000 C 
ATOM     21  O   UNL     1      -8.491  -3.310 129.296  0.00  0.00    +0.000 OA
ATOM     22  C   UNL     1      -6.920  -1.852 129.947  0.00  0.00    +0.000 C 
ATOM     23  N   UNL     1      -6.022  -2.614 128.593  0.00  0.00    +0.000 N 
ATOM     24  C   UNL     1      -6.080  -2.363 127.217  0.00  0.00    +0.000 C 
ATOM     25  O   UNL     1      -4.962  -2.222 126.667  0.00  0.00    +0.000 OA
ATOM     26  H   UNL     1      -5.390  -0.489 125.891  0.00  0.00    +0.000 HD
ATOM     27  H   UNL     1      -9.375   1.004 127.744  0.00  0.00    +0.000 HD
ATOM     28  H   UNL     1      -7.454   5.664 128.256  0.00  0.00    +0.000 HD
ATOM     29  H   UNL     1      -8.074  -4.278 131.582  0.00  0.00    +0.000 HD
ATOM     30  H   UNL     1      -5.042  -2.254 128.479  0.00  0.00    +0.000 HD
ENDROOT
BRANCH  18  31
ATOM     31  C   UNL     1      -6.994  -3.780 133.816  0.00  0.00    +0.000 C 
ATOM     32  O   UNL     1      -8.114  -4.059 134.255  0.00  0.00    +0.000 OA
ATOM     33  N   UNL     1      -5.839  -4.484 134.159  0.00  0.00    +0.000 N 
ATOM     34  C   UNL     1      -4.511  -3.960 134.455  0.00  0.00    +0.000 C 
ATOM     35  C   UNL     1      -3.622  -5.109 134.078  0.00  0.00    +0.000 C 
ATOM     36  C   UNL     1      -4.358  -6.278 134.696  0.00  0.00    +0.000 C 
ATOM     37  C   UNL     1      -5.855  -5.901 134.625  0.00  0.00    +0.000 C 
BRANCH  37  38
ATOM     38  C   UNL     1      -6.361  -6.050 136.062  0.00  0.00    +0.000 C 
ATOM     39  O   UNL     1      -5.546  -6.323 136.945  0.00  0.00    +0.000 OA
ATOM     40  N   UNL     1      -7.732  -5.972 136.299  0.00  0.00    +0.000 N 
ATOM     41  H   UNL     1      -8.408  -6.026 135.541  0.00  0.00    +0.000 HD
BRANCH  40  42
ATOM     42  C   UNL     1      -8.310  -5.928 137.670  0.00  0.00    +0.000 C 
BRANCH  42  43
ATOM     43  C   UNL     1      -9.879  -5.990 137.624  0.00  0.00    +0.000 C 
ATOM     44  O   UNL     1     -10.474  -6.409 136.631  0.00  0.00    +0.000 OA
ATOM     45  N   UNL     1     -10.560  -5.556 138.748  0.00  0.00    +0.000 N 
ATOM     46  H   UNL     1     -10.044  -5.229 139.545  0.00  0.00    +0.000 HD
BRANCH  45  47
ATOM     47  C   UNL     1     -12.026  -5.546 138.827  0.00  0.00    +0.000 C 
BRANCH  47  48
ATOM     48  C   UNL     1     -12.685  -4.152 138.810  0.00  0.00    +0.000 C 
ATOM     49  N   UNL     1     -12.229  -3.239 137.897  0.00  0.00    +0.000 N 
ATOM     50  O   UNL     1     -13.594  -3.843 139.577  0.00  0.00    +0.000 OA
ATOM     51  H   UNL     1     -11.493  -3.385 137.230  0.00  0.00    +0.000 HD
ATOM     52  H   UNL     1     -12.658  -2.321 137.885  0.00  0.00    +0.000 HD
ENDBRANCH  47  48
ENDBRANCH  45  47
ENDBRANCH  42  43
BRANCH  42  53
ATOM     53  C   UNL     1      -7.880  -4.638 138.394  0.00  0.00    +0.000 C 
BRANCH  53  54
ATOM     54  C   UNL     1      -8.262  -3.388 137.616  0.00  0.00    +0.000 C 
BRANCH  54  55
ATOM     55  C   UNL     1      -7.459  -2.169 137.937  0.00  0.00    +0.000 C 
BRANCH  55  56
ATOM     56  N   UNL     1      -6.839  -1.676 136.704  0.00  0.00    +0.000 NA
ATOM     57  C   UNL     1      -5.727  -1.048 136.837  0.00  0.00    +0.000 C 
ATOM     58  N   UNL     1      -5.099  -0.833 138.010  0.00  0.00    +0.000 N 
ATOM     59  N   UNL     1      -5.089  -0.559 135.757  0.00  0.00    +0.000 N 
ATOM     60  H   UNL     1      -5.532  -1.165 138.860  0.00  0.00    +0.000 HD
ATOM     61  H   UNL     1      -4.224  -0.353 138.108  0.00  0.00    +0.000 HD
ATOM     62  H   UNL     1      -5.528  -0.688 134.852  0.00  0.00    +0.000 HD
ATOM     63  H   UNL     1      -4.211  -0.068 135.776  0.00  0.00    +0.000 HD
ENDBRANCH  55  56
ENDBRANCH  54  55
ENDBRANCH  53  54
ENDBRANCH  42  53
ENDBRANCH  40  42
ENDBRANCH  37  38
ENDBRANCH  18  31
BRANCH   9  64
ATOM     64  C   UNL     1      -5.860   3.714 129.698  0.00  0.00    +0.000 C 
BRANCH  64  65
ATOM     65  C   UNL     1      -4.950   4.623 129.086  0.00  0.00    +0.000 A 
ATOM     66  C   UNL     1      -3.691   3.912 128.005  0.00  0.00    +0.000 A 
ATOM     67  C   UNL     1      -2.373   4.997 127.530  0.00  0.00    +0.000 A 
ATOM     68  C   UNL     1      -2.225   6.714 128.188  0.00  0.00    +0.000 A 
ATOM     69  C   UNL     1      -3.369   7.317 129.214  0.00  0.00    +0.000 A 
ATOM     70  C   UNL     1      -4.729   6.305 129.699  0.00  0.00    +0.000 A 
BRANCH  68  71
ATOM     71  O   UNL     1      -1.398   7.657 127.596  0.00  0.00    +0.000 OA
ATOM     72  H   UNL     1      -0.849   7.344 126.837  0.00  0.00    +0.000 HD
ENDBRANCH  68  71
ENDBRANCH  64  65
ENDBRANCH   9  64
BRANCH   5  73
ATOM     73  C   UNL     1      -7.937   3.009 125.645  0.00  0.00    +0.000 C 
BRANCH  73  74
ATOM     74  C   UNL     1      -7.772   2.895 124.166  0.00  0.00    +0.000 A 
ATOM     75  C   UNL     1      -6.603   3.226 123.441  0.00  0.00    +0.000 A 
ATOM     76  C   UNL     1      -6.632   3.684 122.156  0.00  0.00    +0.000 A 
ATOM     77  C   UNL     1      -7.725   3.304 121.441  0.00  0.00    +0.000 A 
ATOM     78  C   UNL     1      -8.850   2.779 122.088  0.00  0.00    +0.000 A 
ATOM     79  C   UNL     1      -8.905   2.637 123.460  0.00  0.00    +0.000 A 
ENDBRANCH  73  74
ENDBRANCH   5  73
BRANCH   1  80
ATOM     80  C   UNL     1      -8.432  -2.399 126.349  0.00  0.00    +0.000 C 
BRANCH  80  81
ATOM     81  C   UNL     1      -7.893  -3.232 125.287  0.00  0.00    +0.000 C 
BRANCH  81  83
ATOM     82  C   UNL     1      -8.704  -2.387 123.220  0.00  0.00    +0.000 C 
ATOM     83  C   UNL     1      -8.929  -3.469 124.238  0.00  0.00    +0.000 C 
ENDBRANCH  81  83
ENDBRANCH  80  81
ENDBRANCH   1  80
BRANCH  22  84
ATOM     84  C   UNL     1      -7.562  -0.511 129.897  0.00  0.00    +0.000 C 
BRANCH  84  85
ATOM     85  C   UNL     1      -6.144   0.571 130.049  0.00  0.00    +0.000 C 
ATOM     86  N   UNL     1      -4.467   0.528 130.951  0.00  0.00    +0.000 N 
ATOM     87  O   UNL     1      -6.304   0.522 128.732  0.00  0.00    +0.000 OA
ATOM     88  H   UNL     1      -4.163   0.051 131.851  0.00  0.00    +0.000 HD
ATOM     89  H   UNL     1      -3.530   0.206 130.529  0.00  0.00    +0.000 HD
ENDBRANCH  84  85
ENDBRANCH  22  84
TORSDOF 20
ENDMDL
MODEL 3
REMARK VINA RESULT:      -8.6      5.825     13.223
REMARK  Name = CHEMBL2369830
REMARK  21 active torsions:
REMARK  status: ('A' for Active; 'I' for Inactive)
REMARK    1  A    between atoms: C_1  and  C_2
REMARK    2  A    between atoms: C_2  and  C_3
REMARK    3  A    between atoms: C_3  and  C_4
REMARK    4  A    between atoms: C_4  and  C_5
REMARK    5  A    between atoms: C_9  and  C_10
REMARK    6  A    between atoms: C_10  and  C_11
REMARK    7  A    between atoms: C_20  and  C_21
REMARK    8  A    between atoms: C_21  and  C_22
REMARK    9  A    between atoms: C_25  and  O_26
REMARK   10  A    between atoms: C_37  and  C_38
REMARK   11  A    between atoms: C_44  and  C_45
REMARK   12  A    between atoms: N_47  and  C_48
REMARK   13  A    between atoms: C_48  and  C_49
REMARK   14  A    between atoms: C_48  and  C_56
REMARK   15  A    between atoms: C_49  and  C_50
REMARK   16  A    between atoms: C_50  and  C_51
REMARK   17  A    between atoms: C_51  and  N_52
REMARK   18  A    between atoms: N_58  and  C_59
REMARK   19  A    between atoms: C_59  and  C_60
REMARK   20  A    between atoms: C_66  and  C_67
REMARK   21  A    between atoms: C_67  and  C_68
REMARK                            x       y       z     vdW  Elec       q    Type
REMARK                         _______ _______ _______ _____ _____    ______ ____
ROOT
ATOM      1  C   UNL     1     -10.047   3.070 130.667  0.00  0.00    +0.000 C 
ATOM      2  N   UNL     1      -9.465   1.717 129.842  0.00  0.00    +0.000 N 
ATOM      3  C   UNL     1      -8.264   1.481 129.075  0.00  0.00    +0.000 C 
ATOM      4  O   UNL     1      -7.528   0.464 129.160  0.00  0.00    +0.000 OA
ATOM      5  C   UNL     1      -7.983   2.712 128.117  0.00  0.00    +0.000 C 
ATOM      6  N   UNL     1      -7.239   3.941 128.426  0.00  0.00    +0.000 N 
ATOM      7  C   UNL     1      -5.864   4.089 128.530  0.00  0.00    +0.000 C 
ATOM      8  O   UNL     1      -5.542   5.290 128.506  0.00  0.00    +0.000 OA
ATOM      9  C   UNL     1      -4.777   2.657 128.788  0.00  0.00    +0.000 C 
ATOM     10  N   UNL     1      -3.734   2.897 127.894  0.00  0.00    +0.000 N 
ATOM     11  C   UNL     1      -2.758   3.795 128.215  0.00  0.00    +0.000 C 
ATOM     12  O   UNL     1      -1.838   3.890 127.398  0.00  0.00    +0.000 OA
ATOM     13  C   UNL     1      -2.717   4.714 129.507  0.00  0.00    +0.000 C 
ATOM     14  C   UNL     1      -3.688   4.756 130.643  0.00  0.00    +0.000 C 
ATOM     15  S   UNL     1      -3.739   5.999 131.990  0.00  0.00    +0.000 S 
ATOM     16  S   UNL     1      -4.756   4.988 133.484  0.00  0.00    +0.000 S 
ATOM     17  C   UNL     1      -5.903   6.030 134.424  0.00  0.00    +0.000 C 
ATOM     18  C   UNL     1      -7.107   5.616 135.308  0.00  0.00    +0.000 C 
ATOM     19  N   UNL     1      -8.422   5.891 134.599  0.00  0.00    +0.000 N 
ATOM     20  C   UNL     1      -8.887   5.389 133.436  0.00  0.00    +0.000 C 
ATOM     21  O   UNL     1      -9.885   5.663 132.793  0.00  0.00    +0.000 OA
ATOM     22  C   UNL     1      -8.173   4.242 133.052  0.00  0.00    +0.000 C 
ATOM     23  N   UNL     1      -9.511   3.047 133.094  0.00  0.00    +0.000 N 
ATOM     24  C   UNL     1     -10.215   2.443 132.045  0.00  0.00    +0.000 C 
ATOM     25  O   UNL     1     -10.326   1.198 132.144  0.00  0.00    +0.000 OA
ATOM     26  H   UNL     1      -9.570   0.838 130.386  0.00  0.00    +0.000 HD
ATOM     27  H   UNL     1      -7.738   4.773 128.744  0.00  0.00    +0.000 HD
ATOM     28  H   UNL     1      -3.655   2.255 127.113  0.00  0.00    +0.000 HD
ATOM     29  H   UNL     1      -9.092   6.512 135.027  0.00  0.00    +0.000 HD
ATOM     30  H   UNL     1      -9.192   2.061 133.266  0.00  0.00    +0.000 HD
ENDROOT
BRANCH  18  31
ATOM     31  C   UNL     1      -7.144   6.425 136.640  0.00  0.00    +0.000 C 
ATOM     32  O   UNL     1      -7.909   7.393 136.696  0.00  0.00    +0.000 OA
ATOM     33  N   UNL     1      -6.484   5.904 137.753  0.00  0.00    +0.000 N 
ATOM     34  C   UNL     1      -5.109   5.431 137.854  0.00  0.00    +0.000 C 
ATOM     35  C   UNL     1      -5.194   4.430 138.968  0.00  0.00    +0.000 C 
ATOM     36  C   UNL     1      -6.035   5.174 139.981  0.00  0.00    +0.000 C 
ATOM     37  C   UNL     1      -6.986   6.063 139.148  0.00  0.00    +0.000 C 
BRANCH  37  38
ATOM     38  C   UNL     1      -6.778   7.476 139.699  0.00  0.00    +0.000 C 
ATOM     39  O   UNL     1      -5.790   7.691 140.404  0.00  0.00    +0.000 OA
ATOM     40  N   UNL     1      -7.761   8.436 139.466  0.00  0.00    +0.000 N 
ATOM     41  H   UNL     1      -8.686   8.180 139.130  0.00  0.00    +0.000 HD
BRANCH  40  42
ATOM     42  C   UNL     1      -7.577   9.874 139.803  0.00  0.00    +0.000 C 
BRANCH  42  43
ATOM     43  C   UNL     1      -8.957  10.569 140.086  0.00  0.00    +0.000 C 
ATOM     44  O   UNL     1      -9.921  10.408 139.336  0.00  0.00    +0.000 OA
ATOM     45  N   UNL     1      -9.043  11.365 141.216  0.00  0.00    +0.000 N 
ATOM     46  H   UNL     1      -8.241  11.466 141.811  0.00  0.00    +0.000 HD
BRANCH  45  47
ATOM     47  C   UNL     1     -10.269  12.082 141.584  0.00  0.00    +0.000 C 
BRANCH  47  48
ATOM     48  C   UNL     1     -10.486  13.435 140.878  0.00  0.00    +0.000 C 
ATOM     49  N   UNL     1     -10.996  13.421 139.607  0.00  0.00    +0.000 N 
ATOM     50  O   UNL     1     -10.222  14.509 141.415  0.00  0.00    +0.000 OA
ATOM     51  H   UNL     1     -11.242  12.606 139.077  0.00  0.00    +0.000 HD
ATOM     52  H   UNL     1     -11.137  14.309 139.140  0.00  0.00    +0.000 HD
ENDBRANCH  47  48
ENDBRANCH  45  47
ENDBRANCH  42  43
BRANCH  42  53
ATOM     53  C   UNL     1      -6.872  10.611 138.649  0.00  0.00    +0.000 C 
BRANCH  53  54
ATOM     54  C   UNL     1      -5.713  11.468 139.136  0.00  0.00    +0.000 C 
BRANCH  54  55
ATOM     55  C   UNL     1      -6.035  12.912 139.348  0.00  0.00    +0.000 C 
BRANCH  55  56
ATOM     56  N   UNL     1      -6.329  13.123 140.769  0.00  0.00    +0.000 NA
ATOM     57  C   UNL     1      -6.931  14.217 141.069  0.00  0.00    +0.000 C 
ATOM     58  N   UNL     1      -7.316  15.154 140.180  0.00  0.00    +0.000 N 
ATOM     59  N   UNL     1      -7.238  14.495 142.350  0.00  0.00    +0.000 N 
ATOM     60  H   UNL     1      -7.104  15.012 139.203  0.00  0.00    +0.000 HD
ATOM     61  H   UNL     1      -7.796  16.002 140.417  0.00  0.00    +0.000 HD
ATOM     62  H   UNL     1      -6.959  13.823 143.057  0.00  0.00    +0.000 HD
ATOM     63  H   UNL     1      -7.717  15.321 142.665  0.00  0.00    +0.000 HD
ENDBRANCH  55  56
ENDBRANCH  54  55
ENDBRANCH  53  54
ENDBRANCH  42  53
ENDBRANCH  40  42
ENDBRANCH  37  38
ENDBRANCH  18  31
BRANCH   9  64
ATOM     64  C   UNL     1      -4.002   1.937 129.977  0.00  0.00    +0.000 C 
BRANCH  64  65
ATOM     65  C   UNL     1      -4.494   0.600 130.005  0.00  0.00    +0.000 A 
ATOM     66  C   UNL     1      -4.419  -0.262 131.589  0.00  0.00    +0.000 A 
ATOM     67  C   UNL     1      -4.708  -2.010 131.535  0.00  0.00    +0.000 A 
ATOM     68  C   UNL     1      -4.955  -2.919 129.949  0.00  0.00    +0.000 A 
ATOM     69  C   UNL     1      -4.968  -2.106 128.512  0.00  0.00    +0.000 A 
ATOM     70  C   UNL     1      -4.724  -0.359 128.494  0.00  0.00    +0.000 A 
BRANCH  68  71
ATOM     71  O   UNL     1      -5.483  -4.201 129.913  0.00  0.00    +0.000 OA
ATOM     72  H   UNL     1      -6.164  -4.376 129.220  0.00  0.00    +0.000 HD
ENDBRANCH  68  71
ENDBRANCH  64  65
ENDBRANCH   9  64
BRANCH   5  73
ATOM     73  C   UNL     1      -7.400   2.151 126.871  0.00  0.00    +0.000 C 
BRANCH  73  74
ATOM     74  C   UNL     1      -8.425   2.045 125.792  0.00  0.00    +0.000 A 
ATOM     75  C   UNL     1      -9.403   1.028 125.684  0.00  0.00    +0.000 A 
ATOM     76  C   UNL     1      -9.896   0.597 124.486  0.00  0.00    +0.000 A 
ATOM     77  C   UNL     1      -9.830   1.512 123.481  0.00  0.00    +0.000 A 
ATOM     78  C   UNL     1      -9.027   2.651 123.609  0.00  0.00    +0.000 A 
ATOM     79  C   UNL     1      -8.266   2.888 124.737  0.00  0.00    +0.000 A 
ENDBRANCH  73  74
ENDBRANCH   5  73
BRANCH   1  80
ATOM     80  C   UNL     1     -11.089   4.125 130.405  0.00  0.00    +0.000 C 
BRANCH  80  81
ATOM     81  C   UNL     1     -10.330   5.182 129.759  0.00  0.00    +0.000 C 
BRANCH  81  83
ATOM     82  C   UNL     1     -10.196   7.550 129.611  0.00  0.00    +0.000 C 
ATOM     83  C   UNL     1     -11.172   6.408 129.610  0.00  0.00    +0.000 C 
ENDBRANCH  81  83
ENDBRANCH  80  81
ENDBRANCH   1  80
BRANCH  22  84
ATOM     84  C   UNL     1      -7.272   4.473 131.892  0.00  0.00    +0.000 C 
BRANCH  84  85
ATOM     85  C   UNL     1      -6.126   3.107 132.051  0.00  0.00    +0.000 C 
ATOM     86  N   UNL     1      -5.283   2.173 133.481  0.00  0.00    +0.000 N 
ATOM     87  O   UNL     1      -7.043   2.594 131.239  0.00  0.00    +0.000 OA
ATOM     88  H   UNL     1      -5.000   2.486 134.457  0.00  0.00    +0.000 HD
ATOM     89  H   UNL     1      -5.633   1.261 133.934  0.00  0.00    +0.000 HD
ENDBRANCH  84  85
ENDBRANCH  22  84
TORSDOF 20
ENDMDL
MODEL 4
REMARK VINA RESULT:      -8.2      5.043      7.839
REMARK  Name = CHEMBL2369830
REMARK  21 active torsions:
REMARK  status: ('A' for Active; 'I' for Inactive)
REMARK    1  A    between atoms: C_1  and  C_2
REMARK    2  A    between atoms: C_2  and  C_3
REMARK    3  A    between atoms: C_3  and  C_4
REMARK    4  A    between atoms: C_4  and  C_5
REMARK    5  A    between atoms: C_9  and  C_10
REMARK    6  A    between atoms: C_10  and  C_11
REMARK    7  A    between atoms: C_20  and  C_21
REMARK    8  A    between atoms: C_21  and  C_22
REMARK    9  A    between atoms: C_25  and  O_26
REMARK   10  A    between atoms: C_37  and  C_38
REMARK   11  A    between atoms: C_44  and  C_45
REMARK   12  A    between atoms: N_47  and  C_48
REMARK   13  A    between atoms: C_48  and  C_49
REMARK   14  A    between atoms: C_48  and  C_56
REMARK   15  A    between atoms: C_49  and  C_50
REMARK   16  A    between atoms: C_50  and  C_51
REMARK   17  A    between atoms: C_51  and  N_52
REMARK   18  A    between atoms: N_58  and  C_59
REMARK   19  A    between atoms: C_59  and  C_60
REMARK   20  A    between atoms: C_66  and  C_67
REMARK   21  A    between atoms: C_67  and  C_68
REMARK                            x       y       z     vdW  Elec       q    Type
REMARK                         _______ _______ _______ _____ _____    ______ ____
ROOT
ATOM      1  C   UNL     1      -1.287   8.823 133.921  0.00  0.00    +0.000 C 
ATOM      2  N   UNL     1      -0.661   8.363 135.421  0.00  0.00    +0.000 N 
ATOM      3  C   UNL     1      -1.286   7.977 136.664  0.00  0.00    +0.000 C 
ATOM      4  O   UNL     1      -0.948   7.000 137.381  0.00  0.00    +0.000 OA
ATOM      5  C   UNL     1      -2.491   8.953 136.991  0.00  0.00    +0.000 C 
ATOM      6  N   UNL     1      -3.888   8.838 136.548  0.00  0.00    +0.000 N 
ATOM      7  C   UNL     1      -4.853   7.965 137.028  0.00  0.00    +0.000 C 
ATOM      8  O   UNL     1      -5.990   8.315 136.663  0.00  0.00    +0.000 OA
ATOM      9  C   UNL     1      -4.399   6.469 137.953  0.00  0.00    +0.000 C 
ATOM     10  N   UNL     1      -5.305   6.476 139.013  0.00  0.00    +0.000 N 
ATOM     11  C   UNL     1      -6.588   6.057 138.813  0.00  0.00    +0.000 C 
ATOM     12  O   UNL     1      -7.298   6.029 139.822  0.00  0.00    +0.000 OA
ATOM     13  C   UNL     1      -7.229   5.631 137.426  0.00  0.00    +0.000 C 
ATOM     14  C   UNL     1      -6.569   5.554 136.087  0.00  0.00    +0.000 C 
ATOM     15  S   UNL     1      -7.402   5.297 134.473  0.00  0.00    +0.000 S 
ATOM     16  S   UNL     1      -5.867   4.551 133.300  0.00  0.00    +0.000 S 
ATOM     17  C   UNL     1      -5.890   5.156 131.592  0.00  0.00    +0.000 C 
ATOM     18  C   UNL     1      -4.749   5.181 130.542  0.00  0.00    +0.000 C 
ATOM     19  N   UNL     1      -4.195   6.585 130.374  0.00  0.00    +0.000 N 
ATOM     20  C   UNL     1      -3.604   7.386 131.283  0.00  0.00    +0.000 C 
ATOM     21  O   UNL     1      -3.242   8.547 131.206  0.00  0.00    +0.000 OA
ATOM     22  C   UNL     1      -3.187   6.658 132.411  0.00  0.00    +0.000 C 
ATOM     23  N   UNL     1      -1.419   6.946 132.296  0.00  0.00    +0.000 N 
ATOM     24  C   UNL     1      -0.590   7.781 133.055  0.00  0.00    +0.000 C 
ATOM     25  O   UNL     1       0.455   7.231 133.477  0.00  0.00    +0.000 OA
ATOM     26  H   UNL     1       0.130   7.694 135.340  0.00  0.00    +0.000 HD
ATOM     27  H   UNL     1      -4.199   9.328 135.709  0.00  0.00    +0.000 HD
ATOM     28  H   UNL     1      -4.915   6.629 139.936  0.00  0.00    +0.000 HD
ATOM     29  H   UNL     1      -4.228   7.020 129.464  0.00  0.00    +0.000 HD
ATOM     30  H   UNL     1      -0.838   6.193 132.743  0.00  0.00    +0.000 HD
ENDROOT
BRANCH  18  31
ATOM     31  C   UNL     1      -5.254   4.730 129.139  0.00  0.00    +0.000 C 
ATOM     32  O   UNL     1      -6.405   5.044 128.820  0.00  0.00    +0.000 OA
ATOM     33  N   UNL     1      -4.332   4.189 128.243  0.00  0.00    +0.000 N 
ATOM     34  C   UNL     1      -3.381   3.105 128.461  0.00  0.00    +0.000 C 
ATOM     35  C   UNL     1      -2.292   3.431 127.482  0.00  0.00    +0.000 C 
ATOM     36  C   UNL     1      -3.089   3.780 126.245  0.00  0.00    +0.000 C 
ATOM     37  C   UNL     1      -4.401   4.408 126.769  0.00  0.00    +0.000 C 
BRANCH  37  38
ATOM     38  C   UNL     1      -5.513   3.598 126.098  0.00  0.00    +0.000 C 
ATOM     39  O   UNL     1      -5.580   3.600 124.867  0.00  0.00    +0.000 OA
ATOM     40  N   UNL     1      -6.464   2.974 126.903  0.00  0.00    +0.000 N 
ATOM     41  H   UNL     1      -6.562   3.206 127.888  0.00  0.00    +0.000 HD
BRANCH  40  42
ATOM     42  C   UNL     1      -7.476   2.024 126.364  0.00  0.00    +0.000 C 
BRANCH  42  43
ATOM     43  C   UNL     1      -8.319   2.688 125.217  0.00  0.00    +0.000 C 
ATOM     44  O   UNL     1      -8.995   3.698 125.421  0.00  0.00    +0.000 OA
ATOM     45  N   UNL     1      -8.266   2.091 123.969  0.00  0.00    +0.000 N 
ATOM     46  H   UNL     1      -7.698   1.275 123.835  0.00  0.00    +0.000 HD
BRANCH  45  47
ATOM     47  C   UNL     1      -9.020   2.603 122.818  0.00  0.00    +0.000 C 
BRANCH  47  48
ATOM     48  C   UNL     1      -8.196   3.395 121.783  0.00  0.00    +0.000 C 
ATOM     49  N   UNL     1      -6.895   3.692 122.090  0.00  0.00    +0.000 N 
ATOM     50  O   UNL     1      -8.665   3.760 120.707  0.00  0.00    +0.000 OA
ATOM     51  H   UNL     1      -6.416   3.448 122.937  0.00  0.00    +0.000 HD
ATOM     52  H   UNL     1      -6.353   4.216 121.413  0.00  0.00    +0.000 HD
ENDBRANCH  47  48
ENDBRANCH  45  47
ENDBRANCH  42  43
BRANCH  42  53
ATOM     53  C   UNL     1      -8.428   1.562 127.484  0.00  0.00    +0.000 C 
BRANCH  53  54
ATOM     54  C   UNL     1      -8.430   2.517 128.668  0.00  0.00    +0.000 C 
BRANCH  54  55
ATOM     55  C   UNL     1      -7.973   1.926 129.962  0.00  0.00    +0.000 C 
BRANCH  55  56
ATOM     56  N   UNL     1      -8.521   2.725 131.063  0.00  0.00    +0.000 NA
ATOM     57  C   UNL     1      -9.253   2.098 131.912  0.00  0.00    +0.000 C 
ATOM     58  N   UNL     1      -9.527   0.779 131.867  0.00  0.00    +0.000 N 
ATOM     59  N   UNL     1      -9.800   2.753 132.953  0.00  0.00    +0.000 N 
ATOM     60  H   UNL     1      -9.157   0.232 131.103  0.00  0.00    +0.000 HD
ATOM     61  H   UNL     1     -10.089   0.291 132.539  0.00  0.00    +0.000 HD
ATOM     62  H   UNL     1      -9.629   3.751 133.023  0.00  0.00    +0.000 HD
ATOM     63  H   UNL     1     -10.372   2.334 133.665  0.00  0.00    +0.000 HD
ENDBRANCH  55  56
ENDBRANCH  54  55
ENDBRANCH  53  54
ENDBRANCH  42  53
ENDBRANCH  40  42
ENDBRANCH  37  38
ENDBRANCH  18  31
BRANCH   9  64
ATOM     64  C   UNL     1      -4.233   4.907 137.702  0.00  0.00    +0.000 C 
BRANCH  64  65
ATOM     65  C   UNL     1      -3.796   4.361 138.943  0.00  0.00    +0.000 A 
ATOM     66  C   UNL     1      -2.050   4.566 139.354  0.00  0.00    +0.000 A 
ATOM     67  C   UNL     1      -1.454   3.599 140.715  0.00  0.00    +0.000 A 
ATOM     68  C   UNL     1      -2.516   2.369 141.589  0.00  0.00    +0.000 A 
ATOM     69  C   UNL     1      -4.096   2.171 141.155  0.00  0.00    +0.000 A 
ATOM     70  C   UNL     1      -4.767   3.128 139.833  0.00  0.00    +0.000 A 
BRANCH  68  71
ATOM     71  O   UNL     1      -2.167   1.848 142.826  0.00  0.00    +0.000 OA
ATOM     72  H   UNL     1      -1.921   0.892 142.846  0.00  0.00    +0.000 HD
ENDBRANCH  68  71
ENDBRANCH  64  65
ENDBRANCH   9  64
BRANCH   5  73
ATOM     73  C   UNL     1      -2.513   9.114 138.468  0.00  0.00    +0.000 C 
BRANCH  73  74
ATOM     74  C   UNL     1      -3.084  10.435 138.862  0.00  0.00    +0.000 A 
ATOM     75  C   UNL     1      -4.259  10.627 139.627  0.00  0.00    +0.000 A 
ATOM     76  C   UNL     1      -5.069  11.716 139.481  0.00  0.00    +0.000 A 
ATOM     77  C   UNL     1      -4.450  12.826 138.996  0.00  0.00    +0.000 A 
ATOM     78  C   UNL     1      -3.186  12.731 138.399  0.00  0.00    +0.000 A 
ATOM     79  C   UNL     1      -2.528  11.524 138.267  0.00  0.00    +0.000 A 
ENDBRANCH  73  74
ENDBRANCH   5  73
BRANCH   1  80
ATOM     80  C   UNL     1      -1.476  10.122 133.186  0.00  0.00    +0.000 C 
BRANCH  80  81
ATOM     81  C   UNL     1      -2.536  10.772 133.937  0.00  0.00    +0.000 C 
BRANCH  81  83
ATOM     82  C   UNL     1      -1.492  12.440 132.604  0.00  0.00    +0.000 C 
ATOM     83  C   UNL     1      -2.552  12.239 133.649  0.00  0.00    +0.000 C 
ENDBRANCH  81  83
ENDBRANCH  80  81
ENDBRANCH   1  80
BRANCH  22  84
ATOM     84  C   UNL     1      -4.017   6.919 133.616  0.00  0.00    +0.000 C 
BRANCH  84  85
ATOM     85  C   UNL     1      -3.601   5.516 134.647  0.00  0.00    +0.000 C 
ATOM     86  N   UNL     1      -3.168   3.681 134.372  0.00  0.00    +0.000 N 
ATOM     87  O   UNL     1      -2.761   6.439 135.099  0.00  0.00    +0.000 OA
ATOM     88  H   UNL     1      -3.448   2.999 133.606  0.00  0.00    +0.000 HD
ATOM     89  H   UNL     1      -2.176   3.270 134.300  0.00  0.00    +0.000 HD
ENDBRANCH  84  85
ENDBRANCH  22  84
TORSDOF 20
ENDMDL
MODEL 5
REMARK VINA RESULT:      -8.1      6.530     12.549
REMARK  Name = CHEMBL2369830
REMARK  21 active torsions:
REMARK  status: ('A' for Active; 'I' for Inactive)
REMARK    1  A    between atoms: C_1  and  C_2
REMARK    2  A    between atoms: C_2  and  C_3
REMARK    3  A    between atoms: C_3  and  C_4
REMARK    4  A    between atoms: C_4  and  C_5
REMARK    5  A    between atoms: C_9  and  C_10
REMARK    6  A    between atoms: C_10  and  C_11
REMARK    7  A    between atoms: C_20  and  C_21
REMARK    8  A    between atoms: C_21  and  C_22
REMARK    9  A    between atoms: C_25  and  O_26
REMARK   10  A    between atoms: C_37  and  C_38
REMARK   11  A    between atoms: C_44  and  C_45
REMARK   12  A    between atoms: N_47  and  C_48
REMARK   13  A    between atoms: C_48  and  C_49
REMARK   14  A    between atoms: C_48  and  C_56
REMARK   15  A    between atoms: C_49  and  C_50
REMARK   16  A    between atoms: C_50  and  C_51
REMARK   17  A    between atoms: C_51  and  N_52
REMARK   18  A    between atoms: N_58  and  C_59
REMARK   19  A    between atoms: C_59  and  C_60
REMARK   20  A    between atoms: C_66  and  C_67
REMARK   21  A    between atoms: C_67  and  C_68
REMARK                            x       y       z     vdW  Elec       q    Type
REMARK                         _______ _______ _______ _____ _____    ______ ____
ROOT
ATOM      1  C   UNL     1      -3.674   5.661 129.737  0.00  0.00    +0.000 C 
ATOM      2  N   UNL     1      -5.209   5.056 129.377  0.00  0.00    +0.000 N 
ATOM      3  C   UNL     1      -5.973   3.949 129.902  0.00  0.00    +0.000 C 
ATOM      4  O   UNL     1      -7.190   3.981 130.218  0.00  0.00    +0.000 OA
ATOM      5  C   UNL     1      -5.043   2.674 130.054  0.00  0.00    +0.000 C 
ATOM      6  N   UNL     1      -4.199   2.307 131.200  0.00  0.00    +0.000 N 
ATOM      7  C   UNL     1      -4.613   1.781 132.416  0.00  0.00    +0.000 C 
ATOM      8  O   UNL     1      -3.652   1.309 133.047  0.00  0.00    +0.000 OA
ATOM      9  C   UNL     1      -6.338   1.927 132.969  0.00  0.00    +0.000 C 
ATOM     10  N   UNL     1      -6.613   0.650 133.457  0.00  0.00    +0.000 N 
ATOM     11  C   UNL     1      -6.165   0.283 134.692  0.00  0.00    +0.000 C 
ATOM     12  O   UNL     1      -6.517  -0.838 135.070  0.00  0.00    +0.000 OA
ATOM     13  C   UNL     1      -5.240   1.147 135.649  0.00  0.00    +0.000 C 
ATOM     14  C   UNL     1      -4.717   2.530 135.428  0.00  0.00    +0.000 C 
ATOM     15  S   UNL     1      -3.456   3.393 136.440  0.00  0.00    +0.000 S 
ATOM     16  S   UNL     1      -3.844   5.384 136.022  0.00  0.00    +0.000 S 
ATOM     17  C   UNL     1      -2.354   6.407 135.881  0.00  0.00    +0.000 C 
ATOM     18  C   UNL     1      -2.172   7.789 135.203  0.00  0.00    +0.000 C 
ATOM     19  N   UNL     1      -1.447   7.652 133.875  0.00  0.00    +0.000 N 
ATOM     20  C   UNL     1      -1.809   6.968 132.770  0.00  0.00    +0.000 C 
ATOM     21  O   UNL     1      -1.207   6.757 131.732  0.00  0.00    +0.000 OA
ATOM     22  C   UNL     1      -3.175   6.638 132.798  0.00  0.00    +0.000 C 
ATOM     23  N   UNL     1      -3.717   7.550 131.351  0.00  0.00    +0.000 N 
ATOM     24  C   UNL     1      -4.067   7.093 130.075  0.00  0.00    +0.000 C 
ATOM     25  O   UNL     1      -5.148   7.554 129.636  0.00  0.00    +0.000 OA
ATOM     26  H   UNL     1      -5.924   5.804 129.277  0.00  0.00    +0.000 HD
ATOM     27  H   UNL     1      -3.214   2.573 131.215  0.00  0.00    +0.000 HD
ATOM     28  H   UNL     1      -7.293   0.108 132.935  0.00  0.00    +0.000 HD
ATOM     29  H   UNL     1      -0.576   8.141 133.738  0.00  0.00    +0.000 HD
ATOM     30  H   UNL     1      -4.731   7.826 131.380  0.00  0.00    +0.000 HD
ENDROOT
BRANCH  18  31
ATOM     31  C   UNL     1      -1.313   8.748 136.081  0.00  0.00    +0.000 C 
ATOM     32  O   UNL     1      -1.836   9.806 136.447  0.00  0.00    +0.000 OA
ATOM     33  N   UNL     1      -0.096   8.283 136.579  0.00  0.00    +0.000 N 
ATOM     34  C   UNL     1       1.001   7.654 135.854  0.00  0.00    +0.000 C 
ATOM     35  C   UNL     1       1.646   6.811 136.915  0.00  0.00    +0.000 C 
ATOM     36  C   UNL     1       1.686   7.772 138.083  0.00  0.00    +0.000 C 
ATOM     37  C   UNL     1       0.439   8.669 137.917  0.00  0.00    +0.000 C 
BRANCH  37  38
ATOM     38  C   UNL     1       0.984  10.099 137.950  0.00  0.00    +0.000 C 
ATOM     39  O   UNL     1       1.385  10.550 139.025  0.00  0.00    +0.000 OA
ATOM     40  N   UNL     1       0.914  10.869 136.790  0.00  0.00    +0.000 N 
ATOM     41  H   UNL     1       0.336  10.589 136.000  0.00  0.00    +0.000 HD
BRANCH  40  42
ATOM     42  C   UNL     1       1.569  12.199 136.665  0.00  0.00    +0.000 C 
BRANCH  42  43
ATOM     43  C   UNL     1       0.568  13.357 137.018  0.00  0.00    +0.000 C 
ATOM     44  O   UNL     1       0.907  14.301 137.732  0.00  0.00    +0.000 OA
ATOM     45  N   UNL     1      -0.708  13.270 136.487  0.00  0.00    +0.000 N 
ATOM     46  H   UNL     1      -0.948  12.492 135.900  0.00  0.00    +0.000 HD
BRANCH  45  47
ATOM     47  C   UNL     1      -1.742  14.277 136.753  0.00  0.00    +0.000 C 
BRANCH  47  48
ATOM     48  C   UNL     1      -1.652  15.563 135.907  0.00  0.00    +0.000 C 
ATOM     49  N   UNL     1      -0.760  16.526 136.297  0.00  0.00    +0.000 N 
ATOM     50  O   UNL     1      -2.344  15.745 134.908  0.00  0.00    +0.000 OA
ATOM     51  H   UNL     1      -0.152  16.482 137.095  0.00  0.00    +0.000 HD
ATOM     52  H   UNL     1      -0.701  17.374 135.745  0.00  0.00    +0.000 HD
ENDBRANCH  47  48
ENDBRANCH  45  47
ENDBRANCH  42  43
BRANCH  42  53
ATOM     53  C   UNL     1       2.093  12.408 135.231  0.00  0.00    +0.000 C 
BRANCH  53  54
ATOM     54  C   UNL     1       1.233  11.698 134.196  0.00  0.00    +0.000 C 
BRANCH  54  55
ATOM     55  C   UNL     1       0.739  12.561 133.081  0.00  0.00    +0.000 C 
BRANCH  55  56
ATOM     56  N   UNL     1      -0.578  13.092 133.445  0.00  0.00    +0.000 NA
ATOM     57  C   UNL     1      -1.416  13.245 132.484  0.00  0.00    +0.000 C 
ATOM     58  N   UNL     1      -1.173  12.940 131.194  0.00  0.00    +0.000 N 
ATOM     59  N   UNL     1      -2.648  13.730 132.728  0.00  0.00    +0.000 N 
ATOM     60  H   UNL     1      -0.262  12.584 130.943  0.00  0.00    +0.000 HD
ATOM     61  H   UNL     1      -1.834  13.051 130.448  0.00  0.00    +0.000 HD
ATOM     62  H   UNL     1      -2.874  13.983 133.684  0.00  0.00    +0.000 HD
ATOM     63  H   UNL     1      -3.364  13.868 132.035  0.00  0.00    +0.000 HD
ENDBRANCH  55  56
ENDBRANCH  54  55
ENDBRANCH  53  54
ENDBRANCH  42  53
ENDBRANCH  40  42
ENDBRANCH  37  38
ENDBRANCH  18  31
BRANCH   9  64
ATOM     64  C   UNL     1      -7.210   2.825 133.951  0.00  0.00    +0.000 C 
BRANCH  64  65
ATOM     65  C   UNL     1      -8.344   3.237 133.192  0.00  0.00    +0.000 A 
ATOM     66  C   UNL     1      -9.107   1.994 132.128  0.00  0.00    +0.000 A 
ATOM     67  C   UNL     1     -10.283   2.599 130.948  0.00  0.00    +0.000 A 
ATOM     68  C   UNL     1     -10.626   4.399 130.734  0.00  0.00    +0.000 A 
ATOM     69  C   UNL     1      -9.873   5.514 131.691  0.00  0.00    +0.000 A 
ATOM     70  C   UNL     1      -8.719   4.979 132.913  0.00  0.00    +0.000 A 
BRANCH  68  71
ATOM     71  O   UNL     1     -11.745   4.856 130.053  0.00  0.00    +0.000 OA
ATOM     72  H   UNL     1     -12.514   5.133 130.608  0.00  0.00    +0.000 HD
ENDBRANCH  68  71
ENDBRANCH  64  65
ENDBRANCH   9  64
BRANCH   5  73
ATOM     73  C   UNL     1      -5.890   1.495 129.740  0.00  0.00    +0.000 C 
BRANCH  73  74
ATOM     74  C   UNL     1      -6.076   1.335 128.269  0.00  0.00    +0.000 A 
ATOM     75  C   UNL     1      -5.058   1.462 127.293  0.00  0.00    +0.000 A 
ATOM     76  C   UNL     1      -5.299   1.901 126.024  0.00  0.00    +0.000 A 
ATOM     77  C   UNL     1      -6.568   1.694 125.580  0.00  0.00    +0.000 A 
ATOM     78  C   UNL     1      -7.590   1.368 126.480  0.00  0.00    +0.000 A 
ATOM     79  C   UNL     1      -7.363   1.255 127.837  0.00  0.00    +0.000 A 
ENDBRANCH  73  74
ENDBRANCH   5  73
BRANCH   1  80
ATOM     80  C   UNL     1      -2.313   5.592 129.098  0.00  0.00    +0.000 C 
BRANCH  80  81
ATOM     81  C   UNL     1      -2.597   5.047 127.781  0.00  0.00    +0.000 C 
BRANCH  81  83
ATOM     82  C   UNL     1      -1.819   3.300 126.370  0.00  0.00    +0.000 C 
ATOM     83  C   UNL     1      -2.321   3.578 127.758  0.00  0.00    +0.000 C 
ENDBRANCH  81  83
ENDBRANCH  80  81
ENDBRANCH   1  80
BRANCH  22  84
ATOM     84  C   UNL     1      -3.422   5.191 133.036  0.00  0.00    +0.000 C 
BRANCH  84  85
ATOM     85  C   UNL     1      -5.123   5.207 133.597  0.00  0.00    +0.000 C 
ATOM     86  N   UNL     1      -6.171   6.254 134.794  0.00  0.00    +0.000 N 
ATOM     87  O   UNL     1      -5.275   5.173 132.278  0.00  0.00    +0.000 OA
ATOM     88  H   UNL     1      -5.908   6.798 135.668  0.00  0.00    +0.000 HD
ATOM     89  H   UNL     1      -6.790   7.092 134.525  0.00  0.00    +0.000 HD
ENDBRANCH  84  85
ENDBRANCH  22  84
TORSDOF 20
ENDMDL
MODEL 6
REMARK VINA RESULT:      -8.0      4.320     12.557
REMARK  Name = CHEMBL2369830
REMARK  21 active torsions:
REMARK  status: ('A' for Active; 'I' for Inactive)
REMARK    1  A    between atoms: C_1  and  C_2
REMARK    2  A    between atoms: C_2  and  C_3
REMARK    3  A    between atoms: C_3  and  C_4
REMARK    4  A    between atoms: C_4  and  C_5
REMARK    5  A    between atoms: C_9  and  C_10
REMARK    6  A    between atoms: C_10  and  C_11
REMARK    7  A    between atoms: C_20  and  C_21
REMARK    8  A    between atoms: C_21  and  C_22
REMARK    9  A    between atoms: C_25  and  O_26
REMARK   10  A    between atoms: C_37  and  C_38
REMARK   11  A    between atoms: C_44  and  C_45
REMARK   12  A    between atoms: N_47  and  C_48
REMARK   13  A    between atoms: C_48  and  C_49
REMARK   14  A    between atoms: C_48  and  C_56
REMARK   15  A    between atoms: C_49  and  C_50
REMARK   16  A    between atoms: C_50  and  C_51
REMARK   17  A    between atoms: C_51  and  N_52
REMARK   18  A    between atoms: N_58  and  C_59
REMARK   19  A    between atoms: C_59  and  C_60
REMARK   20  A    between atoms: C_66  and  C_67
REMARK   21  A    between atoms: C_67  and  C_68
REMARK                            x       y       z     vdW  Elec       q    Type
REMARK                         _______ _______ _______ _____ _____    ______ ____
ROOT
ATOM      1  C   UNL     1      -4.568   5.386 129.800  0.00  0.00    +0.000 C 
ATOM      2  N   UNL     1      -5.986   5.154 128.913  0.00  0.00    +0.000 N 
ATOM      3  C   UNL     1      -6.797   3.988 128.654  0.00  0.00    +0.000 C 
ATOM      4  O   UNL     1      -8.053   3.940 128.717  0.00  0.00    +0.000 OA
ATOM      5  C   UNL     1      -5.871   2.751 128.300  0.00  0.00    +0.000 C 
ATOM      6  N   UNL     1      -5.249   1.798 129.230  0.00  0.00    +0.000 N 
ATOM      7  C   UNL     1      -5.869   0.760 129.911  0.00  0.00    +0.000 C 
ATOM      8  O   UNL     1      -5.029  -0.031 130.375  0.00  0.00    +0.000 OA
ATOM      9  C   UNL     1      -7.671   0.724 130.141  0.00  0.00    +0.000 C 
ATOM     10  N   UNL     1      -7.991  -0.602 129.851  0.00  0.00    +0.000 N 
ATOM     11  C   UNL     1      -7.774  -1.573 130.784  0.00  0.00    +0.000 C 
ATOM     12  O   UNL     1      -8.154  -2.704 130.469  0.00  0.00    +0.000 OA
ATOM     13  C   UNL     1      -7.077  -1.377 132.196  0.00  0.00    +0.000 C 
ATOM     14  C   UNL     1      -6.567  -0.112 132.808  0.00  0.00    +0.000 C 
ATOM     15  S   UNL     1      -5.551   0.033 134.327  0.00  0.00    +0.000 S 
ATOM     16  S   UNL     1      -5.919   1.983 134.918  0.00  0.00    +0.000 S 
ATOM     17  C   UNL     1      -4.464   2.832 135.589  0.00  0.00    +0.000 C 
ATOM     18  C   UNL     1      -4.202   4.351 135.755  0.00  0.00    +0.000 C 
ATOM     19  N   UNL     1      -3.235   4.854 134.698  0.00  0.00    +0.000 N 
ATOM     20  C   UNL     1      -3.357   4.849 133.355  0.00  0.00    +0.000 C 
ATOM     21  O   UNL     1      -2.563   5.151 132.482  0.00  0.00    +0.000 OA
ATOM     22  C   UNL     1      -4.691   4.645 132.964  0.00  0.00    +0.000 C 
ATOM     23  N   UNL     1      -4.980   6.199 132.113  0.00  0.00    +0.000 N 
ATOM     24  C   UNL     1      -5.065   6.475 130.743  0.00  0.00    +0.000 C 
ATOM     25  O   UNL     1      -6.058   7.167 130.413  0.00  0.00    +0.000 OA
ATOM     26  H   UNL     1      -6.693   5.897 129.081  0.00  0.00    +0.000 HD
ATOM     27  H   UNL     1      -4.295   1.951 129.555  0.00  0.00    +0.000 HD
ATOM     28  H   UNL     1      -8.541  -0.758 129.013  0.00  0.00    +0.000 HD
ATOM     29  H   UNL     1      -2.369   5.284 134.988  0.00  0.00    +0.000 HD
ATOM     30  H   UNL     1      -5.989   6.491 132.095  0.00  0.00    +0.000 HD
ENDROOT
BRANCH  18  31
ATOM     31  C   UNL     1      -3.558   4.673 137.137  0.00  0.00    +0.000 C 
ATOM     32  O   UNL     1      -3.280   3.719 137.871  0.00  0.00    +0.000 OA
ATOM     33  N   UNL     1      -3.140   5.980 137.387  0.00  0.00    +0.000 N 
ATOM     34  C   UNL     1      -3.892   7.219 137.234  0.00  0.00    +0.000 C 
ATOM     35  C   UNL     1      -2.807   8.225 136.983  0.00  0.00    +0.000 C 
ATOM     36  C   UNL     1      -1.787   7.838 138.033  0.00  0.00    +0.000 C 
ATOM     37  C   UNL     1      -1.932   6.308 138.199  0.00  0.00    +0.000 C 
BRANCH  37  38
ATOM     38  C   UNL     1      -2.149   6.101 139.700  0.00  0.00    +0.000 C 
ATOM     39  O   UNL     1      -1.160   6.046 140.433  0.00  0.00    +0.000 OA
ATOM     40  N   UNL     1      -3.444   5.882 140.165  0.00  0.00    +0.000 N 
ATOM     41  H   UNL     1      -4.206   5.653 139.530  0.00  0.00    +0.000 HD
BRANCH  40  42
ATOM     42  C   UNL     1      -3.784   5.844 141.613  0.00  0.00    +0.000 C 
BRANCH  42  43
ATOM     43  C   UNL     1      -4.658   4.585 141.956  0.00  0.00    +0.000 C 
ATOM     44  O   UNL     1      -4.664   4.098 143.087  0.00  0.00    +0.000 OA
ATOM     45  N   UNL     1      -5.421   4.050 140.932  0.00  0.00    +0.000 N 
ATOM     46  H   UNL     1      -5.400   4.477 140.024  0.00  0.00    +0.000 HD
BRANCH  45  47
ATOM     47  C   UNL     1      -6.267   2.865 141.116  0.00  0.00    +0.000 C 
BRANCH  47  48
ATOM     48  C   UNL     1      -5.927   1.658 140.219  0.00  0.00    +0.000 C 
ATOM     49  N   UNL     1      -4.901   1.794 139.323  0.00  0.00    +0.000 N 
ATOM     50  O   UNL     1      -6.539   0.594 140.285  0.00  0.00    +0.000 OA
ATOM     51  H   UNL     1      -4.341   2.615 139.184  0.00  0.00    +0.000 HD
ATOM     52  H   UNL     1      -4.677   1.003 138.729  0.00  0.00    +0.000 HD
ENDBRANCH  47  48
ENDBRANCH  45  47
ENDBRANCH  42  43
BRANCH  42  53
ATOM     53  C   UNL     1      -4.556   7.115 142.017  0.00  0.00    +0.000 C 
BRANCH  53  54
ATOM     54  C   UNL     1      -5.182   7.812 140.819  0.00  0.00    +0.000 C 
BRANCH  54  55
ATOM     55  C   UNL     1      -6.598   7.431 140.530  0.00  0.00    +0.000 C 
BRANCH  55  56
ATOM     56  N   UNL     1      -6.621   6.580 139.336  0.00  0.00    +0.000 NA
ATOM     57  C   UNL     1      -7.481   6.887 138.434  0.00  0.00    +0.000 C 
ATOM     58  N   UNL     1      -8.333   7.929 138.504  0.00  0.00    +0.000 N 
ATOM     59  N   UNL     1      -7.573   6.157 137.306  0.00  0.00    +0.000 N 
ATOM     60  H   UNL     1      -8.323   8.509 139.330  0.00  0.00    +0.000 HD
ATOM     61  H   UNL     1      -8.995   8.173 137.791  0.00  0.00    +0.000 HD
ATOM     62  H   UNL     1      -6.958   5.356 137.212  0.00  0.00    +0.000 HD
ATOM     63  H   UNL     1      -8.209   6.339 136.549  0.00  0.00    +0.000 HD
ENDBRANCH  55  56
ENDBRANCH  54  55
ENDBRANCH  53  54
ENDBRANCH  42  53
ENDBRANCH  40  42
ENDBRANCH  37  38
ENDBRANCH  18  31
BRANCH   9  64
ATOM     64  C   UNL     1      -8.743   1.060 131.266  0.00  0.00    +0.000 C 
BRANCH  64  65
ATOM     65  C   UNL     1      -9.024   2.450 131.129  0.00  0.00    +0.000 A 
ATOM     66  C   UNL     1      -8.054   3.581 132.148  0.00  0.00    +0.000 A 
ATOM     67  C   UNL     1      -8.638   5.253 132.223  0.00  0.00    +0.000 A 
ATOM     68  C   UNL     1     -10.206   5.786 131.409  0.00  0.00    +0.000 A 
ATOM     69  C   UNL     1     -11.096   4.713 130.525  0.00  0.00    +0.000 A 
ATOM     70  C   UNL     1     -10.553   3.041 130.376  0.00  0.00    +0.000 A 
BRANCH  68  71
ATOM     71  O   UNL     1     -10.504   7.124 131.199  0.00  0.00    +0.000 OA
ATOM     72  H   UNL     1      -9.961   7.779 131.701  0.00  0.00    +0.000 HD
ENDBRANCH  68  71
ENDBRANCH  64  65
ENDBRANCH   9  64
BRANCH   5  73
ATOM     73  C   UNL     1      -6.604   1.954 127.283  0.00  0.00    +0.000 C 
BRANCH  73  74
ATOM     74  C   UNL     1      -6.315   2.437 125.902  0.00  0.00    +0.000 A 
ATOM     75  C   UNL     1      -5.218   3.249 125.528  0.00  0.00    +0.000 A 
ATOM     76  C   UNL     1      -5.271   4.138 124.493  0.00  0.00    +0.000 A 
ATOM     77  C   UNL     1      -6.183   3.836 123.530  0.00  0.00    +0.000 A 
ATOM     78  C   UNL     1      -7.184   2.886 123.771  0.00  0.00    +0.000 A 
ATOM     79  C   UNL     1      -7.296   2.233 124.983  0.00  0.00    +0.000 A 
ENDBRANCH  73  74
ENDBRANCH   5  73
BRANCH   1  80
ATOM     80  C   UNL     1      -3.109   5.557 129.472  0.00  0.00    +0.000 C 
BRANCH  80  81
ATOM     81  C   UNL     1      -2.760   4.288 128.857  0.00  0.00    +0.000 C 
BRANCH  81  83
ATOM     82  C   UNL     1      -1.900   3.171 126.944  0.00  0.00    +0.000 C 
ATOM     83  C   UNL     1      -2.489   4.476 127.400  0.00  0.00    +0.000 C 
ENDBRANCH  81  83
ENDBRANCH  80  81
ENDBRANCH   1  80
BRANCH  22  84
ATOM     84  C   UNL     1      -4.932   3.297 132.384  0.00  0.00    +0.000 C 
BRANCH  84  85
ATOM     85  C   UNL     1      -3.294   2.579 132.459  0.00  0.00    +0.000 C 
ATOM     86  N   UNL     1      -2.395   1.305 133.553  0.00  0.00    +0.000 N 
ATOM     87  O   UNL     1      -3.606   2.403 131.180  0.00  0.00    +0.000 OA
ATOM     88  H   UNL     1      -2.530   1.031 134.571  0.00  0.00    +0.000 HD
ATOM     89  H   UNL     1      -2.286   0.255 133.341  0.00  0.00    +0.000 HD
ENDBRANCH  84  85
ENDBRANCH  22  84
TORSDOF 20
ENDMDL
MODEL 7
REMARK VINA RESULT:      -8.0      4.533     11.669
REMARK  Name = CHEMBL2369830
REMARK  21 active torsions:
REMARK  status: ('A' for Active; 'I' for Inactive)
REMARK    1  A    between atoms: C_1  and  C_2
REMARK    2  A    between atoms: C_2  and  C_3
REMARK    3  A    between atoms: C_3  and  C_4
REMARK    4  A    between atoms: C_4  and  C_5
REMARK    5  A    between atoms: C_9  and  C_10
REMARK    6  A    between atoms: C_10  and  C_11
REMARK    7  A    between atoms: C_20  and  C_21
REMARK    8  A    between atoms: C_21  and  C_22
REMARK    9  A    between atoms: C_25  and  O_26
REMARK   10  A    between atoms: C_37  and  C_38
REMARK   11  A    between atoms: C_44  and  C_45
REMARK   12  A    between atoms: N_47  and  C_48
REMARK   13  A    between atoms: C_48  and  C_49
REMARK   14  A    between atoms: C_48  and  C_56
REMARK   15  A    between atoms: C_49  and  C_50
REMARK   16  A    between atoms: C_50  and  C_51
REMARK   17  A    between atoms: C_51  and  N_52
REMARK   18  A    between atoms: N_58  and  C_59
REMARK   19  A    between atoms: C_59  and  C_60
REMARK   20  A    between atoms: C_66  and  C_67
REMARK   21  A    between atoms: C_67  and  C_68
REMARK                            x       y       z     vdW  Elec       q    Type
REMARK                         _______ _______ _______ _____ _____    ______ ____
ROOT
ATOM      1  C   UNL     1      -9.215   2.869 131.015  0.00  0.00    +0.000 C 
ATOM      2  N   UNL     1      -8.807   1.421 130.249  0.00  0.00    +0.000 N 
ATOM      3  C   UNL     1      -7.793   1.079 129.280  0.00  0.00    +0.000 C 
ATOM      4  O   UNL     1      -7.047   0.066 129.325  0.00  0.00    +0.000 OA
ATOM      5  C   UNL     1      -7.730   2.186 128.147  0.00  0.00    +0.000 C 
ATOM      6  N   UNL     1      -6.949   3.431 128.149  0.00  0.00    +0.000 N 
ATOM      7  C   UNL     1      -5.583   3.567 127.944  0.00  0.00    +0.000 C 
ATOM      8  O   UNL     1      -5.284   4.752 127.714  0.00  0.00    +0.000 OA
ATOM      9  C   UNL     1      -4.454   2.156 128.133  0.00  0.00    +0.000 C 
ATOM     10  N   UNL     1      -3.624   2.276 127.018  0.00  0.00    +0.000 N 
ATOM     11  C   UNL     1      -2.610   3.188 127.021  0.00  0.00    +0.000 C 
ATOM     12  O   UNL     1      -1.884   3.173 126.024  0.00  0.00    +0.000 OA
ATOM     13  C   UNL     1      -2.307   4.249 128.160  0.00  0.00    +0.000 C 
ATOM     14  C   UNL     1      -3.018   4.438 129.462  0.00  0.00    +0.000 C 
ATOM     15  S   UNL     1      -2.794   5.828 130.636  0.00  0.00    +0.000 S 
ATOM     16  S   UNL     1      -3.466   5.012 132.417  0.00  0.00    +0.000 S 
ATOM     17  C   UNL     1      -4.399   6.175 133.449  0.00  0.00    +0.000 C 
ATOM     18  C   UNL     1      -5.387   5.885 134.608  0.00  0.00    +0.000 C 
ATOM     19  N   UNL     1      -6.823   6.097 134.163  0.00  0.00    +0.000 N 
ATOM     20  C   UNL     1      -7.518   5.473 133.190  0.00  0.00    +0.000 C 
ATOM     21  O   UNL     1      -8.631   5.687 132.744  0.00  0.00    +0.000 OA
ATOM     22  C   UNL     1      -6.891   4.277 132.801  0.00  0.00    +0.000 C 
ATOM     23  N   UNL     1      -8.180   3.117 133.261  0.00  0.00    +0.000 N 
ATOM     24  C   UNL     1      -9.083   2.408 132.461  0.00  0.00    +0.000 C 
ATOM     25  O   UNL     1      -9.161   1.184 132.724  0.00  0.00    +0.000 OA
ATOM     26  H   UNL     1      -8.789   0.612 130.901  0.00  0.00    +0.000 HD
ATOM     27  H   UNL     1      -7.376   4.301 128.465  0.00  0.00    +0.000 HD
ATOM     28  H   UNL     1      -3.706   1.547 126.318  0.00  0.00    +0.000 HD
ATOM     29  H   UNL     1      -7.393   6.774 134.647  0.00  0.00    +0.000 HD
ATOM     30  H   UNL     1      -7.824   2.152 133.476  0.00  0.00    +0.000 HD
ENDROOT
BRANCH  18  31
ATOM     31  C   UNL     1      -5.149   6.843 135.815  0.00  0.00    +0.000 C 
ATOM     32  O   UNL     1      -4.150   7.568 135.777  0.00  0.00    +0.000 OA
ATOM     33  N   UNL     1      -6.165   6.987 136.759  0.00  0.00    +0.000 N 
ATOM     34  C   UNL     1      -6.889   5.947 137.480  0.00  0.00    +0.000 C 
ATOM     35  C   UNL     1      -8.202   6.613 137.771  0.00  0.00    +0.000 C 
ATOM     36  C   UNL     1      -7.752   7.979 138.242  0.00  0.00    +0.000 C 
ATOM     37  C   UNL     1      -6.454   8.274 137.457  0.00  0.00    +0.000 C 
BRANCH  37  38
ATOM     38  C   UNL     1      -5.419   8.612 138.533  0.00  0.00    +0.000 C 
ATOM     39  O   UNL     1      -5.552   9.662 139.166  0.00  0.00    +0.000 OA
ATOM     40  N   UNL     1      -4.316   7.775 138.687  0.00  0.00    +0.000 N 
ATOM     41  H   UNL     1      -4.074   7.079 137.985  0.00  0.00    +0.000 HD
BRANCH  40  42
ATOM     42  C   UNL     1      -3.350   7.914 139.811  0.00  0.00    +0.000 C 
BRANCH  42  43
ATOM     43  C   UNL     1      -1.868   7.850 139.294  0.00  0.00    +0.000 C 
ATOM     44  O   UNL     1      -0.930   8.237 139.991  0.00  0.00    +0.000 OA
ATOM     45  N   UNL     1      -1.666   7.335 138.024  0.00  0.00    +0.000 N 
ATOM     46  H   UNL     1      -2.452   7.019 137.487  0.00  0.00    +0.000 HD
BRANCH  45  47
ATOM     47  C   UNL     1      -0.333   7.236 137.418  0.00  0.00    +0.000 C 
BRANCH  47  48
ATOM     48  C   UNL     1      -0.303   7.217 135.877  0.00  0.00    +0.000 C 
ATOM     49  N   UNL     1      -1.298   6.540 135.224  0.00  0.00    +0.000 N 
ATOM     50  O   UNL     1       0.573   7.784 135.227  0.00  0.00    +0.000 OA
ATOM     51  H   UNL     1      -2.055   6.041 135.654  0.00  0.00    +0.000 HD
ATOM     52  H   UNL     1      -1.279   6.523 134.211  0.00  0.00    +0.000 HD
ENDBRANCH  47  48
ENDBRANCH  45  47
ENDBRANCH  42  43
BRANCH  42  53
ATOM     53  C   UNL     1      -3.569   6.796 140.849  0.00  0.00    +0.000 C 
BRANCH  53  54
ATOM     54  C   UNL     1      -4.492   5.704 140.331  0.00  0.00    +0.000 C 
BRANCH  54  55
ATOM     55  C   UNL     1      -3.811   4.443 139.907  0.00  0.00    +0.000 C 
BRANCH  55  56
ATOM     56  N   UNL     1      -3.352   4.600 138.523  0.00  0.00    +0.000 NA
ATOM     57  C   UNL     1      -3.736   3.701 137.691  0.00  0.00    +0.000 C 
ATOM     58  N   UNL     1      -4.532   2.657 137.996  0.00  0.00    +0.000 N 
ATOM     59  N   UNL     1      -3.359   3.765 136.400  0.00  0.00    +0.000 N 
ATOM     60  H   UNL     1      -4.840   2.545 138.951  0.00  0.00    +0.000 HD
ATOM     61  H   UNL     1      -4.840   1.964 137.340  0.00  0.00    +0.000 HD
ATOM     62  H   UNL     1      -2.751   4.529 136.124  0.00  0.00    +0.000 HD
ATOM     63  H   UNL     1      -3.627   3.110 135.685  0.00  0.00    +0.000 HD
ENDBRANCH  55  56
ENDBRANCH  54  55
ENDBRANCH  53  54
ENDBRANCH  42  53
ENDBRANCH  40  42
ENDBRANCH  37  38
ENDBRANCH  18  31
BRANCH   9  64
ATOM     64  C   UNL     1      -3.441   1.566 129.208  0.00  0.00    +0.000 C 
BRANCH  64  65
ATOM     65  C   UNL     1      -4.215   0.701 130.034  0.00  0.00    +0.000 A 
ATOM     66  C   UNL     1      -4.861   1.401 131.567  0.00  0.00    +0.000 A 
ATOM     67  C   UNL     1      -5.520   0.241 132.734  0.00  0.00    +0.000 A 
ATOM     68  C   UNL     1      -5.448  -1.582 132.457  0.00  0.00    +0.000 A 
ATOM     69  C   UNL     1      -4.805  -2.191 131.064  0.00  0.00    +0.000 A 
ATOM     70  C   UNL     1      -4.165  -1.092 129.842  0.00  0.00    +0.000 A 
BRANCH  68  71
ATOM     71  O   UNL     1      -6.223  -2.466 133.193  0.00  0.00    +0.000 OA
ATOM     72  H   UNL     1      -5.774  -3.288 133.506  0.00  0.00    +0.000 HD
ENDBRANCH  68  71
ENDBRANCH  64  65
ENDBRANCH   9  64
BRANCH   5  73
ATOM     73  C   UNL     1      -7.418   1.476 126.881  0.00  0.00    +0.000 C 
BRANCH  73  74
ATOM     74  C   UNL     1      -8.482   1.693 125.859  0.00  0.00    +0.000 A 
ATOM     75  C   UNL     1      -9.672   0.937 125.737  0.00  0.00    +0.000 A 
ATOM     76  C   UNL     1     -10.299   0.729 124.543  0.00  0.00    +0.000 A 
ATOM     77  C   UNL     1     -10.066   1.684 123.603  0.00  0.00    +0.000 A 
ATOM     78  C   UNL     1      -9.017   2.598 123.763  0.00  0.00    +0.000 A 
ATOM     79  C   UNL     1      -8.177   2.562 124.858  0.00  0.00    +0.000 A 
ENDBRANCH  73  74
ENDBRANCH   5  73
BRANCH   1  80
ATOM     80  C   UNL     1     -10.298   3.903 130.857  0.00  0.00    +0.000 C 
BRANCH  80  81
ATOM     81  C   UNL     1      -9.846   4.678 129.713  0.00  0.00    +0.000 C 
BRANCH  81  83
ATOM     82  C   UNL     1     -11.569   5.930 130.767  0.00  0.00    +0.000 C 
ATOM     83  C   UNL     1     -10.535   6.003 129.680  0.00  0.00    +0.000 C 
ENDBRANCH  81  83
ENDBRANCH  80  81
ENDBRANCH   1  80
BRANCH  22  84
ATOM     84  C   UNL     1      -6.256   4.359 131.459  0.00  0.00    +0.000 C 
BRANCH  84  85
ATOM     85  C   UNL     1      -6.647   6.039 130.979  0.00  0.00    +0.000 C 
ATOM     86  N   UNL     1      -5.701   7.684 130.821  0.00  0.00    +0.000 N 
ATOM     87  O   UNL     1      -7.151   5.346 129.965  0.00  0.00    +0.000 OA
ATOM     88  H   UNL     1      -4.851   8.060 131.336  0.00  0.00    +0.000 HD
ATOM     89  H   UNL     1      -5.260   8.075 129.920  0.00  0.00    +0.000 HD
ENDBRANCH  84  85
ENDBRANCH  22  84
TORSDOF 20
ENDMDL
MODEL 8
REMARK VINA RESULT:      -8.0      4.441     12.738
REMARK  Name = CHEMBL2369830
REMARK  21 active torsions:
REMARK  status: ('A' for Active; 'I' for Inactive)
REMARK    1  A    between atoms: C_1  and  C_2
REMARK    2  A    between atoms: C_2  and  C_3
REMARK    3  A    between atoms: C_3  and  C_4
REMARK    4  A    between atoms: C_4  and  C_5
REMARK    5  A    between atoms: C_9  and  C_10
REMARK    6  A    between atoms: C_10  and  C_11
REMARK    7  A    between atoms: C_20  and  C_21
REMARK    8  A    between atoms: C_21  and  C_22
REMARK    9  A    between atoms: C_25  and  O_26
REMARK   10  A    between atoms: C_37  and  C_38
REMARK   11  A    between atoms: C_44  and  C_45
REMARK   12  A    between atoms: N_47  and  C_48
REMARK   13  A    between atoms: C_48  and  C_49
REMARK   14  A    between atoms: C_48  and  C_56
REMARK   15  A    between atoms: C_49  and  C_50
REMARK   16  A    between atoms: C_50  and  C_51
REMARK   17  A    between atoms: C_51  and  N_52
REMARK   18  A    between atoms: N_58  and  C_59
REMARK   19  A    between atoms: C_59  and  C_60
REMARK   20  A    between atoms: C_66  and  C_67
REMARK   21  A    between atoms: C_67  and  C_68
REMARK                            x       y       z     vdW  Elec       q    Type
REMARK                         _______ _______ _______ _____ _____    ______ ____
ROOT
ATOM      1  C   UNL     1      -6.036  -0.536 130.684  0.00  0.00    +0.000 C 
ATOM      2  N   UNL     1      -5.692  -0.295 129.048  0.00  0.00    +0.000 N 
ATOM      3  C   UNL     1      -6.218   0.620 128.063  0.00  0.00    +0.000 C 
ATOM      4  O   UNL     1      -5.535   1.287 127.243  0.00  0.00    +0.000 OA
ATOM      5  C   UNL     1      -7.798   0.688 128.176  0.00  0.00    +0.000 C 
ATOM      6  N   UNL     1      -8.601   1.561 129.043  0.00  0.00    +0.000 N 
ATOM      7  C   UNL     1      -8.851   2.916 128.875  0.00  0.00    +0.000 C 
ATOM      8  O   UNL     1      -9.791   3.288 129.599  0.00  0.00    +0.000 OA
ATOM      9  C   UNL     1      -7.803   3.943 127.804  0.00  0.00    +0.000 C 
ATOM     10  N   UNL     1      -8.737   4.700 127.095  0.00  0.00    +0.000 N 
ATOM     11  C   UNL     1      -9.326   5.779 127.687  0.00  0.00    +0.000 C 
ATOM     12  O   UNL     1     -10.083   6.431 126.962  0.00  0.00    +0.000 OA
ATOM     13  C   UNL     1      -9.137   6.242 129.192  0.00  0.00    +0.000 C 
ATOM     14  C   UNL     1      -8.259   5.640 130.242  0.00  0.00    +0.000 C 
ATOM     15  S   UNL     1      -8.256   6.051 132.029  0.00  0.00    +0.000 S 
ATOM     16  S   UNL     1      -6.365   5.445 132.616  0.00  0.00    +0.000 S 
ATOM     17  C   UNL     1      -6.318   4.679 134.259  0.00  0.00    +0.000 C 
ATOM     18  C   UNL     1      -5.241   3.755 134.882  0.00  0.00    +0.000 C 
ATOM     19  N   UNL     1      -5.712   2.311 134.908  0.00  0.00    +0.000 N 
ATOM     20  C   UNL     1      -6.053   1.505 133.882  0.00  0.00    +0.000 C 
ATOM     21  O   UNL     1      -6.527   0.382 133.875  0.00  0.00    +0.000 OA
ATOM     22  C   UNL     1      -5.584   2.009 132.657  0.00  0.00    +0.000 C 
ATOM     23  N   UNL     1      -4.480   0.670 132.202  0.00  0.00    +0.000 N 
ATOM     24  C   UNL     1      -4.633  -0.339 131.243  0.00  0.00    +0.000 C 
ATOM     25  O   UNL     1      -3.644  -0.492 130.488  0.00  0.00    +0.000 OA
ATOM     26  H   UNL     1      -4.673  -0.293 128.847  0.00  0.00    +0.000 HD
ATOM     27  H   UNL     1      -8.917   1.226 129.953  0.00  0.00    +0.000 HD
ATOM     28  H   UNL     1      -8.804   4.514 126.101  0.00  0.00    +0.000 HD
ATOM     29  H   UNL     1      -5.775   1.830 135.792  0.00  0.00    +0.000 HD
ATOM     30  H   UNL     1      -3.696   0.965 131.567  0.00  0.00    +0.000 HD
ENDROOT
BRANCH  18  31
ATOM     31  C   UNL     1      -4.934   4.149 136.358  0.00  0.00    +0.000 C 
ATOM     32  O   UNL     1      -5.353   3.399 137.246  0.00  0.00    +0.000 OA
ATOM     33  N   UNL     1      -4.039   5.192 136.596  0.00  0.00    +0.000 N 
ATOM     34  C   UNL     1      -4.044   6.538 136.035  0.00  0.00    +0.000 C 
ATOM     35  C   UNL     1      -2.593   6.915 136.091  0.00  0.00    +0.000 C 
ATOM     36  C   UNL     1      -2.211   6.449 137.480  0.00  0.00    +0.000 C 
ATOM     37  C   UNL     1      -3.098   5.212 137.753  0.00  0.00    +0.000 C 
BRANCH  37  38
ATOM     38  C   UNL     1      -3.794   5.521 139.081  0.00  0.00    +0.000 C 
ATOM     39  O   UNL     1      -3.100   5.649 140.091  0.00  0.00    +0.000 OA
ATOM     40  N   UNL     1      -5.187   5.546 139.116  0.00  0.00    +0.000 N 
ATOM     41  H   UNL     1      -5.745   5.168 138.353  0.00  0.00    +0.000 HD
BRANCH  40  42
ATOM     42  C   UNL     1      -5.955   6.005 140.306  0.00  0.00    +0.000 C 
BRANCH  42  43
ATOM     43  C   UNL     1      -6.326   4.797 141.238  0.00  0.00    +0.000 C 
ATOM     44  O   UNL     1      -5.824   3.684 141.076  0.00  0.00    +0.000 OA
ATOM     45  N   UNL     1      -7.238   5.040 142.251  0.00  0.00    +0.000 N 
ATOM     46  H   UNL     1      -7.621   5.961 142.362  0.00  0.00    +0.000 HD
BRANCH  45  47
ATOM     47  C   UNL     1      -7.682   3.994 143.181  0.00  0.00    +0.000 C 
BRANCH  47  48
ATOM     48  C   UNL     1      -9.135   3.514 142.998  0.00  0.00    +0.000 C 
ATOM     49  N   UNL     1     -10.093   4.041 143.823  0.00  0.00    +0.000 N 
ATOM     50  O   UNL     1      -9.455   2.689 142.145  0.00  0.00    +0.000 OA
ATOM     51  H   UNL     1      -9.942   4.714 144.552  0.00  0.00    +0.000 HD
ATOM     52  H   UNL     1     -11.049   3.725 143.708  0.00  0.00    +0.000 HD
ENDBRANCH  47  48
ENDBRANCH  45  47
ENDBRANCH  42  43
BRANCH  42  53
ATOM     53  C   UNL     1      -7.249   6.717 139.868  0.00  0.00    +0.000 C 
BRANCH  53  54
ATOM     54  C   UNL     1      -7.066   8.224 139.758  0.00  0.00    +0.000 C 
BRANCH  54  55
ATOM     55  C   UNL     1      -7.326   8.799 138.404  0.00  0.00    +0.000 C 
BRANCH  55  56
ATOM     56  N   UNL     1      -8.745   9.156 138.310  0.00  0.00    +0.000 NA
ATOM     57  C   UNL     1      -9.442   8.499 137.456  0.00  0.00    +0.000 C 
ATOM     58  N   UNL     1      -8.969   7.512 136.670  0.00  0.00    +0.000 N 
ATOM     59  N   UNL     1     -10.753   8.764 137.301  0.00  0.00    +0.000 N 
ATOM     60  H   UNL     1      -7.990   7.272 136.729  0.00  0.00    +0.000 HD
ATOM     61  H   UNL     1      -9.520   6.993 136.013  0.00  0.00    +0.000 HD
ATOM     62  H   UNL     1     -11.153   9.507 137.864  0.00  0.00    +0.000 HD
ATOM     63  H   UNL     1     -11.369   8.288 136.665  0.00  0.00    +0.000 HD
ENDBRANCH  55  56
ENDBRANCH  54  55
ENDBRANCH  53  54
ENDBRANCH  42  53
ENDBRANCH  40  42
ENDBRANCH  37  38
ENDBRANCH  18  31
BRANCH   9  64
ATOM     64  C   UNL     1      -6.605   4.981 127.937  0.00  0.00    +0.000 C 
BRANCH  64  65
ATOM     65  C   UNL     1      -5.418   4.233 127.688  0.00  0.00    +0.000 A 
ATOM     66  C   UNL     1      -4.474   3.700 129.131  0.00  0.00    +0.000 A 
ATOM     67  C   UNL     1      -2.846   3.079 128.808  0.00  0.00    +0.000 A 
ATOM     68  C   UNL     1      -2.108   3.083 127.117  0.00  0.00    +0.000 A 
ATOM     69  C   UNL     1      -2.981   3.624 125.825  0.00  0.00    +0.000 A 
ATOM     70  C   UNL     1      -4.624   4.221 126.068  0.00  0.00    +0.000 A 
BRANCH  68  71
ATOM     71  O   UNL     1      -0.987   2.329 126.805  0.00  0.00    +0.000 OA
ATOM     72  H   UNL     1      -0.275   2.790 126.299  0.00  0.00    +0.000 HD
ENDBRANCH  68  71
ENDBRANCH  64  65
ENDBRANCH   9  64
BRANCH   5  73
ATOM     73  C   UNL     1      -8.312   0.856 126.792  0.00  0.00    +0.000 C 
BRANCH  73  74
ATOM     74  C   UNL     1      -8.308  -0.439 126.051  0.00  0.00    +0.000 A 
ATOM     75  C   UNL     1      -8.178  -0.583 124.649  0.00  0.00    +0.000 A 
ATOM     76  C   UNL     1      -8.747  -1.610 123.953  0.00  0.00    +0.000 A 
ATOM     77  C   UNL     1      -8.966  -2.738 124.680  0.00  0.00    +0.000 A 
ATOM     78  C   UNL     1      -8.912  -2.704 126.079  0.00  0.00    +0.000 A 
ATOM     79  C   UNL     1      -8.652  -1.538 126.773  0.00  0.00    +0.000 A 
ENDBRANCH  73  74
ENDBRANCH   5  73
BRANCH   1  80
ATOM     80  C   UNL     1      -6.818  -1.544 131.483  0.00  0.00    +0.000 C 
BRANCH  80  81
ATOM     81  C   UNL     1      -5.939  -2.701 131.500  0.00  0.00    +0.000 C 
BRANCH  81  83
ATOM     82  C   UNL     1      -7.750  -3.215 130.051  0.00  0.00    +0.000 C 
ATOM     83  C   UNL     1      -6.444  -3.750 130.564  0.00  0.00    +0.000 C 
ENDBRANCH  81  83
ENDBRANCH  80  81
ENDBRANCH   1  80
BRANCH  22  84
ATOM     84  C   UNL     1      -6.667   2.553 131.795  0.00  0.00    +0.000 C 
BRANCH  84  85
ATOM     85  C   UNL     1      -8.120   2.196 132.778  0.00  0.00    +0.000 C 
ATOM     86  N   UNL     1      -9.440   3.207 133.706  0.00  0.00    +0.000 N 
ATOM     87  O   UNL     1      -8.342   1.462 131.694  0.00  0.00    +0.000 OA
ATOM     88  H   UNL     1      -9.399   4.163 134.167  0.00  0.00    +0.000 HD
ATOM     89  H   UNL     1     -10.403   3.495 133.320  0.00  0.00    +0.000 HD
ENDBRANCH  84  85
ENDBRANCH  22  84
TORSDOF 20
ENDMDL
MODEL 9
REMARK VINA RESULT:      -8.0      4.279     12.594
REMARK  Name = CHEMBL2369830
REMARK  21 active torsions:
REMARK  status: ('A' for Active; 'I' for Inactive)
REMARK    1  A    between atoms: C_1  and  C_2
REMARK    2  A    between atoms: C_2  and  C_3
REMARK    3  A    between atoms: C_3  and  C_4
REMARK    4  A    between atoms: C_4  and  C_5
REMARK    5  A    between atoms: C_9  and  C_10
REMARK    6  A    between atoms: C_10  and  C_11
REMARK    7  A    between atoms: C_20  and  C_21
REMARK    8  A    between atoms: C_21  and  C_22
REMARK    9  A    between atoms: C_25  and  O_26
REMARK   10  A    between atoms: C_37  and  C_38
REMARK   11  A    between atoms: C_44  and  C_45
REMARK   12  A    between atoms: N_47  and  C_48
REMARK   13  A    between atoms: C_48  and  C_49
REMARK   14  A    between atoms: C_48  and  C_56
REMARK   15  A    between atoms: C_49  and  C_50
REMARK   16  A    between atoms: C_50  and  C_51
REMARK   17  A    between atoms: C_51  and  N_52
REMARK   18  A    between atoms: N_58  and  C_59
REMARK   19  A    between atoms: C_59  and  C_60
REMARK   20  A    between atoms: C_66  and  C_67
REMARK   21  A    between atoms: C_67  and  C_68
REMARK                            x       y       z     vdW  Elec       q    Type
REMARK                         _______ _______ _______ _____ _____    ______ ____
ROOT
ATOM      1  C   UNL     1      -4.980  -0.713 132.895  0.00  0.00    +0.000 C 
ATOM      2  N   UNL     1      -4.662  -0.532 131.246  0.00  0.00    +0.000 N 
ATOM      3  C   UNL     1      -5.300   0.241 130.207  0.00  0.00    +0.000 C 
ATOM      4  O   UNL     1      -4.708   0.941 129.345  0.00  0.00    +0.000 OA
ATOM      5  C   UNL     1      -6.876   0.105 130.320  0.00  0.00    +0.000 C 
ATOM      6  N   UNL     1      -7.792   0.916 131.134  0.00  0.00    +0.000 N 
ATOM      7  C   UNL     1      -8.220   2.212 130.881  0.00  0.00    +0.000 C 
ATOM      8  O   UNL     1      -9.205   2.500 131.584  0.00  0.00    +0.000 OA
ATOM      9  C   UNL     1      -7.313   3.301 129.745  0.00  0.00    +0.000 C 
ATOM     10  N   UNL     1      -8.335   3.881 128.993  0.00  0.00    +0.000 N 
ATOM     11  C   UNL     1      -9.066   4.906 129.517  0.00  0.00    +0.000 C 
ATOM     12  O   UNL     1      -9.899   5.405 128.756  0.00  0.00    +0.000 OA
ATOM     13  C   UNL     1      -8.949   5.484 130.990  0.00  0.00    +0.000 C 
ATOM     14  C   UNL     1      -8.004   5.071 132.073  0.00  0.00    +0.000 C 
ATOM     15  S   UNL     1      -8.065   5.590 133.831  0.00  0.00    +0.000 S 
ATOM     16  S   UNL     1      -6.114   5.279 134.449  0.00  0.00    +0.000 S 
ATOM     17  C   UNL     1      -5.974   4.630 136.137  0.00  0.00    +0.000 C 
ATOM     18  C   UNL     1      -4.787   3.899 136.813  0.00  0.00    +0.000 C 
ATOM     19  N   UNL     1      -5.061   2.410 136.931  0.00  0.00    +0.000 N 
ATOM     20  C   UNL     1      -5.286   1.502 135.959  0.00  0.00    +0.000 C 
ATOM     21  O   UNL     1      -5.606   0.329 136.024  0.00  0.00    +0.000 OA
ATOM     22  C   UNL     1      -4.882   1.987 134.703  0.00  0.00    +0.000 C 
ATOM     23  N   UNL     1      -3.607   0.782 134.329  0.00  0.00    +0.000 N 
ATOM     24  C   UNL     1      -3.618  -0.297 133.437  0.00  0.00    +0.000 C 
ATOM     25  O   UNL     1      -2.613  -0.364 132.689  0.00  0.00    +0.000 OA
ATOM     26  H   UNL     1      -3.651  -0.407 131.042  0.00  0.00    +0.000 HD
ATOM     27  H   UNL     1      -8.066   0.599 132.064  0.00  0.00    +0.000 HD
ATOM     28  H   UNL     1      -8.371   3.625 128.012  0.00  0.00    +0.000 HD
ATOM     29  H   UNL     1      -5.064   1.981 137.844  0.00  0.00    +0.000 HD
ATOM     30  H   UNL     1      -2.866   1.138 133.675  0.00  0.00    +0.000 HD
ENDROOT
BRANCH  18  31
ATOM     31  C   UNL     1      -4.543   4.422 138.261  0.00  0.00    +0.000 C 
ATOM     32  O   UNL     1      -5.225   3.930 139.166  0.00  0.00    +0.000 OA
ATOM     33  N   UNL     1      -3.444   5.249 138.493  0.00  0.00    +0.000 N 
ATOM     34  C   UNL     1      -3.054   6.461 137.784  0.00  0.00    +0.000 C 
ATOM     35  C   UNL     1      -1.568   6.491 137.990  0.00  0.00    +0.000 C 
ATOM     36  C   UNL     1      -1.460   6.157 139.462  0.00  0.00    +0.000 C 
ATOM     37  C   UNL     1      -2.651   5.217 139.756  0.00  0.00    +0.000 C 
BRANCH  37  38
ATOM     38  C   UNL     1      -3.379   5.872 140.933  0.00  0.00    +0.000 C 
ATOM     39  O   UNL     1      -2.862   5.813 142.050  0.00  0.00    +0.000 OA
ATOM     40  N   UNL     1      -4.643   6.419 140.716  0.00  0.00    +0.000 N 
ATOM     41  H   UNL     1      -5.173   6.218 139.871  0.00  0.00    +0.000 HD
BRANCH  40  42
ATOM     42  C   UNL     1      -5.356   7.228 141.742  0.00  0.00    +0.000 C 
BRANCH  42  43
ATOM     43  C   UNL     1      -6.482   6.386 142.443  0.00  0.00    +0.000 C 
ATOM     44  O   UNL     1      -7.088   6.818 143.423  0.00  0.00    +0.000 OA
ATOM     45  N   UNL     1      -6.764   5.141 141.906  0.00  0.00    +0.000 N 
ATOM     46  H   UNL     1      -6.258   4.824 141.100  0.00  0.00    +0.000 HD
BRANCH  45  47
ATOM     47  C   UNL     1      -7.781   4.250 142.476  0.00  0.00    +0.000 C 
BRANCH  47  48
ATOM     48  C   UNL     1      -8.018   2.933 141.709  0.00  0.00    +0.000 C 
ATOM     49  N   UNL     1      -6.929   2.299 141.172  0.00  0.00    +0.000 N 
ATOM     50  O   UNL     1      -9.136   2.443 141.570  0.00  0.00    +0.000 OA
ATOM     51  H   UNL     1      -5.977   2.613 141.222  0.00  0.00    +0.000 HD
ATOM     52  H   UNL     1      -7.082   1.436 140.664  0.00  0.00    +0.000 HD
ENDBRANCH  47  48
ENDBRANCH  45  47
ENDBRANCH  42  43
BRANCH  42  53
ATOM     53  C   UNL     1      -5.990   8.476 141.097  0.00  0.00    +0.000 C 
BRANCH  53  54
ATOM     54  C   UNL     1      -7.164   8.123 140.197  0.00  0.00    +0.000 C 
BRANCH  54  55
ATOM     55  C   UNL     1      -7.012   8.526 138.766  0.00  0.00    +0.000 C 
BRANCH  55  56
ATOM     56  N   UNL     1      -8.290   9.066 138.291  0.00  0.00    +0.000 NA
ATOM     57  C   UNL     1      -8.976   8.306 137.515  0.00  0.00    +0.000 C 
ATOM     58  N   UNL     1      -8.613   7.066 137.133  0.00  0.00    +0.000 N 
ATOM     59  N   UNL     1     -10.160   8.723 137.030  0.00  0.00    +0.000 N 
ATOM     60  H   UNL     1      -7.728   6.699 137.452  0.00  0.00    +0.000 HD
ATOM     61  H   UNL     1      -9.156   6.472 136.536  0.00  0.00    +0.000 HD
ATOM     62  H   UNL     1     -10.471   9.655 137.283  0.00  0.00    +0.000 HD
ATOM     63  H   UNL     1     -10.761   8.185 136.429  0.00  0.00    +0.000 HD
ENDBRANCH  55  56
ENDBRANCH  54  55
ENDBRANCH  53  54
ENDBRANCH  42  53
ENDBRANCH  40  42
ENDBRANCH  37  38
ENDBRANCH  18  31
BRANCH   9  64
ATOM     64  C   UNL     1      -6.264   4.495 129.809  0.00  0.00    +0.000 C 
BRANCH  64  65
ATOM     65  C   UNL     1      -5.190   4.112 128.955  0.00  0.00    +0.000 A 
ATOM     66  C   UNL     1      -3.524   4.546 129.498  0.00  0.00    +0.000 A 
ATOM     67  C   UNL     1      -2.242   4.374 128.285  0.00  0.00    +0.000 A 
ATOM     68  C   UNL     1      -2.597   3.893 126.540  0.00  0.00    +0.000 A 
ATOM     69  C   UNL     1      -4.140   3.550 126.064  0.00  0.00    +0.000 A 
ATOM     70  C   UNL     1      -5.460   3.664 127.229  0.00  0.00    +0.000 A 
BRANCH  68  71
ATOM     71  O   UNL     1      -1.598   3.457 125.682  0.00  0.00    +0.000 OA
ATOM     72  H   UNL     1      -1.793   3.516 124.716  0.00  0.00    +0.000 HD
ENDBRANCH  68  71
ENDBRANCH  64  65
ENDBRANCH   9  64
BRANCH   5  73
ATOM     73  C   UNL     1      -7.400   0.116 128.930  0.00  0.00    +0.000 C 
BRANCH  73  74
ATOM     74  C   UNL     1      -7.664  -1.267 128.438  0.00  0.00    +0.000 A 
ATOM     75  C   UNL     1      -7.889  -1.631 127.090  0.00  0.00    +0.000 A 
ATOM     76  C   UNL     1      -8.679  -2.684 126.728  0.00  0.00    +0.000 A 
ATOM     77  C   UNL     1      -8.789  -3.663 127.667  0.00  0.00    +0.000 A 
ATOM     78  C   UNL     1      -8.393  -3.426 128.989  0.00  0.00    +0.000 A 
ATOM     79  C   UNL     1      -7.893  -2.205 129.396  0.00  0.00    +0.000 A 
ENDBRANCH  73  74
ENDBRANCH   5  73
BRANCH   1  80
ATOM     80  C   UNL     1      -5.625  -1.765 133.758  0.00  0.00    +0.000 C 
BRANCH  80  81
ATOM     81  C   UNL     1      -4.935  -2.981 133.362  0.00  0.00    +0.000 C 
BRANCH  81  83
ATOM     82  C   UNL     1      -5.497  -4.251 131.434  0.00  0.00    +0.000 C 
ATOM     83  C   UNL     1      -5.913  -3.990 132.854  0.00  0.00    +0.000 C 
ENDBRANCH  81  83
ENDBRANCH  80  81
ENDBRANCH   1  80
BRANCH  22  84
ATOM     84  C   UNL     1      -6.023   2.327 133.812  0.00  0.00    +0.000 C 
BRANCH  84  85
ATOM     85  C   UNL     1      -5.245   3.439 132.644  0.00  0.00    +0.000 C 
ATOM     86  N   UNL     1      -3.909   4.795 132.709  0.00  0.00    +0.000 N 
ATOM     87  O   UNL     1      -5.117   2.269 132.027  0.00  0.00    +0.000 OA
ATOM     88  H   UNL     1      -3.611   5.452 133.489  0.00  0.00    +0.000 HD
ATOM     89  H   UNL     1      -2.862   4.662 132.495  0.00  0.00    +0.000 HD
ENDBRANCH  84  85
ENDBRANCH  22  84
TORSDOF 20
ENDMDL
