MODEL 1
REMARK VINA RESULT:      -7.7      0.000      0.000
REMARK  Name = CHEMBL511917
REMARK  11 active torsions:
REMARK  status: ('A' for Active; 'I' for Inactive)
REMARK    1  A    between atoms: C_1  and  O_2
REMARK    2  A    between atoms: O_2  and  C_3
REMARK    3  A    between atoms: C_3  and  C_4
REMARK    4  A    between atoms: C_7  and  C_8
REMARK    5  A    between atoms: C_11  and  C_12
REMARK    6  A    between atoms: C_15  and  O_16
REMARK    7  A    between atoms: O_16  and  C_17
REMARK    8  A    between atoms: C_18  and  C_19
REMARK    9  A    between atoms: N_23  and  C_24
REMARK   10  A    between atoms: C_27  and  O_28
REMARK   11  A    between atoms: O_28  and  C_29
REMARK                            x       y       z     vdW  Elec       q    Type
REMARK                         _______ _______ _______ _____ _____    ______ ____
ROOT
ATOM      1  C   UNL     1      -5.795   3.658 122.139  0.00  0.00    +0.000 A 
ATOM      2  N   UNL     1      -5.151   4.758 122.488  0.00  0.00    +0.000 NA
ATOM      3  N   UNL     1      -5.451   5.040 123.809  0.00  0.00    +0.000 NA
ATOM      4  C   UNL     1      -6.273   4.108 124.263  0.00  0.00    +0.000 A 
ATOM      5  N   UNL     1      -6.537   3.239 123.221  0.00  0.00    +0.000 N 
ENDROOT
BRANCH   4   6
ATOM      6  C   UNL     1      -6.772   3.912 125.629  0.00  0.00    +0.000 A 
ATOM      7  C   UNL     1      -7.915   4.562 126.099  0.00  0.00    +0.000 A 
ATOM      8  N   UNL     1      -8.348   4.498 127.389  0.00  0.00    +0.000 NA
ATOM      9  C   UNL     1      -7.587   3.760 128.234  0.00  0.00    +0.000 A 
ATOM     10  C   UNL     1      -6.439   3.118 127.761  0.00  0.00    +0.000 A 
ATOM     11  N   UNL     1      -6.002   3.181 126.468  0.00  0.00    +0.000 NA
BRANCH   9  12
ATOM     12  C   UNL     1      -8.039   3.659 129.631  0.00  0.00    +0.000 A 
ATOM     13  C   UNL     1      -7.969   4.750 130.498  0.00  0.00    +0.000 A 
ATOM     14  C   UNL     1      -8.446   4.649 131.814  0.00  0.00    +0.000 A 
ATOM     15  C   UNL     1      -8.988   3.454 132.327  0.00  0.00    +0.000 A 
ATOM     16  C   UNL     1      -9.053   2.334 131.485  0.00  0.00    +0.000 A 
ATOM     17  C   UNL     1      -9.559   0.953 131.803  0.00  0.00    +0.000 C 
ATOM     18  C   UNL     1      -8.578   2.469 130.148  0.00  0.00    +0.000 A 
BRANCH  15  19
ATOM     19  O   UNL     1      -9.376   3.602 133.632  0.00  0.00    +0.000 OA
ATOM     20  C   UNL     1      -8.505   4.226 134.554  0.00  0.00    +0.000 C 
ENDBRANCH  15  19
ENDBRANCH   9  12
ENDBRANCH   4   6
BRANCH   5  21
ATOM     21  C   UNL     1      -7.446   2.178 123.248  0.00  0.00    +0.000 A 
ATOM     22  C   UNL     1      -8.791   2.407 123.008  0.00  0.00    +0.000 A 
ATOM     23  C   UNL     1      -9.644   1.311 123.005  0.00  0.00    +0.000 A 
ATOM     24  C   UNL     1      -9.124   0.045 123.265  0.00  0.00    +0.000 A 
ATOM     25  N   UNL     1      -7.811  -0.172 123.502  0.00  0.00    +0.000 NA
ATOM     26  C   UNL     1      -6.987   0.891 123.477  0.00  0.00    +0.000 A 
BRANCH  24  27
ATOM     27  O   UNL     1      -9.861  -1.102 123.315  0.00  0.00    +0.000 OA
ATOM     28  C   UNL     1      -9.171  -2.275 123.716  0.00  0.00    +0.000 C 
ENDBRANCH  24  27
ENDBRANCH   5  21
BRANCH   1  29
ATOM     29  C   UNL     1      -5.899   3.056 120.773  0.00  0.00    +0.000 C 
BRANCH  29  31
ATOM     30  C   UNL     1      -7.775   4.121 119.820  0.00  0.00    +0.000 C 
ATOM     31  O   UNL     1      -6.351   4.067 119.868  0.00  0.00    +0.000 OA
ENDBRANCH  29  31
ENDBRANCH   1  29
TORSDOF 7
ENDMDL
MODEL 2
REMARK VINA RESULT:      -7.3      3.768      8.727
REMARK  Name = CHEMBL511917
REMARK  11 active torsions:
REMARK  status: ('A' for Active; 'I' for Inactive)
REMARK    1  A    between atoms: C_1  and  O_2
REMARK    2  A    between atoms: O_2  and  C_3
REMARK    3  A    between atoms: C_3  and  C_4
REMARK    4  A    between atoms: C_7  and  C_8
REMARK    5  A    between atoms: C_11  and  C_12
REMARK    6  A    between atoms: C_15  and  O_16
REMARK    7  A    between atoms: O_16  and  C_17
REMARK    8  A    between atoms: C_18  and  C_19
REMARK    9  A    between atoms: N_23  and  C_24
REMARK   10  A    between atoms: C_27  and  O_28
REMARK   11  A    between atoms: O_28  and  C_29
REMARK                            x       y       z     vdW  Elec       q    Type
REMARK                         _______ _______ _______ _____ _____    ______ ____
ROOT
ATOM      1  C   UNL     1      -9.050   5.580 130.179  0.00  0.00    +0.000 A 
ATOM      2  N   UNL     1      -9.098   6.199 129.013  0.00  0.00    +0.000 NA
ATOM      3  N   UNL     1      -8.670   5.320 128.033  0.00  0.00    +0.000 NA
ATOM      4  C   UNL     1      -8.367   4.166 128.605  0.00  0.00    +0.000 A 
ATOM      5  N   UNL     1      -8.565   4.309 129.966  0.00  0.00    +0.000 N 
ENDROOT
BRANCH   4   6
ATOM      6  C   UNL     1      -7.986   2.899 127.969  0.00  0.00    +0.000 A 
ATOM      7  C   UNL     1      -6.716   2.698 127.427  0.00  0.00    +0.000 A 
ATOM      8  N   UNL     1      -6.356   1.584 126.729  0.00  0.00    +0.000 NA
ATOM      9  C   UNL     1      -7.324   0.649 126.566  0.00  0.00    +0.000 A 
ATOM     10  C   UNL     1      -8.597   0.859 127.102  0.00  0.00    +0.000 A 
ATOM     11  N   UNL     1      -8.961   1.976 127.802  0.00  0.00    +0.000 NA
BRANCH   9  12
ATOM     12  C   UNL     1      -6.960  -0.572 125.830  0.00  0.00    +0.000 A 
ATOM     13  C   UNL     1      -5.627  -0.914 125.603  0.00  0.00    +0.000 A 
ATOM     14  C   UNL     1      -5.297  -2.105 124.938  0.00  0.00    +0.000 A 
ATOM     15  C   UNL     1      -6.279  -2.991 124.451  0.00  0.00    +0.000 A 
ATOM     16  C   UNL     1      -7.629  -2.664 124.647  0.00  0.00    +0.000 A 
ATOM     17  C   UNL     1      -8.849  -3.425 124.202  0.00  0.00    +0.000 C 
ATOM     18  C   UNL     1      -7.936  -1.457 125.340  0.00  0.00    +0.000 A 
BRANCH  15  19
ATOM     19  O   UNL     1      -5.712  -4.074 123.836  0.00  0.00    +0.000 OA
ATOM     20  C   UNL     1      -4.305  -4.168 123.740  0.00  0.00    +0.000 C 
ENDBRANCH  15  19
ENDBRANCH   9  12
ENDBRANCH   4   6
BRANCH   5  21
ATOM     21  C   UNL     1      -8.255   3.359 130.944  0.00  0.00    +0.000 A 
ATOM     22  C   UNL     1      -9.222   2.466 131.378  0.00  0.00    +0.000 A 
ATOM     23  C   UNL     1      -8.849   1.516 132.320  0.00  0.00    +0.000 A 
ATOM     24  C   UNL     1      -7.542   1.515 132.802  0.00  0.00    +0.000 A 
ATOM     25  N   UNL     1      -6.604   2.390 132.378  0.00  0.00    +0.000 NA
ATOM     26  C   UNL     1      -6.966   3.291 131.445  0.00  0.00    +0.000 A 
BRANCH  24  27
ATOM     27  O   UNL     1      -7.063   0.651 133.745  0.00  0.00    +0.000 OA
ATOM     28  C   UNL     1      -5.721   0.853 134.155  0.00  0.00    +0.000 C 
ENDBRANCH  24  27
ENDBRANCH   5  21
BRANCH   1  29
ATOM     29  C   UNL     1      -9.271   6.171 131.536  0.00  0.00    +0.000 C 
BRANCH  29  31
ATOM     30  C   UNL     1     -11.595   6.576 131.583  0.00  0.00    +0.000 C 
ATOM     31  O   UNL     1     -10.539   5.723 132.022  0.00  0.00    +0.000 OA
ENDBRANCH  29  31
ENDBRANCH   1  29
TORSDOF 7
ENDMDL
MODEL 3
REMARK VINA RESULT:      -7.2      2.286      2.942
REMARK  Name = CHEMBL511917
REMARK  11 active torsions:
REMARK  status: ('A' for Active; 'I' for Inactive)
REMARK    1  A    between atoms: C_1  and  O_2
REMARK    2  A    between atoms: O_2  and  C_3
REMARK    3  A    between atoms: C_3  and  C_4
REMARK    4  A    between atoms: C_7  and  C_8
REMARK    5  A    between atoms: C_11  and  C_12
REMARK    6  A    between atoms: C_15  and  O_16
REMARK    7  A    between atoms: O_16  and  C_17
REMARK    8  A    between atoms: C_18  and  C_19
REMARK    9  A    between atoms: N_23  and  C_24
REMARK   10  A    between atoms: C_27  and  O_28
REMARK   11  A    between atoms: O_28  and  C_29
REMARK                            x       y       z     vdW  Elec       q    Type
REMARK                         _______ _______ _______ _____ _____    ______ ____
ROOT
ATOM      1  C   UNL     1      -6.236   3.691 122.802  0.00  0.00    +0.000 A 
ATOM      2  N   UNL     1      -5.555   4.651 123.402  0.00  0.00    +0.000 NA
ATOM      3  N   UNL     1      -5.594   4.427 124.768  0.00  0.00    +0.000 NA
ATOM      4  C   UNL     1      -6.294   3.327 124.995  0.00  0.00    +0.000 A 
ATOM      5  N   UNL     1      -6.742   2.857 123.775  0.00  0.00    +0.000 N 
ENDROOT
BRANCH   4   6
ATOM      6  C   UNL     1      -6.509   2.624 126.264  0.00  0.00    +0.000 A 
ATOM      7  C   UNL     1      -5.666   1.598 126.693  0.00  0.00    +0.000 A 
ATOM      8  N   UNL     1      -5.893   0.844 127.805  0.00  0.00    +0.000 NA
ATOM      9  C   UNL     1      -7.022   1.133 128.497  0.00  0.00    +0.000 A 
ATOM     10  C   UNL     1      -7.868   2.155 128.059  0.00  0.00    +0.000 A 
ATOM     11  N   UNL     1      -7.643   2.913 126.944  0.00  0.00    +0.000 NA
BRANCH   9  12
ATOM     12  C   UNL     1      -7.285   0.345 129.712  0.00  0.00    +0.000 A 
ATOM     13  C   UNL     1      -7.640   0.958 130.914  0.00  0.00    +0.000 A 
ATOM     14  C   UNL     1      -7.931   0.189 132.051  0.00  0.00    +0.000 A 
ATOM     15  C   UNL     1      -7.856  -1.219 132.045  0.00  0.00    +0.000 A 
ATOM     16  C   UNL     1      -7.482  -1.862 130.856  0.00  0.00    +0.000 A 
ATOM     17  C   UNL     1      -7.307  -3.336 130.607  0.00  0.00    +0.000 C 
ATOM     18  C   UNL     1      -7.209  -1.058 129.712  0.00  0.00    +0.000 A 
BRANCH  15  19
ATOM     19  O   UNL     1      -8.176  -1.739 133.270  0.00  0.00    +0.000 OA
ATOM     20  C   UNL     1      -7.156  -2.260 134.098  0.00  0.00    +0.000 C 
ENDBRANCH  15  19
ENDBRANCH   9  12
ENDBRANCH   4   6
BRANCH   5  21
ATOM     21  C   UNL     1      -7.609   1.778 123.580  0.00  0.00    +0.000 A 
ATOM     22  C   UNL     1      -8.976   1.989 123.501  0.00  0.00    +0.000 A 
ATOM     23  C   UNL     1      -9.788   0.888 123.265  0.00  0.00    +0.000 A 
ATOM     24  C   UNL     1      -9.205  -0.372 123.142  0.00  0.00    +0.000 A 
ATOM     25  N   UNL     1      -7.871  -0.572 123.223  0.00  0.00    +0.000 NA
ATOM     26  C   UNL     1      -7.089   0.504 123.426  0.00  0.00    +0.000 A 
BRANCH  24  27
ATOM     27  O   UNL     1      -9.897  -1.530 122.935  0.00  0.00    +0.000 OA
ATOM     28  C   UNL     1      -9.246  -2.728 123.328  0.00  0.00    +0.000 C 
ENDBRANCH  24  27
ENDBRANCH   5  21
BRANCH   1  29
ATOM     29  C   UNL     1      -6.597   3.597 121.353  0.00  0.00    +0.000 C 
BRANCH  29  31
ATOM     30  C   UNL     1      -5.519   5.021 119.812  0.00  0.00    +0.000 C 
ATOM     31  O   UNL     1      -5.416   3.824 120.579  0.00  0.00    +0.000 OA
ENDBRANCH  29  31
ENDBRANCH   1  29
TORSDOF 7
ENDMDL
MODEL 4
REMARK VINA RESULT:      -7.0      6.388      8.940
REMARK  Name = CHEMBL511917
REMARK  11 active torsions:
REMARK  status: ('A' for Active; 'I' for Inactive)
REMARK    1  A    between atoms: C_1  and  O_2
REMARK    2  A    between atoms: O_2  and  C_3
REMARK    3  A    between atoms: C_3  and  C_4
REMARK    4  A    between atoms: C_7  and  C_8
REMARK    5  A    between atoms: C_11  and  C_12
REMARK    6  A    between atoms: C_15  and  O_16
REMARK    7  A    between atoms: O_16  and  C_17
REMARK    8  A    between atoms: C_18  and  C_19
REMARK    9  A    between atoms: N_23  and  C_24
REMARK   10  A    between atoms: C_27  and  O_28
REMARK   11  A    between atoms: O_28  and  C_29
REMARK                            x       y       z     vdW  Elec       q    Type
REMARK                         _______ _______ _______ _____ _____    ______ ____
ROOT
ATOM      1  C   UNL     1      -5.807   1.448 132.886  0.00  0.00    +0.000 A 
ATOM      2  N   UNL     1      -6.786   0.846 133.538  0.00  0.00    +0.000 NA
ATOM      3  N   UNL     1      -7.953   1.562 133.332  0.00  0.00    +0.000 NA
ATOM      4  C   UNL     1      -7.682   2.596 132.552  0.00  0.00    +0.000 A 
ATOM      5  N   UNL     1      -6.327   2.571 132.281  0.00  0.00    +0.000 N 
ENDROOT
BRANCH   4   6
ATOM      6  C   UNL     1      -8.610   3.568 131.963  0.00  0.00    +0.000 A 
ATOM      7  C   UNL     1      -9.114   3.419 130.670  0.00  0.00    +0.000 A 
ATOM      8  N   UNL     1      -9.885   4.351 130.044  0.00  0.00    +0.000 NA
ATOM      9  C   UNL     1     -10.141   5.480 130.750  0.00  0.00    +0.000 A 
ATOM     10  C   UNL     1      -9.626   5.629 132.040  0.00  0.00    +0.000 A 
ATOM     11  N   UNL     1      -8.852   4.696 132.671  0.00  0.00    +0.000 NA
BRANCH   9  12
ATOM     12  C   UNL     1     -10.985   6.498 130.104  0.00  0.00    +0.000 A 
ATOM     13  C   UNL     1     -11.989   7.164 130.809  0.00  0.00    +0.000 A 
ATOM     14  C   UNL     1     -12.754   8.164 130.190  0.00  0.00    +0.000 A 
ATOM     15  C   UNL     1     -12.569   8.524 128.839  0.00  0.00    +0.000 A 
ATOM     16  C   UNL     1     -11.580   7.858 128.100  0.00  0.00    +0.000 A 
ATOM     17  C   UNL     1     -11.213   8.042 126.652  0.00  0.00    +0.000 C 
ATOM     18  C   UNL     1     -10.806   6.859 128.758  0.00  0.00    +0.000 A 
BRANCH  15  19
ATOM     19  O   UNL     1     -13.437   9.514 128.465  0.00  0.00    +0.000 OA
ATOM     20  C   UNL     1     -13.585  10.660 129.279  0.00  0.00    +0.000 C 
ENDBRANCH  15  19
ENDBRANCH   9  12
ENDBRANCH   4   6
BRANCH   5  21
ATOM     21  C   UNL     1      -5.612   3.548 131.582  0.00  0.00    +0.000 A 
ATOM     22  C   UNL     1      -5.346   3.385 130.233  0.00  0.00    +0.000 A 
ATOM     23  C   UNL     1      -4.669   4.406 129.579  0.00  0.00    +0.000 A 
ATOM     24  C   UNL     1      -4.269   5.528 130.302  0.00  0.00    +0.000 A 
ATOM     25  N   UNL     1      -4.529   5.680 131.619  0.00  0.00    +0.000 NA
ATOM     26  C   UNL     1      -5.209   4.699 132.240  0.00  0.00    +0.000 A 
BRANCH  24  27
ATOM     27  O   UNL     1      -3.578   6.583 129.779  0.00  0.00    +0.000 OA
ATOM     28  C   UNL     1      -3.975   7.872 130.217  0.00  0.00    +0.000 C 
ENDBRANCH  24  27
ENDBRANCH   5  21
BRANCH   1  29
ATOM     29  C   UNL     1      -4.346   1.129 132.937  0.00  0.00    +0.000 C 
BRANCH  29  31
ATOM     30  C   UNL     1      -4.234  -0.138 130.950  0.00  0.00    +0.000 C 
ATOM     31  O   UNL     1      -4.149  -0.171 132.373  0.00  0.00    +0.000 OA
ENDBRANCH  29  31
ENDBRANCH   1  29
TORSDOF 7
ENDMDL
MODEL 5
REMARK VINA RESULT:      -7.0      4.932      6.377
REMARK  Name = CHEMBL511917
REMARK  11 active torsions:
REMARK  status: ('A' for Active; 'I' for Inactive)
REMARK    1  A    between atoms: C_1  and  O_2
REMARK    2  A    between atoms: O_2  and  C_3
REMARK    3  A    between atoms: C_3  and  C_4
REMARK    4  A    between atoms: C_7  and  C_8
REMARK    5  A    between atoms: C_11  and  C_12
REMARK    6  A    between atoms: C_15  and  O_16
REMARK    7  A    between atoms: O_16  and  C_17
REMARK    8  A    between atoms: C_18  and  C_19
REMARK    9  A    between atoms: N_23  and  C_24
REMARK   10  A    between atoms: C_27  and  O_28
REMARK   11  A    between atoms: O_28  and  C_29
REMARK                            x       y       z     vdW  Elec       q    Type
REMARK                         _______ _______ _______ _____ _____    ______ ____
ROOT
ATOM      1  C   UNL     1      -8.284   1.216 124.843  0.00  0.00    +0.000 A 
ATOM      2  N   UNL     1      -8.997   1.984 125.648  0.00  0.00    +0.000 NA
ATOM      3  N   UNL     1      -9.014   1.402 126.904  0.00  0.00    +0.000 NA
ATOM      4  C   UNL     1      -8.307   0.285 126.862  0.00  0.00    +0.000 A 
ATOM      5  N   UNL     1      -7.861   0.122 125.564  0.00  0.00    +0.000 N 
ENDROOT
BRANCH   4   6
ATOM      6  C   UNL     1      -7.939  -0.609 127.966  0.00  0.00    +0.000 A 
ATOM      7  C   UNL     1      -7.091  -0.201 128.996  0.00  0.00    +0.000 A 
ATOM      8  N   UNL     1      -6.634  -1.029 129.976  0.00  0.00    +0.000 NA
ATOM      9  C   UNL     1      -7.041  -2.321 129.898  0.00  0.00    +0.000 A 
ATOM     10  C   UNL     1      -7.882  -2.727 128.860  0.00  0.00    +0.000 A 
ATOM     11  N   UNL     1      -8.342  -1.898 127.875  0.00  0.00    +0.000 NA
BRANCH   9  12
ATOM     12  C   UNL     1      -6.575  -3.236 130.953  0.00  0.00    +0.000 A 
ATOM     13  C   UNL     1      -5.735  -4.312 130.663  0.00  0.00    +0.000 A 
ATOM     14  C   UNL     1      -5.265  -5.147 131.688  0.00  0.00    +0.000 A 
ATOM     15  C   UNL     1      -5.630  -4.962 133.036  0.00  0.00    +0.000 A 
ATOM     16  C   UNL     1      -6.490  -3.900 133.355  0.00  0.00    +0.000 A 
ATOM     17  C   UNL     1      -7.039  -3.515 134.703  0.00  0.00    +0.000 C 
ATOM     18  C   UNL     1      -6.938  -3.057 132.298  0.00  0.00    +0.000 A 
BRANCH  15  19
ATOM     19  O   UNL     1      -5.053  -5.905 133.843  0.00  0.00    +0.000 OA
ATOM     20  C   UNL     1      -3.724  -5.725 134.290  0.00  0.00    +0.000 C 
ENDBRANCH  15  19
ENDBRANCH   9  12
ENDBRANCH   4   6
BRANCH   5  21
ATOM     21  C   UNL     1      -7.171  -0.989 125.068  0.00  0.00    +0.000 A 
ATOM     22  C   UNL     1      -5.787  -1.026 125.113  0.00  0.00    +0.000 A 
ATOM     23  C   UNL     1      -5.155  -2.171 124.645  0.00  0.00    +0.000 A 
ATOM     24  C   UNL     1      -5.927  -3.211 124.133  0.00  0.00    +0.000 A 
ATOM     25  N   UNL     1      -7.277  -3.168 124.088  0.00  0.00    +0.000 NA
ATOM     26  C   UNL     1      -7.883  -2.066 124.568  0.00  0.00    +0.000 A 
BRANCH  24  27
ATOM     27  O   UNL     1      -5.424  -4.373 123.622  0.00  0.00    +0.000 OA
ATOM     28  C   UNL     1      -4.010  -4.482 123.587  0.00  0.00    +0.000 C 
ENDBRANCH  24  27
ENDBRANCH   5  21
BRANCH   1  29
ATOM     29  C   UNL     1      -8.113   1.357 123.363  0.00  0.00    +0.000 C 
BRANCH  29  31
ATOM     30  C   UNL     1     -10.147   0.530 122.500  0.00  0.00    +0.000 C 
ATOM     31  O   UNL     1      -9.381   1.696 122.794  0.00  0.00    +0.000 OA
ENDBRANCH  29  31
ENDBRANCH   1  29
TORSDOF 7
ENDMDL
MODEL 6
REMARK VINA RESULT:      -7.0      4.525      6.508
REMARK  Name = CHEMBL511917
REMARK  11 active torsions:
REMARK  status: ('A' for Active; 'I' for Inactive)
REMARK    1  A    between atoms: C_1  and  O_2
REMARK    2  A    between atoms: O_2  and  C_3
REMARK    3  A    between atoms: C_3  and  C_4
REMARK    4  A    between atoms: C_7  and  C_8
REMARK    5  A    between atoms: C_11  and  C_12
REMARK    6  A    between atoms: C_15  and  O_16
REMARK    7  A    between atoms: O_16  and  C_17
REMARK    8  A    between atoms: C_18  and  C_19
REMARK    9  A    between atoms: N_23  and  C_24
REMARK   10  A    between atoms: C_27  and  O_28
REMARK   11  A    between atoms: O_28  and  C_29
REMARK                            x       y       z     vdW  Elec       q    Type
REMARK                         _______ _______ _______ _____ _____    ______ ____
ROOT
ATOM      1  C   UNL     1      -9.079  -1.352 125.961  0.00  0.00    +0.000 A 
ATOM      2  N   UNL     1      -9.775  -0.359 125.436  0.00  0.00    +0.000 NA
ATOM      3  N   UNL     1      -9.255   0.835 125.905  0.00  0.00    +0.000 NA
ATOM      4  C   UNL     1      -8.241   0.567 126.710  0.00  0.00    +0.000 A 
ATOM      5  N   UNL     1      -8.125  -0.808 126.793  0.00  0.00    +0.000 N 
ENDROOT
BRANCH   4   6
ATOM      6  C   UNL     1      -7.305   1.500 127.348  0.00  0.00    +0.000 A 
ATOM      7  C   UNL     1      -6.102   1.869 126.745  0.00  0.00    +0.000 A 
ATOM      8  N   UNL     1      -5.155   2.640 127.349  0.00  0.00    +0.000 NA
ATOM      9  C   UNL     1      -5.434   3.038 128.615  0.00  0.00    +0.000 A 
ATOM     10  C   UNL     1      -6.635   2.658 129.218  0.00  0.00    +0.000 A 
ATOM     11  N   UNL     1      -7.587   1.885 128.615  0.00  0.00    +0.000 NA
BRANCH   9  12
ATOM     12  C   UNL     1      -4.436   3.886 129.287  0.00  0.00    +0.000 A 
ATOM     13  C   UNL     1      -4.097   3.688 130.625  0.00  0.00    +0.000 A 
ATOM     14  C   UNL     1      -3.110   4.476 131.237  0.00  0.00    +0.000 A 
ATOM     15  C   UNL     1      -2.441   5.509 130.550  0.00  0.00    +0.000 A 
ATOM     16  C   UNL     1      -2.775   5.745 129.209  0.00  0.00    +0.000 A 
ATOM     17  C   UNL     1      -2.227   6.794 128.280  0.00  0.00    +0.000 C 
ATOM     18  C   UNL     1      -3.767   4.918 128.607  0.00  0.00    +0.000 A 
BRANCH  15  19
ATOM     19  O   UNL     1      -1.533   6.137 131.359  0.00  0.00    +0.000 OA
ATOM     20  C   UNL     1      -1.123   5.521 132.563  0.00  0.00    +0.000 C 
ENDBRANCH  15  19
ENDBRANCH   9  12
ENDBRANCH   4   6
BRANCH   5  21
ATOM     21  C   UNL     1      -7.248  -1.509 127.627  0.00  0.00    +0.000 A 
ATOM     22  C   UNL     1      -7.661  -1.918 128.884  0.00  0.00    +0.000 A 
ATOM     23  C   UNL     1      -6.764  -2.647 129.654  0.00  0.00    +0.000 A 
ATOM     24  C   UNL     1      -5.494  -2.913 129.147  0.00  0.00    +0.000 A 
ATOM     25  N   UNL     1      -5.096  -2.508 127.921  0.00  0.00    +0.000 NA
ATOM     26  C   UNL     1      -5.980  -1.825 127.170  0.00  0.00    +0.000 A 
BRANCH  24  27
ATOM     27  O   UNL     1      -4.518  -3.595 129.815  0.00  0.00    +0.000 OA
ATOM     28  C   UNL     1      -3.241  -3.626 129.199  0.00  0.00    +0.000 C 
ENDBRANCH  24  27
ENDBRANCH   5  21
BRANCH   1  29
ATOM     29  C   UNL     1      -9.366  -2.818 125.867  0.00  0.00    +0.000 C 
BRANCH  29  31
ATOM     30  C   UNL     1      -8.644  -3.138 123.644  0.00  0.00    +0.000 C 
ATOM     31  O   UNL     1      -9.764  -3.113 124.526  0.00  0.00    +0.000 OA
ENDBRANCH  29  31
ENDBRANCH   1  29
TORSDOF 7
ENDMDL
MODEL 7
REMARK VINA RESULT:      -7.0      4.543      7.809
REMARK  Name = CHEMBL511917
REMARK  11 active torsions:
REMARK  status: ('A' for Active; 'I' for Inactive)
REMARK    1  A    between atoms: C_1  and  O_2
REMARK    2  A    between atoms: O_2  and  C_3
REMARK    3  A    between atoms: C_3  and  C_4
REMARK    4  A    between atoms: C_7  and  C_8
REMARK    5  A    between atoms: C_11  and  C_12
REMARK    6  A    between atoms: C_15  and  O_16
REMARK    7  A    between atoms: O_16  and  C_17
REMARK    8  A    between atoms: C_18  and  C_19
REMARK    9  A    between atoms: N_23  and  C_24
REMARK   10  A    between atoms: C_27  and  O_28
REMARK   11  A    between atoms: O_28  and  C_29
REMARK                            x       y       z     vdW  Elec       q    Type
REMARK                         _______ _______ _______ _____ _____    ______ ____
ROOT
ATOM      1  C   UNL     1      -6.512  -0.025 132.499  0.00  0.00    +0.000 A 
ATOM      2  N   UNL     1      -6.778   0.421 133.714  0.00  0.00    +0.000 NA
ATOM      3  N   UNL     1      -7.493   1.601 133.600  0.00  0.00    +0.000 NA
ATOM      4  C   UNL     1      -7.665   1.867 132.315  0.00  0.00    +0.000 A 
ATOM      5  N   UNL     1      -7.027   0.876 131.594  0.00  0.00    +0.000 N 
ENDROOT
BRANCH   4   6
ATOM      6  C   UNL     1      -8.457   2.937 131.699  0.00  0.00    +0.000 A 
ATOM      7  C   UNL     1      -8.017   4.262 131.673  0.00  0.00    +0.000 A 
ATOM      8  N   UNL     1      -8.767   5.302 131.215  0.00  0.00    +0.000 NA
ATOM      9  C   UNL     1     -10.013   4.988 130.779  0.00  0.00    +0.000 A 
ATOM     10  C   UNL     1     -10.452   3.663 130.815  0.00  0.00    +0.000 A 
ATOM     11  N   UNL     1      -9.702   2.617 131.275  0.00  0.00    +0.000 NA
BRANCH   9  12
ATOM     12  C   UNL     1     -10.841   6.090 130.263  0.00  0.00    +0.000 A 
ATOM     13  C   UNL     1     -11.881   6.634 131.017  0.00  0.00    +0.000 A 
ATOM     14  C   UNL     1     -12.631   7.714 130.527  0.00  0.00    +0.000 A 
ATOM     15  C   UNL     1     -12.394   8.279 129.258  0.00  0.00    +0.000 A 
ATOM     16  C   UNL     1     -11.368   7.740 128.468  0.00  0.00    +0.000 A 
ATOM     17  C   UNL     1     -10.942   8.148 127.083  0.00  0.00    +0.000 C 
ATOM     18  C   UNL     1     -10.610   6.655 128.997  0.00  0.00    +0.000 A 
BRANCH  15  19
ATOM     19  O   UNL     1     -13.256   9.311 129.004  0.00  0.00    +0.000 OA
ATOM     20  C   UNL     1     -13.248  10.452 129.837  0.00  0.00    +0.000 C 
ENDBRANCH  15  19
ENDBRANCH   9  12
ENDBRANCH   4   6
BRANCH   5  21
ATOM     21  C   UNL     1      -6.873   0.842 130.205  0.00  0.00    +0.000 A 
ATOM     22  C   UNL     1      -7.782   0.150 129.420  0.00  0.00    +0.000 A 
ATOM     23  C   UNL     1      -7.606   0.185 128.043  0.00  0.00    +0.000 A 
ATOM     24  C   UNL     1      -6.523   0.884 127.514  0.00  0.00    +0.000 A 
ATOM     25  N   UNL     1      -5.638   1.554 128.285  0.00  0.00    +0.000 NA
ATOM     26  C   UNL     1      -5.831   1.538 129.617  0.00  0.00    +0.000 A 
BRANCH  24  27
ATOM     27  O   UNL     1      -6.230   0.971 126.184  0.00  0.00    +0.000 OA
ATOM     28  C   UNL     1      -5.656   2.192 125.747  0.00  0.00    +0.000 C 
ENDBRANCH  24  27
ENDBRANCH   5  21
BRANCH   1  29
ATOM     29  C   UNL     1      -5.636  -1.179 132.123  0.00  0.00    +0.000 C 
BRANCH  29  31
ATOM     30  C   UNL     1      -6.313  -3.011 130.801  0.00  0.00    +0.000 C 
ATOM     31  O   UNL     1      -6.445  -2.357 132.061  0.00  0.00    +0.000 OA
ENDBRANCH  29  31
ENDBRANCH   1  29
TORSDOF 7
ENDMDL
MODEL 8
REMARK VINA RESULT:      -6.9      5.933      8.315
REMARK  Name = CHEMBL511917
REMARK  11 active torsions:
REMARK  status: ('A' for Active; 'I' for Inactive)
REMARK    1  A    between atoms: C_1  and  O_2
REMARK    2  A    between atoms: O_2  and  C_3
REMARK    3  A    between atoms: C_3  and  C_4
REMARK    4  A    between atoms: C_7  and  C_8
REMARK    5  A    between atoms: C_11  and  C_12
REMARK    6  A    between atoms: C_15  and  O_16
REMARK    7  A    between atoms: O_16  and  C_17
REMARK    8  A    between atoms: C_18  and  C_19
REMARK    9  A    between atoms: N_23  and  C_24
REMARK   10  A    between atoms: C_27  and  O_28
REMARK   11  A    between atoms: O_28  and  C_29
REMARK                            x       y       z     vdW  Elec       q    Type
REMARK                         _______ _______ _______ _____ _____    ______ ____
ROOT
ATOM      1  C   UNL     1     -10.640   6.059 130.094  0.00  0.00    +0.000 A 
ATOM      2  N   UNL     1     -11.727   5.376 129.783  0.00  0.00    +0.000 NA
ATOM      3  N   UNL     1     -11.455   4.027 129.938  0.00  0.00    +0.000 NA
ATOM      4  C   UNL     1     -10.204   3.893 130.347  0.00  0.00    +0.000 A 
ATOM      5  N   UNL     1      -9.651   5.158 130.423  0.00  0.00    +0.000 N 
ENDROOT
BRANCH   4   6
ATOM      6  C   UNL     1      -9.500   2.674 130.760  0.00  0.00    +0.000 A 
ATOM      7  C   UNL     1      -8.626   2.000 129.906  0.00  0.00    +0.000 A 
ATOM      8  N   UNL     1      -8.041   0.807 130.206  0.00  0.00    +0.000 NA
ATOM      9  C   UNL     1      -8.365   0.274 131.410  0.00  0.00    +0.000 A 
ATOM     10  C   UNL     1      -9.248   0.947 132.257  0.00  0.00    +0.000 A 
ATOM     11  N   UNL     1      -9.837   2.144 131.959  0.00  0.00    +0.000 NA
BRANCH   9  12
ATOM     12  C   UNL     1      -7.735  -1.007 131.768  0.00  0.00    +0.000 A 
ATOM     13  C   UNL     1      -7.466  -1.339 133.096  0.00  0.00    +0.000 A 
ATOM     14  C   UNL     1      -6.906  -2.583 133.422  0.00  0.00    +0.000 A 
ATOM     15  C   UNL     1      -6.568  -3.537 132.441  0.00  0.00    +0.000 A 
ATOM     16  C   UNL     1      -6.809  -3.223 131.095  0.00  0.00    +0.000 A 
ATOM     17  C   UNL     1      -6.515  -4.054 129.874  0.00  0.00    +0.000 C 
ATOM     18  C   UNL     1      -7.394  -1.960 130.792  0.00  0.00    +0.000 A 
BRANCH  15  19
ATOM     19  O   UNL     1      -6.032  -4.663 133.004  0.00  0.00    +0.000 OA
ATOM     20  C   UNL     1      -4.640  -4.891 132.924  0.00  0.00    +0.000 C 
ENDBRANCH  15  19
ENDBRANCH   9  12
ENDBRANCH   4   6
BRANCH   5  21
ATOM     21  C   UNL     1      -8.315   5.453 130.709  0.00  0.00    +0.000 A 
ATOM     22  C   UNL     1      -7.948   5.849 131.985  0.00  0.00    +0.000 A 
ATOM     23  C   UNL     1      -6.601   6.089 132.225  0.00  0.00    +0.000 A 
ATOM     24  C   UNL     1      -5.689   5.947 131.181  0.00  0.00    +0.000 A 
ATOM     25  N   UNL     1      -6.055   5.565 129.937  0.00  0.00    +0.000 NA
ATOM     26  C   UNL     1      -7.358   5.308 129.719  0.00  0.00    +0.000 A 
BRANCH  24  27
ATOM     27  O   UNL     1      -4.348   6.179 131.284  0.00  0.00    +0.000 OA
ATOM     28  C   UNL     1      -3.509   5.378 130.467  0.00  0.00    +0.000 C 
ENDBRANCH  24  27
ENDBRANCH   5  21
BRANCH   1  29
ATOM     29  C   UNL     1     -10.409   7.529 129.933  0.00  0.00    +0.000 C 
BRANCH  29  31
ATOM     30  C   UNL     1     -10.817   8.318 127.748  0.00  0.00    +0.000 C 
ATOM     31  O   UNL     1      -9.852   7.758 128.636  0.00  0.00    +0.000 OA
ENDBRANCH  29  31
ENDBRANCH   1  29
TORSDOF 7
ENDMDL
MODEL 9
REMARK VINA RESULT:      -6.9      4.632      6.619
REMARK  Name = CHEMBL511917
REMARK  11 active torsions:
REMARK  status: ('A' for Active; 'I' for Inactive)
REMARK    1  A    between atoms: C_1  and  O_2
REMARK    2  A    between atoms: O_2  and  C_3
REMARK    3  A    between atoms: C_3  and  C_4
REMARK    4  A    between atoms: C_7  and  C_8
REMARK    5  A    between atoms: C_11  and  C_12
REMARK    6  A    between atoms: C_15  and  O_16
REMARK    7  A    between atoms: O_16  and  C_17
REMARK    8  A    between atoms: C_18  and  C_19
REMARK    9  A    between atoms: N_23  and  C_24
REMARK   10  A    between atoms: C_27  and  O_28
REMARK   11  A    between atoms: O_28  and  C_29
REMARK                            x       y       z     vdW  Elec       q    Type
REMARK                         _______ _______ _______ _____ _____    ______ ____
ROOT
ATOM      1  C   UNL     1      -7.705   0.121 123.810  0.00  0.00    +0.000 A 
ATOM      2  N   UNL     1      -7.392  -0.986 123.159  0.00  0.00    +0.000 NA
ATOM      3  N   UNL     1      -6.992  -1.938 124.081  0.00  0.00    +0.000 NA
ATOM      4  C   UNL     1      -7.067  -1.410 125.292  0.00  0.00    +0.000 A 
ATOM      5  N   UNL     1      -7.482  -0.098 125.151  0.00  0.00    +0.000 N 
ENDROOT
BRANCH   4   6
ATOM      6  C   UNL     1      -6.863  -2.061 126.590  0.00  0.00    +0.000 A 
ATOM      7  C   UNL     1      -7.925  -2.583 127.331  0.00  0.00    +0.000 A 
ATOM      8  N   UNL     1      -7.796  -3.092 128.587  0.00  0.00    +0.000 NA
ATOM      9  C   UNL     1      -6.548  -3.059 129.115  0.00  0.00    +0.000 A 
ATOM     10  C   UNL     1      -5.490  -2.528 128.374  0.00  0.00    +0.000 A 
ATOM     11  N   UNL     1      -5.616  -2.016 127.113  0.00  0.00    +0.000 NA
BRANCH   9  12
ATOM     12  C   UNL     1      -6.375  -3.618 130.466  0.00  0.00    +0.000 A 
ATOM     13  C   UNL     1      -5.467  -4.647 130.717  0.00  0.00    +0.000 A 
ATOM     14  C   UNL     1      -5.283  -5.137 132.018  0.00  0.00    +0.000 A 
ATOM     15  C   UNL     1      -6.013  -4.642 133.118  0.00  0.00    +0.000 A 
ATOM     16  C   UNL     1      -6.948  -3.621 132.893  0.00  0.00    +0.000 A 
ATOM     17  C   UNL     1      -7.858  -2.951 133.888  0.00  0.00    +0.000 C 
ATOM     18  C   UNL     1      -7.102  -3.130 131.565  0.00  0.00    +0.000 A 
BRANCH  15  19
ATOM     19  O   UNL     1      -5.663  -5.282 134.277  0.00  0.00    +0.000 OA
ATOM     20  C   UNL     1      -4.393  -5.893 134.383  0.00  0.00    +0.000 C 
ENDBRANCH  15  19
ENDBRANCH   9  12
ENDBRANCH   4   6
BRANCH   5  21
ATOM     21  C   UNL     1      -7.582   0.844 126.178  0.00  0.00    +0.000 A 
ATOM     22  C   UNL     1      -6.474   1.586 126.553  0.00  0.00    +0.000 A 
ATOM     23  C   UNL     1      -6.640   2.539 127.550  0.00  0.00    +0.000 A 
ATOM     24  C   UNL     1      -7.892   2.691 128.142  0.00  0.00    +0.000 A 
ATOM     25  N   UNL     1      -8.968   1.962 127.775  0.00  0.00    +0.000 NA
ATOM     26  C   UNL     1      -8.806   1.059 126.790  0.00  0.00    +0.000 A 
BRANCH  24  27
ATOM     27  O   UNL     1      -8.174   3.572 129.146  0.00  0.00    +0.000 OA
ATOM     28  C   UNL     1      -9.012   3.091 130.185  0.00  0.00    +0.000 C 
ENDBRANCH  24  27
ENDBRANCH   5  21
BRANCH   1  29
ATOM     29  C   UNL     1      -8.042   1.458 123.228  0.00  0.00    +0.000 C 
BRANCH  29  31
ATOM     30  C   UNL     1      -6.736   3.422 123.265  0.00  0.00    +0.000 C 
ATOM     31  O   UNL     1      -6.829   2.079 122.794  0.00  0.00    +0.000 OA
ENDBRANCH  29  31
ENDBRANCH   1  29
TORSDOF 7
ENDMDL
