MODEL 1
REMARK VINA RESULT:      -8.6      0.000      0.000
REMARK  Name = CHEMBL372128
REMARK  14 active torsions:
REMARK  status: ('A' for Active; 'I' for Inactive)
REMARK    1  A    between atoms: C_1  and  O_2
REMARK    2  A    between atoms: O_2  and  C_3
REMARK    3  A    between atoms: C_6  and  C_7
REMARK    4  A    between atoms: C_7  and  C_8
REMARK    5  A    between atoms: C_7  and  N_15
REMARK    6  A    between atoms: N_10  and  C_11
REMARK    7  A    between atoms: C_11  and  C_12
REMARK    8  A    between atoms: C_11  and  C_13
REMARK    9  A    between atoms: C_11  and  C_14
REMARK   10  A    between atoms: C_18  and  C_19
REMARK   11  A    between atoms: CA_31  and  CB_32
REMARK   12  A    between atoms: CB_32  and  CG_33
REMARK   13  A    between atoms: CG_33  and  CD1_34
REMARK   14  A    between atoms: CG_33  and  CD2_35
REMARK                            x       y       z     vdW  Elec       q    Type
REMARK                         _______ _______ _______ _____ _____    ______ ____
ROOT
ATOM      1  N   LEU A   1      -7.889   3.470 130.619  0.00  0.00    +0.000 N 
ATOM      2  C   UNK A   2      -8.834   4.314 130.015  0.00  0.00    +0.000 C 
ATOM      3  O   UNK A   2      -9.138   4.130 128.826  0.00  0.00    +0.000 OA
ATOM      4  C   UNK A   2      -9.517   5.459 130.942  0.00  0.00    +0.000 C 
ATOM      5  N   UNK A   2     -10.007   4.706 132.083  0.00  0.00    +0.000 N 
ATOM      6  C   LEU A   1      -9.153   3.872 132.767  0.00  0.00    +0.000 C 
ATOM      7  O   LEU A   1      -9.458   3.427 133.842  0.00  0.00    +0.000 OA
ATOM      8  CA  LEU A   1      -7.776   3.718 132.069  0.00  0.00    +0.000 C 
ATOM      9  H   UNK A   2     -10.881   4.885 132.560  0.00  0.00    +0.000 HD
ENDROOT
BRANCH   4  10
ATOM     10  C   UNK A   2     -10.656   6.157 130.186  0.00  0.00    +0.000 C 
ATOM     11  C   UNK A   2     -10.146   7.428 129.595  0.00  0.00    +0.000 C 
ATOM     12  C   UNK A   2     -11.420   7.842 128.931  0.00  0.00    +0.000 A 
ATOM     13  C   UNK A   2     -12.349   7.131 128.122  0.00  0.00    +0.000 A 
ATOM     14  C   UNK A   2     -13.525   7.759 127.725  0.00  0.00    +0.000 A 
ATOM     15  C   UNK A   2     -13.664   9.028 128.195  0.00  0.00    +0.000 A 
ATOM     16  C   UNK A   2     -12.924   9.305 129.369  0.00  0.00    +0.000 A 
ATOM     17  C   UNK A   2     -12.091   8.351 129.973  0.00  0.00    +0.000 A 
ATOM     18  C   UNK A   2     -12.030   6.868 130.806  0.00  0.00    +0.000 C 
ENDBRANCH   4  10
BRANCH   1  19
ATOM     19  C   UNK A   0      -7.048   2.493 129.696  0.00  0.00    +0.000 C 
BRANCH  19  23
ATOM     20  C   UNK A   0      -6.433  -1.958 130.133  0.00  0.00    +0.000 A 
ATOM     21  C   UNK A   0      -5.340  -1.043 130.026  0.00  0.00    +0.000 A 
ATOM     22  C   UNK A   0      -5.497   0.385 130.156  0.00  0.00    +0.000 A 
ATOM     23  C   UNK A   0      -6.786   0.955 130.086  0.00  0.00    +0.000 A 
ATOM     24  C   UNK A   0      -7.838   0.001 130.191  0.00  0.00    +0.000 A 
ATOM     25  C   UNK A   0      -7.684  -1.399 130.342  0.00  0.00    +0.000 A 
BRANCH  20  27
ATOM     26  C   UNK A   0      -5.888  -4.361 130.408  0.00  0.00    +0.000 C 
ATOM     27  O   UNK A   0      -6.251  -3.224 129.583  0.00  0.00    +0.000 OA
ENDBRANCH  20  27
ENDBRANCH  19  23
BRANCH  19  28
ATOM     28  C   UNK A   0      -5.718   3.271 129.251  0.00  0.00    +0.000 C 
ATOM     29  O   UNK A   0      -4.944   3.788 130.060  0.00  0.00    +0.000 OA
ATOM     30  N   UNK A   0      -5.438   3.365 127.902  0.00  0.00    +0.000 N 
ATOM     31  H   UNK A   0      -6.234   3.352 127.276  0.00  0.00    +0.000 HD
BRANCH  30  32
ATOM     32  C   UNK A   0      -4.236   3.969 127.338  0.00  0.00    +0.000 C 
ATOM     33  C   UNK A   0      -4.365   3.866 125.822  0.00  0.00    +0.000 C 
ATOM     34  C   UNK A   0      -4.039   5.417 127.818  0.00  0.00    +0.000 C 
ATOM     35  C   UNK A   0      -3.011   3.156 127.809  0.00  0.00    +0.000 C 
ENDBRANCH  30  32
ENDBRANCH  19  28
ENDBRANCH   1  19
BRANCH   8  36
ATOM     36  CB  LEU A   1      -7.116   2.621 132.816  0.00  0.00    +0.000 C 
BRANCH  36  37
ATOM     37  CG  LEU A   1      -5.858   3.194 133.418  0.00  0.00    +0.000 C 
ATOM     38  CD1 LEU A   1      -5.973   3.487 134.874  0.00  0.00    +0.000 C 
ATOM     39  CD2 LEU A   1      -4.789   2.182 133.380  0.00  0.00    +0.000 C 
ENDBRANCH  36  37
ENDBRANCH   8  36
TORSDOF 8
ENDMDL
MODEL 2
REMARK VINA RESULT:      -8.5      2.108      2.666
REMARK  Name = CHEMBL372128
REMARK  14 active torsions:
REMARK  status: ('A' for Active; 'I' for Inactive)
REMARK    1  A    between atoms: C_1  and  O_2
REMARK    2  A    between atoms: O_2  and  C_3
REMARK    3  A    between atoms: C_6  and  C_7
REMARK    4  A    between atoms: C_7  and  C_8
REMARK    5  A    between atoms: C_7  and  N_15
REMARK    6  A    between atoms: N_10  and  C_11
REMARK    7  A    between atoms: C_11  and  C_12
REMARK    8  A    between atoms: C_11  and  C_13
REMARK    9  A    between atoms: C_11  and  C_14
REMARK   10  A    between atoms: C_18  and  C_19
REMARK   11  A    between atoms: CA_31  and  CB_32
REMARK   12  A    between atoms: CB_32  and  CG_33
REMARK   13  A    between atoms: CG_33  and  CD1_34
REMARK   14  A    between atoms: CG_33  and  CD2_35
REMARK                            x       y       z     vdW  Elec       q    Type
REMARK                         _______ _______ _______ _____ _____    ______ ____
ROOT
ATOM      1  N   LEU A   1      -7.468   4.831 131.453  0.00  0.00    +0.000 N 
ATOM      2  C   UNK A   2      -8.488   5.433 130.699  0.00  0.00    +0.000 C 
ATOM      3  O   UNK A   2      -8.439   5.375 129.460  0.00  0.00    +0.000 OA
ATOM      4  C   UNK A   2      -9.711   6.126 131.510  0.00  0.00    +0.000 C 
ATOM      5  N   UNK A   2     -10.150   5.069 132.405  0.00  0.00    +0.000 N 
ATOM      6  C   LEU A   1      -9.234   4.436 133.212  0.00  0.00    +0.000 C 
ATOM      7  O   LEU A   1      -9.596   3.735 134.121  0.00  0.00    +0.000 OA
ATOM      8  CA  LEU A   1      -7.771   4.843 132.897  0.00  0.00    +0.000 C 
ATOM      9  H   UNK A   2     -11.115   4.881 132.645  0.00  0.00    +0.000 HD
ENDROOT
BRANCH   4  10
ATOM     10  C   UNK A   2     -10.824   6.556 130.545  0.00  0.00    +0.000 C 
ATOM     11  C   UNK A   2     -10.347   7.710 129.729  0.00  0.00    +0.000 C 
ATOM     12  C   UNK A   2     -11.583   7.873 128.905  0.00  0.00    +0.000 A 
ATOM     13  C   UNK A   2     -12.395   6.936 128.208  0.00  0.00    +0.000 A 
ATOM     14  C   UNK A   2     -13.570   7.372 127.604  0.00  0.00    +0.000 A 
ATOM     15  C   UNK A   2     -13.827   8.697 127.777  0.00  0.00    +0.000 A 
ATOM     16  C   UNK A   2     -13.207   9.273 128.912  0.00  0.00    +0.000 A 
ATOM     17  C   UNK A   2     -12.370   8.536 129.764  0.00  0.00    +0.000 A 
ATOM     18  C   UNK A   2     -12.286   7.272 130.900  0.00  0.00    +0.000 C 
ENDBRANCH   4  10
BRANCH   1  19
ATOM     19  C   UNK A   0      -6.159   4.343 130.703  0.00  0.00    +0.000 C 
BRANCH  19  23
ATOM     20  C   UNK A   0      -4.528   0.366 132.082  0.00  0.00    +0.000 A 
ATOM     21  C   UNK A   0      -5.777   0.483 131.395  0.00  0.00    +0.000 A 
ATOM     22  C   UNK A   0      -6.188   1.686 130.715  0.00  0.00    +0.000 A 
ATOM     23  C   UNK A   0      -5.507   2.897 130.964  0.00  0.00    +0.000 A 
ATOM     24  C   UNK A   0      -4.273   2.726 131.655  0.00  0.00    +0.000 A 
ATOM     25  C   UNK A   0      -3.724   1.495 132.090  0.00  0.00    +0.000 A 
BRANCH  20  27
ATOM     26  C   UNK A   0      -4.685  -0.394 134.436  0.00  0.00    +0.000 C 
ATOM     27  O   UNK A   0      -4.424  -0.646 133.032  0.00  0.00    +0.000 OA
ENDBRANCH  20  27
ENDBRANCH  19  23
BRANCH  19  28
ATOM     28  C   UNK A   0      -5.094   5.540 130.757  0.00  0.00    +0.000 C 
ATOM     29  O   UNK A   0      -4.946   6.258 131.749  0.00  0.00    +0.000 OA
ATOM     30  N   UNK A   0      -4.316   5.773 129.640  0.00  0.00    +0.000 N 
ATOM     31  H   UNK A   0      -4.721   5.515 128.749  0.00  0.00    +0.000 HD
BRANCH  30  32
ATOM     32  C   UNK A   0      -3.252   6.767 129.555  0.00  0.00    +0.000 C 
ATOM     33  C   UNK A   0      -3.928   8.133 129.597  0.00  0.00    +0.000 C 
ATOM     34  C   UNK A   0      -2.206   6.590 130.669  0.00  0.00    +0.000 C 
ATOM     35  C   UNK A   0      -2.523   6.592 128.206  0.00  0.00    +0.000 C 
ENDBRANCH  30  32
ENDBRANCH  19  28
ENDBRANCH   1  19
BRANCH   8  36
ATOM     36  CB  LEU A   1      -6.955   3.892 133.689  0.00  0.00    +0.000 C 
BRANCH  36  37
ATOM     37  CG  LEU A   1      -6.075   4.716 134.594  0.00  0.00    +0.000 C 
ATOM     38  CD1 LEU A   1      -6.763   5.186 135.828  0.00  0.00    +0.000 C 
ATOM     39  CD2 LEU A   1      -4.995   3.872 135.132  0.00  0.00    +0.000 C 
ENDBRANCH  36  37
ENDBRANCH   8  36
TORSDOF 8
ENDMDL
MODEL 3
REMARK VINA RESULT:      -8.4      2.357      4.251
REMARK  Name = CHEMBL372128
REMARK  14 active torsions:
REMARK  status: ('A' for Active; 'I' for Inactive)
REMARK    1  A    between atoms: C_1  and  O_2
REMARK    2  A    between atoms: O_2  and  C_3
REMARK    3  A    between atoms: C_6  and  C_7
REMARK    4  A    between atoms: C_7  and  C_8
REMARK    5  A    between atoms: C_7  and  N_15
REMARK    6  A    between atoms: N_10  and  C_11
REMARK    7  A    between atoms: C_11  and  C_12
REMARK    8  A    between atoms: C_11  and  C_13
REMARK    9  A    between atoms: C_11  and  C_14
REMARK   10  A    between atoms: C_18  and  C_19
REMARK   11  A    between atoms: CA_31  and  CB_32
REMARK   12  A    between atoms: CB_32  and  CG_33
REMARK   13  A    between atoms: CG_33  and  CD1_34
REMARK   14  A    between atoms: CG_33  and  CD2_35
REMARK                            x       y       z     vdW  Elec       q    Type
REMARK                         _______ _______ _______ _____ _____    ______ ____
ROOT
ATOM      1  N   LEU A   1      -7.719   3.745 130.527  0.00  0.00    +0.000 N 
ATOM      2  C   UNK A   2      -8.629   4.706 130.056  0.00  0.00    +0.000 C 
ATOM      3  O   UNK A   2      -8.418   5.254 128.963  0.00  0.00    +0.000 OA
ATOM      4  C   UNK A   2      -9.945   4.998 130.959  0.00  0.00    +0.000 C 
ATOM      5  N   UNK A   2     -10.502   3.671 131.164  0.00  0.00    +0.000 N 
ATOM      6  C   LEU A   1      -9.702   2.665 131.653  0.00  0.00    +0.000 C 
ATOM      7  O   LEU A   1     -10.183   1.637 132.054  0.00  0.00    +0.000 OA
ATOM      8  CA  LEU A   1      -8.209   3.074 131.746  0.00  0.00    +0.000 C 
ATOM      9  H   UNK A   2     -11.490   3.456 131.171  0.00  0.00    +0.000 HD
ENDROOT
BRANCH   4  10
ATOM     10  C   UNK A   2     -10.920   5.917 130.212  0.00  0.00    +0.000 C 
ATOM     11  C   UNK A   2     -10.289   7.257 130.031  0.00  0.00    +0.000 C 
ATOM     12  C   UNK A   2     -11.418   7.889 129.282  0.00  0.00    +0.000 A 
ATOM     13  C   UNK A   2     -12.205   7.439 128.185  0.00  0.00    +0.000 A 
ATOM     14  C   UNK A   2     -13.280   8.211 127.758  0.00  0.00    +0.000 A 
ATOM     15  C   UNK A   2     -13.475   9.345 128.485  0.00  0.00    +0.000 A 
ATOM     16  C   UNK A   2     -12.947   9.300 129.797  0.00  0.00    +0.000 A 
ATOM     17  C   UNK A   2     -12.252   8.185 130.288  0.00  0.00    +0.000 A 
ATOM     18  C   UNK A   2     -12.367   6.550 130.746  0.00  0.00    +0.000 C 
ENDBRANCH   4  10
BRANCH   1  19
ATOM     19  C   UNK A   0      -6.325   3.597 129.786  0.00  0.00    +0.000 C 
BRANCH  19  23
ATOM     20  C   UNK A   0      -3.066   6.500 130.940  0.00  0.00    +0.000 A 
ATOM     21  C   UNK A   0      -2.782   5.178 130.475  0.00  0.00    +0.000 A 
ATOM     22  C   UNK A   0      -3.773   4.335 129.853  0.00  0.00    +0.000 A 
ATOM     23  C   UNK A   0      -5.141   4.670 129.959  0.00  0.00    +0.000 A 
ATOM     24  C   UNK A   0      -5.369   5.994 130.431  0.00  0.00    +0.000 A 
ATOM     25  C   UNK A   0      -4.373   6.936 130.790  0.00  0.00    +0.000 A 
BRANCH  20  27
ATOM     26  C   UNK A   0      -0.797   6.639 131.927  0.00  0.00    +0.000 C 
ATOM     27  O   UNK A   0      -2.190   7.040 131.877  0.00  0.00    +0.000 OA
ENDBRANCH  20  27
ENDBRANCH  19  23
BRANCH  19  28
ATOM     28  C   UNK A   0      -6.626   3.223 128.256  0.00  0.00    +0.000 C 
ATOM     29  O   UNK A   0      -7.170   2.168 127.921  0.00  0.00    +0.000 OA
ATOM     30  N   UNK A   0      -6.252   4.125 127.279  0.00  0.00    +0.000 N 
ATOM     31  H   UNK A   0      -5.461   4.718 127.494  0.00  0.00    +0.000 HD
BRANCH  30  32
ATOM     32  C   UNK A   0      -6.523   3.971 125.853  0.00  0.00    +0.000 C 
ATOM     33  C   UNK A   0      -5.662   2.810 125.368  0.00  0.00    +0.000 C 
ATOM     34  C   UNK A   0      -8.020   3.757 125.570  0.00  0.00    +0.000 C 
ATOM     35  C   UNK A   0      -6.098   5.267 125.131  0.00  0.00    +0.000 C 
ENDBRANCH  30  32
ENDBRANCH  19  28
ENDBRANCH   1  19
BRANCH   8  36
ATOM     36  CB  LEU A   1      -7.507   1.805 132.055  0.00  0.00    +0.000 C 
BRANCH  36  37
ATOM     37  CG  LEU A   1      -6.735   2.029 133.330  0.00  0.00    +0.000 C 
ATOM     38  CD1 LEU A   1      -5.316   2.419 133.107  0.00  0.00    +0.000 C 
ATOM     39  CD2 LEU A   1      -7.281   3.198 134.038  0.00  0.00    +0.000 C 
ENDBRANCH  36  37
ENDBRANCH   8  36
TORSDOF 8
ENDMDL
MODEL 4
REMARK VINA RESULT:      -8.4      2.326      2.661
REMARK  Name = CHEMBL372128
REMARK  14 active torsions:
REMARK  status: ('A' for Active; 'I' for Inactive)
REMARK    1  A    between atoms: C_1  and  O_2
REMARK    2  A    between atoms: O_2  and  C_3
REMARK    3  A    between atoms: C_6  and  C_7
REMARK    4  A    between atoms: C_7  and  C_8
REMARK    5  A    between atoms: C_7  and  N_15
REMARK    6  A    between atoms: N_10  and  C_11
REMARK    7  A    between atoms: C_11  and  C_12
REMARK    8  A    between atoms: C_11  and  C_13
REMARK    9  A    between atoms: C_11  and  C_14
REMARK   10  A    between atoms: C_18  and  C_19
REMARK   11  A    between atoms: CA_31  and  CB_32
REMARK   12  A    between atoms: CB_32  and  CG_33
REMARK   13  A    between atoms: CG_33  and  CD1_34
REMARK   14  A    between atoms: CG_33  and  CD2_35
REMARK                            x       y       z     vdW  Elec       q    Type
REMARK                         _______ _______ _______ _____ _____    ______ ____
ROOT
ATOM      1  N   LEU A   1      -7.499   2.747 129.153  0.00  0.00    +0.000 N 
ATOM      2  C   UNK A   2      -8.306   3.868 128.901  0.00  0.00    +0.000 C 
ATOM      3  O   UNK A   2      -8.415   4.286 127.737  0.00  0.00    +0.000 OA
ATOM      4  C   UNK A   2      -9.100   4.518 130.159  0.00  0.00    +0.000 C 
ATOM      5  N   UNK A   2      -9.794   3.377 130.732  0.00  0.00    +0.000 N 
ATOM      6  C   LEU A   1      -9.088   2.239 131.046  0.00  0.00    +0.000 C 
ATOM      7  O   LEU A   1      -9.579   1.381 131.732  0.00  0.00    +0.000 OA
ATOM      8  CA  LEU A   1      -7.620   2.284 130.548  0.00  0.00    +0.000 C 
ATOM      9  H   UNK A   2     -10.728   3.405 131.117  0.00  0.00    +0.000 HD
ENDROOT
BRANCH   4  10
ATOM     10  C   UNK A   2     -10.078   5.599 129.680  0.00  0.00    +0.000 C 
ATOM     11  C   UNK A   2      -9.741   6.894 130.340  0.00  0.00    +0.000 C 
ATOM     12  C   UNK A   2     -10.800   7.715 129.681  0.00  0.00    +0.000 A 
ATOM     13  C   UNK A   2     -11.219   7.821 128.325  0.00  0.00    +0.000 A 
ATOM     14  C   UNK A   2     -12.327   8.604 128.015  0.00  0.00    +0.000 A 
ATOM     15  C   UNK A   2     -12.918   9.184 129.094  0.00  0.00    +0.000 A 
ATOM     16  C   UNK A   2     -12.680   8.522 130.322  0.00  0.00    +0.000 A 
ATOM     17  C   UNK A   2     -11.871   7.379 130.414  0.00  0.00    +0.000 A 
ATOM     18  C   UNK A   2     -11.709   5.738 129.997  0.00  0.00    +0.000 C 
ENDBRANCH   4  10
BRANCH   1  19
ATOM     19  C   UNK A   0      -6.545   2.227 127.998  0.00  0.00    +0.000 C 
BRANCH  19  23
ATOM     20  C   UNK A   0      -7.140  -1.727 125.902  0.00  0.00    +0.000 A 
ATOM     21  C   UNK A   0      -5.939  -0.963 125.767  0.00  0.00    +0.000 A 
ATOM     22  C   UNK A   0      -5.617   0.151 126.623  0.00  0.00    +0.000 A 
ATOM     23  C   UNK A   0      -6.623   0.725 127.430  0.00  0.00    +0.000 A 
ATOM     24  C   UNK A   0      -7.799  -0.071 127.528  0.00  0.00    +0.000 A 
ATOM     25  C   UNK A   0      -8.017  -1.321 126.896  0.00  0.00    +0.000 A 
BRANCH  20  27
ATOM     26  C   UNK A   0      -8.869  -3.049 124.716  0.00  0.00    +0.000 C 
ATOM     27  O   UNK A   0      -7.540  -2.473 124.797  0.00  0.00    +0.000 OA
ENDBRANCH  20  27
ENDBRANCH  19  23
BRANCH  19  28
ATOM     28  C   UNK A   0      -5.053   2.696 128.353  0.00  0.00    +0.000 C 
ATOM     29  O   UNK A   0      -4.211   1.935 128.835  0.00  0.00    +0.000 OA
ATOM     30  N   UNK A   0      -4.707   4.010 128.108  0.00  0.00    +0.000 N 
ATOM     31  H   UNK A   0      -5.458   4.687 128.148  0.00  0.00    +0.000 HD
BRANCH  30  32
ATOM     32  C   UNK A   0      -3.375   4.573 128.301  0.00  0.00    +0.000 C 
ATOM     33  C   UNK A   0      -3.078   4.489 129.794  0.00  0.00    +0.000 C 
ATOM     34  C   UNK A   0      -2.316   3.856 127.446  0.00  0.00    +0.000 C 
ATOM     35  C   UNK A   0      -3.398   6.052 127.862  0.00  0.00    +0.000 C 
ENDBRANCH  30  32
ENDBRANCH  19  28
ENDBRANCH   1  19
BRANCH   8  36
ATOM     36  CB  LEU A   1      -7.124   0.904 130.768  0.00  0.00    +0.000 C 
BRANCH  36  37
ATOM     37  CG  LEU A   1      -5.990   0.997 131.757  0.00  0.00    +0.000 C 
ATOM     38  CD1 LEU A   1      -5.607   2.395 132.097  0.00  0.00    +0.000 C 
ATOM     39  CD2 LEU A   1      -6.425   0.459 133.056  0.00  0.00    +0.000 C 
ENDBRANCH  36  37
ENDBRANCH   8  36
TORSDOF 8
ENDMDL
MODEL 5
REMARK VINA RESULT:      -8.2      2.010      2.659
REMARK  Name = CHEMBL372128
REMARK  14 active torsions:
REMARK  status: ('A' for Active; 'I' for Inactive)
REMARK    1  A    between atoms: C_1  and  O_2
REMARK    2  A    between atoms: O_2  and  C_3
REMARK    3  A    between atoms: C_6  and  C_7
REMARK    4  A    between atoms: C_7  and  C_8
REMARK    5  A    between atoms: C_7  and  N_15
REMARK    6  A    between atoms: N_10  and  C_11
REMARK    7  A    between atoms: C_11  and  C_12
REMARK    8  A    between atoms: C_11  and  C_13
REMARK    9  A    between atoms: C_11  and  C_14
REMARK   10  A    between atoms: C_18  and  C_19
REMARK   11  A    between atoms: CA_31  and  CB_32
REMARK   12  A    between atoms: CB_32  and  CG_33
REMARK   13  A    between atoms: CG_33  and  CD1_34
REMARK   14  A    between atoms: CG_33  and  CD2_35
REMARK                            x       y       z     vdW  Elec       q    Type
REMARK                         _______ _______ _______ _____ _____    ______ ____
ROOT
ATOM      1  N   LEU A   1      -7.973   3.832 128.853  0.00  0.00    +0.000 N 
ATOM      2  C   UNK A   2      -8.756   4.997 128.875  0.00  0.00    +0.000 C 
ATOM      3  O   UNK A   2      -9.016   5.572 127.807  0.00  0.00    +0.000 OA
ATOM      4  C   UNK A   2      -9.326   5.490 130.313  0.00  0.00    +0.000 C 
ATOM      5  N   UNK A   2      -9.980   4.300 130.831  0.00  0.00    +0.000 N 
ATOM      6  C   LEU A   1      -9.288   3.112 130.883  0.00  0.00    +0.000 C 
ATOM      7  O   LEU A   1      -9.712   2.181 131.518  0.00  0.00    +0.000 OA
ATOM      8  CA  LEU A   1      -7.909   3.186 130.178  0.00  0.00    +0.000 C 
ATOM      9  H   UNK A   2     -10.845   4.299 131.354  0.00  0.00    +0.000 HD
ENDROOT
BRANCH   4  10
ATOM     10  C   UNK A   2     -10.314   6.651 130.134  0.00  0.00    +0.000 C 
ATOM     11  C   UNK A   2     -11.586   6.127 129.556  0.00  0.00    +0.000 C 
ATOM     12  C   UNK A   2     -12.321   7.428 129.528  0.00  0.00    +0.000 A 
ATOM     13  C   UNK A   2     -12.477   8.457 130.498  0.00  0.00    +0.000 A 
ATOM     14  C   UNK A   2     -13.141   9.628 130.147  0.00  0.00    +0.000 A 
ATOM     15  C   UNK A   2     -13.562   9.663 128.854  0.00  0.00    +0.000 A 
ATOM     16  C   UNK A   2     -12.843   8.815 127.978  0.00  0.00    +0.000 A 
ATOM     17  C   UNK A   2     -11.803   7.984 128.424  0.00  0.00    +0.000 A 
ATOM     18  C   UNK A   2     -10.229   7.930 129.068  0.00  0.00    +0.000 C 
ENDBRANCH   4  10
BRANCH   1  19
ATOM     19  C   UNK A   0      -7.224   3.449 127.509  0.00  0.00    +0.000 C 
BRANCH  19  23
ATOM     20  C   UNK A   0      -6.842  -0.967 126.652  0.00  0.00    +0.000 A 
ATOM     21  C   UNK A   0      -8.110  -0.325 126.808  0.00  0.00    +0.000 A 
ATOM     22  C   UNK A   0      -8.270   1.108 126.813  0.00  0.00    +0.000 A 
ATOM     23  C   UNK A   0      -7.138   1.936 126.974  0.00  0.00    +0.000 A 
ATOM     24  C   UNK A   0      -5.901   1.248 126.815  0.00  0.00    +0.000 A 
ATOM     25  C   UNK A   0      -5.742  -0.131 126.533  0.00  0.00    +0.000 A 
BRANCH  20  27
ATOM     26  C   UNK A   0      -7.734  -2.866 127.971  0.00  0.00    +0.000 C 
ATOM     27  O   UNK A   0      -6.747  -2.288 127.079  0.00  0.00    +0.000 OA
ENDBRANCH  20  27
ENDBRANCH  19  23
BRANCH  19  28
ATOM     28  C   UNK A   0      -5.810   4.205 127.510  0.00  0.00    +0.000 C 
ATOM     29  O   UNK A   0      -5.439   4.928 126.582  0.00  0.00    +0.000 OA
ATOM     30  N   UNK A   0      -4.976   4.029 128.597  0.00  0.00    +0.000 N 
ATOM     31  H   UNK A   0      -5.066   3.152 129.094  0.00  0.00    +0.000 HD
BRANCH  30  32
ATOM     32  C   UNK A   0      -3.696   4.703 128.786  0.00  0.00    +0.000 C 
ATOM     33  C   UNK A   0      -2.713   4.051 127.821  0.00  0.00    +0.000 C 
ATOM     34  C   UNK A   0      -3.809   6.224 128.579  0.00  0.00    +0.000 C 
ATOM     35  C   UNK A   0      -3.228   4.469 130.238  0.00  0.00    +0.000 C 
ENDBRANCH  30  32
ENDBRANCH  19  28
ENDBRANCH   1  19
BRANCH   8  36
ATOM     36  CB  LEU A   1      -7.450   1.778 130.138  0.00  0.00    +0.000 C 
BRANCH  36  37
ATOM     37  CG  LEU A   1      -6.184   1.704 130.954  0.00  0.00    +0.000 C 
ATOM     38  CD1 LEU A   1      -6.384   1.132 132.314  0.00  0.00    +0.000 C 
ATOM     39  CD2 LEU A   1      -5.256   0.743 130.336  0.00  0.00    +0.000 C 
ENDBRANCH  36  37
ENDBRANCH   8  36
TORSDOF 8
ENDMDL
MODEL 6
REMARK VINA RESULT:      -8.2      3.545      7.715
REMARK  Name = CHEMBL372128
REMARK  14 active torsions:
REMARK  status: ('A' for Active; 'I' for Inactive)
REMARK    1  A    between atoms: C_1  and  O_2
REMARK    2  A    between atoms: O_2  and  C_3
REMARK    3  A    between atoms: C_6  and  C_7
REMARK    4  A    between atoms: C_7  and  C_8
REMARK    5  A    between atoms: C_7  and  N_15
REMARK    6  A    between atoms: N_10  and  C_11
REMARK    7  A    between atoms: C_11  and  C_12
REMARK    8  A    between atoms: C_11  and  C_13
REMARK    9  A    between atoms: C_11  and  C_14
REMARK   10  A    between atoms: C_18  and  C_19
REMARK   11  A    between atoms: CA_31  and  CB_32
REMARK   12  A    between atoms: CB_32  and  CG_33
REMARK   13  A    between atoms: CG_33  and  CD1_34
REMARK   14  A    between atoms: CG_33  and  CD2_35
REMARK                            x       y       z     vdW  Elec       q    Type
REMARK                         _______ _______ _______ _____ _____    ______ ____
ROOT
ATOM      1  N   LEU A   1      -7.469   2.680 129.385  0.00  0.00    +0.000 N 
ATOM      2  C   UNK A   2      -7.536   1.980 128.170  0.00  0.00    +0.000 C 
ATOM      3  O   UNK A   2      -7.117   2.522 127.135  0.00  0.00    +0.000 OA
ATOM      4  C   UNK A   2      -8.116   0.464 128.209  0.00  0.00    +0.000 C 
ATOM      5  N   UNK A   2      -7.308  -0.168 129.238  0.00  0.00    +0.000 N 
ATOM      6  C   LEU A   1      -7.202   0.420 130.477  0.00  0.00    +0.000 C 
ATOM      7  O   LEU A   1      -6.746  -0.189 131.410  0.00  0.00    +0.000 OA
ATOM      8  CA  LEU A   1      -7.845   1.830 130.531  0.00  0.00    +0.000 C 
ATOM      9  H   UNK A   2      -6.968  -1.120 129.200  0.00  0.00    +0.000 HD
ENDROOT
BRANCH   4  10
ATOM     10  C   UNK A   2      -7.938  -0.218 126.845  0.00  0.00    +0.000 C 
ATOM     11  C   UNK A   2      -9.174  -0.020 126.033  0.00  0.00    +0.000 C 
ATOM     12  C   UNK A   2      -8.704  -0.738 124.810  0.00  0.00    +0.000 A 
ATOM     13  C   UNK A   2      -7.485  -0.678 124.078  0.00  0.00    +0.000 A 
ATOM     14  C   UNK A   2      -7.283  -1.559 123.020  0.00  0.00    +0.000 A 
ATOM     15  C   UNK A   2      -8.310  -2.427 122.815  0.00  0.00    +0.000 A 
ATOM     16  C   UNK A   2      -9.122  -2.657 123.952  0.00  0.00    +0.000 A 
ATOM     17  C   UNK A   2      -8.897  -2.012 125.177  0.00  0.00    +0.000 A 
ATOM     18  C   UNK A   2      -7.843  -1.846 126.503  0.00  0.00    +0.000 C 
ENDBRANCH   4  10
BRANCH   1  19
ATOM     19  C   UNK A   0      -7.118   4.225 129.349  0.00  0.00    +0.000 C 
BRANCH  19  23
ATOM     20  C   UNK A   0      -3.647   6.259 131.398  0.00  0.00    +0.000 A 
ATOM     21  C   UNK A   0      -4.944   6.856 131.318  0.00  0.00    +0.000 A 
ATOM     22  C   UNK A   0      -6.120   6.126 130.915  0.00  0.00    +0.000 A 
ATOM     23  C   UNK A   0      -5.982   4.870 130.285  0.00  0.00    +0.000 A 
ATOM     24  C   UNK A   0      -4.671   4.322 130.389  0.00  0.00    +0.000 A 
ATOM     25  C   UNK A   0      -3.563   4.923 131.034  0.00  0.00    +0.000 A 
BRANCH  20  27
ATOM     26  C   UNK A   0      -2.348   8.103 132.426  0.00  0.00    +0.000 C 
ATOM     27  O   UNK A   0      -2.554   7.120 131.379  0.00  0.00    +0.000 OA
ENDBRANCH  20  27
ENDBRANCH  19  23
BRANCH  19  28
ATOM     28  C   UNK A   0      -8.500   5.037 129.376  0.00  0.00    +0.000 C 
ATOM     29  O   UNK A   0      -9.065   5.428 128.352  0.00  0.00    +0.000 OA
ATOM     30  N   UNK A   0      -9.073   5.311 130.603  0.00  0.00    +0.000 N 
ATOM     31  H   UNK A   0      -8.438   5.395 131.386  0.00  0.00    +0.000 HD
BRANCH  30  32
ATOM     32  C   UNK A   0     -10.361   5.969 130.796  0.00  0.00    +0.000 C 
ATOM     33  C   UNK A   0     -10.539   6.147 132.299  0.00  0.00    +0.000 C 
ATOM     34  C   UNK A   0     -10.450   7.299 130.027  0.00  0.00    +0.000 C 
ATOM     35  C   UNK A   0     -11.470   5.046 130.249  0.00  0.00    +0.000 C 
ENDBRANCH  30  32
ENDBRANCH  19  28
ENDBRANCH   1  19
BRANCH   8  36
ATOM     36  CB  LEU A   1      -7.418   2.370 131.844  0.00  0.00    +0.000 C 
BRANCH  36  37
ATOM     37  CG  LEU A   1      -8.574   2.182 132.794  0.00  0.00    +0.000 C 
ATOM     38  CD1 LEU A   1      -8.798   3.345 133.696  0.00  0.00    +0.000 C 
ATOM     39  CD2 LEU A   1      -9.832   2.120 132.033  0.00  0.00    +0.000 C 
ENDBRANCH  36  37
ENDBRANCH   8  36
TORSDOF 8
ENDMDL
MODEL 7
REMARK VINA RESULT:      -8.0      2.490      5.216
REMARK  Name = CHEMBL372128
REMARK  14 active torsions:
REMARK  status: ('A' for Active; 'I' for Inactive)
REMARK    1  A    between atoms: C_1  and  O_2
REMARK    2  A    between atoms: O_2  and  C_3
REMARK    3  A    between atoms: C_6  and  C_7
REMARK    4  A    between atoms: C_7  and  C_8
REMARK    5  A    between atoms: C_7  and  N_15
REMARK    6  A    between atoms: N_10  and  C_11
REMARK    7  A    between atoms: C_11  and  C_12
REMARK    8  A    between atoms: C_11  and  C_13
REMARK    9  A    between atoms: C_11  and  C_14
REMARK   10  A    between atoms: C_18  and  C_19
REMARK   11  A    between atoms: CA_31  and  CB_32
REMARK   12  A    between atoms: CB_32  and  CG_33
REMARK   13  A    between atoms: CG_33  and  CD1_34
REMARK   14  A    between atoms: CG_33  and  CD2_35
REMARK                            x       y       z     vdW  Elec       q    Type
REMARK                         _______ _______ _______ _____ _____    ______ ____
ROOT
ATOM      1  N   LEU A   1      -8.105   4.553 131.959  0.00  0.00    +0.000 N 
ATOM      2  C   UNK A   2      -8.936   5.659 131.723  0.00  0.00    +0.000 C 
ATOM      3  O   UNK A   2      -8.496   6.802 131.927  0.00  0.00    +0.000 OA
ATOM      4  C   UNK A   2     -10.422   5.370 131.137  0.00  0.00    +0.000 C 
ATOM      5  N   UNK A   2     -10.158   4.540 129.973  0.00  0.00    +0.000 N 
ATOM      6  C   LEU A   1      -9.381   3.413 130.103  0.00  0.00    +0.000 C 
ATOM      7  O   LEU A   1      -9.343   2.589 129.227  0.00  0.00    +0.000 OA
ATOM      8  CA  LEU A   1      -8.723   3.293 131.502  0.00  0.00    +0.000 C 
ATOM      9  H   UNK A   2     -10.662   4.599 129.098  0.00  0.00    +0.000 HD
ENDROOT
BRANCH   4  10
ATOM     10  C   UNK A   2     -11.118   6.684 130.755  0.00  0.00    +0.000 C 
ATOM     11  C   UNK A   2     -12.478   6.382 130.222  0.00  0.00    +0.000 C 
ATOM     12  C   UNK A   2     -12.894   7.796 129.977  0.00  0.00    +0.000 A 
ATOM     13  C   UNK A   2     -12.808   8.968 130.779  0.00  0.00    +0.000 A 
ATOM     14  C   UNK A   2     -13.186  10.192 130.237  0.00  0.00    +0.000 A 
ATOM     15  C   UNK A   2     -13.592  10.125 128.940  0.00  0.00    +0.000 A 
ATOM     16  C   UNK A   2     -13.089   9.013 128.223  0.00  0.00    +0.000 A 
ATOM     17  C   UNK A   2     -12.267   8.046 128.820  0.00  0.00    +0.000 A 
ATOM     18  C   UNK A   2     -10.745   7.733 129.515  0.00  0.00    +0.000 C 
ENDBRANCH   4  10
BRANCH   1  19
ATOM     19  C   UNK A   0      -6.740   4.782 132.732  0.00  0.00    +0.000 C 
BRANCH  19  23
ATOM     20  C   UNK A   0      -6.515   6.231 137.002  0.00  0.00    +0.000 A 
ATOM     21  C   UNK A   0      -5.378   6.230 136.134  0.00  0.00    +0.000 A 
ATOM     22  C   UNK A   0      -5.479   6.031 134.710  0.00  0.00    +0.000 A 
ATOM     23  C   UNK A   0      -6.674   5.521 134.158  0.00  0.00    +0.000 A 
ATOM     24  C   UNK A   0      -7.773   5.539 135.064  0.00  0.00    +0.000 A 
ATOM     25  C   UNK A   0      -7.744   5.998 136.404  0.00  0.00    +0.000 A 
BRANCH  20  27
ATOM     26  C   UNK A   0      -5.014   5.460 138.818  0.00  0.00    +0.000 C 
ATOM     27  O   UNK A   0      -6.275   6.007 138.355  0.00  0.00    +0.000 OA
ENDBRANCH  20  27
ENDBRANCH  19  23
BRANCH  19  28
ATOM     28  C   UNK A   0      -5.673   5.343 131.676  0.00  0.00    +0.000 C 
ATOM     29  O   UNK A   0      -5.457   6.548 131.519  0.00  0.00    +0.000 OA
ATOM     30  N   UNK A   0      -4.972   4.432 130.910  0.00  0.00    +0.000 N 
ATOM     31  H   UNK A   0      -5.437   3.554 130.720  0.00  0.00    +0.000 HD
BRANCH  30  32
ATOM     32  C   UNK A   0      -3.915   4.774 129.963  0.00  0.00    +0.000 C 
ATOM     33  C   UNK A   0      -3.593   3.500 129.191  0.00  0.00    +0.000 C 
ATOM     34  C   UNK A   0      -4.320   5.938 129.043  0.00  0.00    +0.000 C 
ATOM     35  C   UNK A   0      -2.672   5.225 130.758  0.00  0.00    +0.000 C 
ENDBRANCH  30  32
ENDBRANCH  19  28
ENDBRANCH   1  19
BRANCH   8  36
ATOM     36  CB  LEU A   1      -7.763   2.173 131.353  0.00  0.00    +0.000 C 
BRANCH  36  37
ATOM     37  CG  LEU A   1      -8.170   1.110 132.342  0.00  0.00    +0.000 C 
ATOM     38  CD1 LEU A   1      -8.939  -0.009 131.731  0.00  0.00    +0.000 C 
ATOM     39  CD2 LEU A   1      -6.970   0.431 132.856  0.00  0.00    +0.000 C 
ENDBRANCH  36  37
ENDBRANCH   8  36
TORSDOF 8
ENDMDL
MODEL 8
REMARK VINA RESULT:      -8.0      2.205      2.888
REMARK  Name = CHEMBL372128
REMARK  14 active torsions:
REMARK  status: ('A' for Active; 'I' for Inactive)
REMARK    1  A    between atoms: C_1  and  O_2
REMARK    2  A    between atoms: O_2  and  C_3
REMARK    3  A    between atoms: C_6  and  C_7
REMARK    4  A    between atoms: C_7  and  C_8
REMARK    5  A    between atoms: C_7  and  N_15
REMARK    6  A    between atoms: N_10  and  C_11
REMARK    7  A    between atoms: C_11  and  C_12
REMARK    8  A    between atoms: C_11  and  C_13
REMARK    9  A    between atoms: C_11  and  C_14
REMARK   10  A    between atoms: C_18  and  C_19
REMARK   11  A    between atoms: CA_31  and  CB_32
REMARK   12  A    between atoms: CB_32  and  CG_33
REMARK   13  A    between atoms: CG_33  and  CD1_34
REMARK   14  A    between atoms: CG_33  and  CD2_35
REMARK                            x       y       z     vdW  Elec       q    Type
REMARK                         _______ _______ _______ _____ _____    ______ ____
ROOT
ATOM      1  N   LEU A   1      -7.705   2.183 130.139  0.00  0.00    +0.000 N 
ATOM      2  C   UNK A   2      -8.550   3.194 129.653  0.00  0.00    +0.000 C 
ATOM      3  O   UNK A   2      -9.524   2.882 128.951  0.00  0.00    +0.000 OA
ATOM      4  C   UNK A   2      -8.223   4.721 130.096  0.00  0.00    +0.000 C 
ATOM      5  N   UNK A   2      -8.141   4.632 131.543  0.00  0.00    +0.000 N 
ATOM      6  C   LEU A   1      -7.316   3.696 132.122  0.00  0.00    +0.000 C 
ATOM      7  O   LEU A   1      -7.047   3.754 133.294  0.00  0.00    +0.000 OA
ATOM      8  CA  LEU A   1      -6.708   2.710 131.091  0.00  0.00    +0.000 C 
ATOM      9  H   UNK A   2      -8.485   5.335 132.184  0.00  0.00    +0.000 HD
ENDROOT
BRANCH   4  10
ATOM     10  C   UNK A   2      -9.345   5.666 129.644  0.00  0.00    +0.000 C 
ATOM     11  C   UNK A   2      -9.213   6.965 130.368  0.00  0.00    +0.000 C 
ATOM     12  C   UNK A   2     -10.374   7.649 129.723  0.00  0.00    +0.000 A 
ATOM     13  C   UNK A   2     -10.786   7.754 128.365  0.00  0.00    +0.000 A 
ATOM     14  C   UNK A   2     -11.994   8.377 128.067  0.00  0.00    +0.000 A 
ATOM     15  C   UNK A   2     -12.680   8.813 129.159  0.00  0.00    +0.000 A 
ATOM     16  C   UNK A   2     -12.362   8.137 130.361  0.00  0.00    +0.000 A 
ATOM     17  C   UNK A   2     -11.393   7.125 130.419  0.00  0.00    +0.000 A 
ATOM     18  C   UNK A   2     -10.982   5.546 129.934  0.00  0.00    +0.000 C 
ENDBRANCH   4  10
BRANCH   1  19
ATOM     19  C   UNK A   0      -7.863   0.719 129.553  0.00  0.00    +0.000 C 
BRANCH  19  23
ATOM     20  C   UNK A   0      -7.185  -2.780 132.325  0.00  0.00    +0.000 A 
ATOM     21  C   UNK A   0      -7.873  -1.598 132.741  0.00  0.00    +0.000 A 
ATOM     22  C   UNK A   0      -8.335  -0.592 131.816  0.00  0.00    +0.000 A 
ATOM     23  C   UNK A   0      -7.851  -0.588 130.490  0.00  0.00    +0.000 A 
ATOM     24  C   UNK A   0      -7.169  -1.785 130.128  0.00  0.00    +0.000 A 
ATOM     25  C   UNK A   0      -6.949  -2.907 130.964  0.00  0.00    +0.000 A 
BRANCH  20  27
ATOM     26  C   UNK A   0      -5.737  -4.680 132.987  0.00  0.00    +0.000 C 
ATOM     27  O   UNK A   0      -6.433  -3.444 133.290  0.00  0.00    +0.000 OA
ENDBRANCH  20  27
ENDBRANCH  19  23
BRANCH  19  28
ATOM     28  C   UNK A   0      -6.894   0.598 128.281  0.00  0.00    +0.000 C 
ATOM     29  O   UNK A   0      -5.691   0.867 128.330  0.00  0.00    +0.000 OA
ATOM     30  N   UNK A   0      -7.439   0.177 127.084  0.00  0.00    +0.000 N 
ATOM     31  H   UNK A   0      -8.418   0.386 126.938  0.00  0.00    +0.000 HD
BRANCH  30  32
ATOM     32  C   UNK A   0      -6.682  -0.058 125.859  0.00  0.00    +0.000 C 
ATOM     33  C   UNK A   0      -6.203   1.305 125.373  0.00  0.00    +0.000 C 
ATOM     34  C   UNK A   0      -5.526  -1.050 126.076  0.00  0.00    +0.000 C 
ATOM     35  C   UNK A   0      -7.629  -0.677 124.809  0.00  0.00    +0.000 C 
ENDBRANCH  30  32
ENDBRANCH  19  28
ENDBRANCH   1  19
BRANCH   8  36
ATOM     36  CB  LEU A   1      -6.067   1.666 131.927  0.00  0.00    +0.000 C 
BRANCH  36  37
ATOM     37  CG  LEU A   1      -4.633   1.559 131.473  0.00  0.00    +0.000 C 
ATOM     38  CD1 LEU A   1      -3.660   2.167 132.422  0.00  0.00    +0.000 C 
ATOM     39  CD2 LEU A   1      -4.226   0.144 131.460  0.00  0.00    +0.000 C 
ENDBRANCH  36  37
ENDBRANCH   8  36
TORSDOF 8
ENDMDL
MODEL 9
REMARK VINA RESULT:      -7.9      1.774      4.367
REMARK  Name = CHEMBL372128
REMARK  14 active torsions:
REMARK  status: ('A' for Active; 'I' for Inactive)
REMARK    1  A    between atoms: C_1  and  O_2
REMARK    2  A    between atoms: O_2  and  C_3
REMARK    3  A    between atoms: C_6  and  C_7
REMARK    4  A    between atoms: C_7  and  C_8
REMARK    5  A    between atoms: C_7  and  N_15
REMARK    6  A    between atoms: N_10  and  C_11
REMARK    7  A    between atoms: C_11  and  C_12
REMARK    8  A    between atoms: C_11  and  C_13
REMARK    9  A    between atoms: C_11  and  C_14
REMARK   10  A    between atoms: C_18  and  C_19
REMARK   11  A    between atoms: CA_31  and  CB_32
REMARK   12  A    between atoms: CB_32  and  CG_33
REMARK   13  A    between atoms: CG_33  and  CD1_34
REMARK   14  A    between atoms: CG_33  and  CD2_35
REMARK                            x       y       z     vdW  Elec       q    Type
REMARK                         _______ _______ _______ _____ _____    ______ ____
ROOT
ATOM      1  N   LEU A   1      -7.301   3.048 130.313  0.00  0.00    +0.000 N 
ATOM      2  C   UNK A   2      -8.221   3.943 129.743  0.00  0.00    +0.000 C 
ATOM      3  O   UNK A   2      -8.465   3.869 128.529  0.00  0.00    +0.000 OA
ATOM      4  C   UNK A   2      -8.956   4.996 130.737  0.00  0.00    +0.000 C 
ATOM      5  N   UNK A   2      -9.496   4.140 131.778  0.00  0.00    +0.000 N 
ATOM      6  C   LEU A   1      -8.671   3.249 132.423  0.00  0.00    +0.000 C 
ATOM      7  O   LEU A   1      -9.025   2.705 133.437  0.00  0.00    +0.000 OA
ATOM      8  CA  LEU A   1      -7.261   3.162 131.783  0.00  0.00    +0.000 C 
ATOM      9  H   UNK A   2     -10.393   4.273 132.226  0.00  0.00    +0.000 HD
ENDROOT
BRANCH   4  10
ATOM     10  C   UNK A   2     -10.061   5.759 129.993  0.00  0.00    +0.000 C 
ATOM     11  C   UNK A   2      -9.735   7.215 129.990  0.00  0.00    +0.000 C 
ATOM     12  C   UNK A   2     -10.925   7.665 129.206  0.00  0.00    +0.000 A 
ATOM     13  C   UNK A   2     -11.519   7.176 128.008  0.00  0.00    +0.000 A 
ATOM     14  C   UNK A   2     -12.710   7.740 127.561  0.00  0.00    +0.000 A 
ATOM     15  C   UNK A   2     -13.199   8.720 128.368  0.00  0.00    +0.000 A 
ATOM     16  C   UNK A   2     -12.762   8.649 129.712  0.00  0.00    +0.000 A 
ATOM     17  C   UNK A   2     -11.868   7.663 130.159  0.00  0.00    +0.000 A 
ATOM     18  C   UNK A   2     -11.644   6.003 130.454  0.00  0.00    +0.000 C 
ENDBRANCH   4  10
BRANCH   1  19
ATOM     19  C   UNK A   0      -6.410   2.162 129.346  0.00  0.00    +0.000 C 
BRANCH  19  23
ATOM     20  C   UNK A   0      -5.318   3.976 125.359  0.00  0.00    +0.000 A 
ATOM     21  C   UNK A   0      -5.090   4.656 126.596  0.00  0.00    +0.000 A 
ATOM     22  C   UNK A   0      -5.177   4.002 127.878  0.00  0.00    +0.000 A 
ATOM     23  C   UNK A   0      -5.795   2.737 127.977  0.00  0.00    +0.000 A 
ATOM     24  C   UNK A   0      -6.005   2.105 126.718  0.00  0.00    +0.000 A 
ATOM     25  C   UNK A   0      -5.664   2.636 125.449  0.00  0.00    +0.000 A 
BRANCH  20  27
ATOM     26  C   UNK A   0      -5.638   4.212 122.912  0.00  0.00    +0.000 C 
ATOM     27  O   UNK A   0      -5.624   4.764 124.253  0.00  0.00    +0.000 OA
ENDBRANCH  20  27
ENDBRANCH  19  23
BRANCH  19  28
ATOM     28  C   UNK A   0      -7.144   0.748 129.169  0.00  0.00    +0.000 C 
ATOM     29  O   UNK A   0      -8.349   0.647 128.923  0.00  0.00    +0.000 OA
ATOM     30  N   UNK A   0      -6.389  -0.401 129.305  0.00  0.00    +0.000 N 
ATOM     31  H   UNK A   0      -5.582  -0.338 129.912  0.00  0.00    +0.000 HD
BRANCH  30  32
ATOM     32  C   UNK A   0      -6.887  -1.757 129.099  0.00  0.00    +0.000 C 
ATOM     33  C   UNK A   0      -7.887  -2.029 130.217  0.00  0.00    +0.000 C 
ATOM     34  C   UNK A   0      -7.499  -1.940 127.699  0.00  0.00    +0.000 C 
ATOM     35  C   UNK A   0      -5.701  -2.738 129.216  0.00  0.00    +0.000 C 
ENDBRANCH  30  32
ENDBRANCH  19  28
ENDBRANCH   1  19
BRANCH   8  36
ATOM     36  CB  LEU A   1      -6.631   2.002 132.458  0.00  0.00    +0.000 C 
BRANCH  36  37
ATOM     37  CG  LEU A   1      -5.384   2.511 133.136  0.00  0.00    +0.000 C 
ATOM     38  CD1 LEU A   1      -4.982   3.876 132.698  0.00  0.00    +0.000 C 
ATOM     39  CD2 LEU A   1      -5.647   2.699 134.572  0.00  0.00    +0.000 C 
ENDBRANCH  36  37
ENDBRANCH   8  36
TORSDOF 8
ENDMDL
