MODEL 1
REMARK VINA RESULT:      -8.4      0.000      0.000
REMARK  Name = CHEMBL382301
REMARK  24 active torsions:
REMARK  status: ('A' for Active; 'I' for Inactive)
REMARK    1  A    between atoms: C_1  and  C_2
REMARK    2  A    between atoms: C_2  and  O_3
REMARK    3  A    between atoms: O_3  and  C_4
REMARK    4  A    between atoms: C_7  and  C_8
REMARK    5  A    between atoms: C_8  and  C_9
REMARK    6  A    between atoms: C_18  and  C_19
REMARK    7  A    between atoms: C_25  and  C_26
REMARK    8  A    between atoms: N_28  and  C_29
REMARK    9  A    between atoms: C_29  and  C_30
REMARK   10  A    between atoms: C_29  and  C_34
REMARK   11  A    between atoms: C_30  and  C_31
REMARK   12  A    between atoms: C_31  and  C_32
REMARK   13  A    between atoms: C_32  and  N_33
REMARK   14  A    between atoms: N_36  and  C_37
REMARK   15  A    between atoms: C_37  and  C_38
REMARK   16  A    between atoms: C_44  and  C_45
REMARK   17  A    between atoms: C_45  and  C_46
REMARK   18  A    between atoms: C_52  and  C_53
REMARK   19  A    between atoms: C_53  and  C_54
REMARK   20  A    between atoms: C_53  and  O_55
REMARK   21  A    between atoms: C_59  and  C_60
REMARK   22  A    between atoms: C_60  and  C_61
REMARK   23  A    between atoms: C_60  and  C_62
REMARK   24  A    between atoms: C_62  and  C_63
REMARK                            x       y       z     vdW  Elec       q    Type
REMARK                         _______ _______ _______ _____ _____    ______ ____
ROOT
ATOM      1  C   UNL     1      -7.529   1.476 129.648  0.00  0.00    +0.000 C 
ATOM      2  N   UNL     1      -6.998   0.991 131.735  0.00  0.00    +0.000 N 
ATOM      3  C   UNL     1      -6.206   0.693 133.668  0.00  0.00    +0.000 C 
ATOM      4  O   UNL     1      -6.436  -0.389 134.625  0.00  0.00    +0.000 OA
ATOM      5  C   UNL     1      -5.224   0.993 135.558  0.00  0.00    +0.000 C 
ATOM      6  C   UNL     1      -5.016   2.409 135.681  0.00  0.00    +0.000 C 
ATOM      7  S   UNL     1      -3.767   3.426 136.664  0.00  0.00    +0.000 S 
ATOM      8  S   UNL     1      -4.137   5.269 135.977  0.00  0.00    +0.000 S 
ATOM      9  C   UNL     1      -3.005   6.630 135.876  0.00  0.00    +0.000 C 
ATOM     10  C   UNL     1      -3.287   7.857 135.003  0.00  0.00    +0.000 C 
ATOM     11  N   UNL     1      -3.070   7.586 133.571  0.00  0.00    +0.000 N 
ATOM     12  C   UNL     1      -3.821   6.742 132.791  0.00  0.00    +0.000 C 
ATOM     13  O   UNL     1      -3.264   6.461 131.730  0.00  0.00    +0.000 OA
ATOM     14  C   UNL     1      -4.832   5.785 133.381  0.00  0.00    +0.000 C 
ATOM     15  N   UNL     1      -5.976   5.925 132.618  0.00  0.00    +0.000 N 
ATOM     16  C   UNL     1      -5.937   5.657 131.234  0.00  0.00    +0.000 C 
ATOM     17  O   UNL     1      -6.767   6.080 130.432  0.00  0.00    +0.000 OA
ATOM     18  C   UNL     1      -4.863   4.854 130.640  0.00  0.00    +0.000 C 
ATOM     19  N   UNL     1      -5.318   3.563 130.396  0.00  0.00    +0.000 N 
ATOM     20  C   UNL     1      -6.088   3.385 129.385  0.00  0.00    +0.000 C 
ATOM     21  O   UNL     1      -5.790   2.274 128.905  0.00  0.00    +0.000 OA
ATOM     22  C   UNL     1      -7.161   4.460 128.912  0.00  0.00    +0.000 C 
ATOM     23  N   UNL     1      -7.037   4.228 127.641  0.00  0.00    +0.000 N 
ATOM     24  C   UNL     1      -7.401   2.739 127.864  0.00  0.00    +0.000 C 
ATOM     25  O   UNL     1      -7.209   2.849 126.584  0.00  0.00    +0.000 OA
ATOM     26  H   UNL     1      -7.588   0.520 132.818  0.00  0.00    +0.000 HD
ATOM     27  H   UNL     1      -2.262   8.056 133.126  0.00  0.00    +0.000 HD
ATOM     28  H   UNL     1      -6.743   6.351 133.165  0.00  0.00    +0.000 HD
ATOM     29  H   UNL     1      -4.774   2.725 130.574  0.00  0.00    +0.000 HD
ATOM     30  H   UNL     1      -6.772   5.032 126.917  0.00  0.00    +0.000 HD
ENDROOT
BRANCH  10  31
ATOM     31  C   UNL     1      -2.378   9.023 135.522  0.00  0.00    +0.000 C 
ATOM     32  O   UNL     1      -2.936  10.050 135.917  0.00  0.00    +0.000 OA
ATOM     33  N   UNL     1      -0.996   8.787 135.635  0.00  0.00    +0.000 N 
ATOM     34  C   UNL     1      -0.067   8.229 134.650  0.00  0.00    +0.000 C 
ATOM     35  C   UNL     1       0.961   7.544 135.512  0.00  0.00    +0.000 C 
ATOM     36  C   UNL     1       1.188   8.572 136.612  0.00  0.00    +0.000 C 
ATOM     37  C   UNL     1      -0.168   9.278 136.788  0.00  0.00    +0.000 C 
BRANCH  37  38
ATOM     38  C   UNL     1       0.099  10.769 136.705  0.00  0.00    +0.000 C 
ATOM     39  O   UNL     1      -0.356  11.449 137.627  0.00  0.00    +0.000 OA
ATOM     40  N   UNL     1       0.751  11.305 135.591  0.00  0.00    +0.000 N 
ATOM     41  H   UNL     1       0.954  10.752 134.759  0.00  0.00    +0.000 HD
BRANCH  40  42
ATOM     42  C   UNL     1       1.151  12.742 135.505  0.00  0.00    +0.000 C 
BRANCH  42  43
ATOM     43  C   UNL     1      -0.088  13.671 135.270  0.00  0.00    +0.000 C 
ATOM     44  O   UNL     1      -0.072  14.828 135.689  0.00  0.00    +0.000 OA
ATOM     45  N   UNL     1      -1.178  13.156 134.585  0.00  0.00    +0.000 N 
ATOM     46  H   UNL     1      -1.180  12.212 134.245  0.00  0.00    +0.000 HD
BRANCH  45  47
ATOM     47  C   UNL     1      -2.383  13.953 134.329  0.00  0.00    +0.000 C 
BRANCH  47  48
ATOM     48  C   UNL     1      -2.534  14.422 132.865  0.00  0.00    +0.000 C 
ATOM     49  N   UNL     1      -3.505  15.362 132.590  0.00  0.00    +0.000 N 
ATOM     50  O   UNL     1      -1.817  13.976 131.972  0.00  0.00    +0.000 OA
ATOM     51  H   UNL     1      -4.130  15.776 133.258  0.00  0.00    +0.000 HD
ATOM     52  H   UNL     1      -3.634  15.695 131.641  0.00  0.00    +0.000 HD
ENDBRANCH  47  48
ENDBRANCH  45  47
ENDBRANCH  42  43
BRANCH  42  53
ATOM     53  C   UNL     1       2.144  12.939 134.362  0.00  0.00    +0.000 C 
BRANCH  53  54
ATOM     54  C   UNL     1       2.090  11.808 133.364  0.00  0.00    +0.000 C 
BRANCH  54  55
ATOM     55  C   UNL     1       1.232  12.066 132.181  0.00  0.00    +0.000 C 
BRANCH  55  56
ATOM     56  N   UNL     1      -0.094  11.519 132.396  0.00  0.00    +0.000 NA
ATOM     57  H   UNL     1      -0.060  10.501 132.401  0.00  0.00    +0.000 HD
ATOM     58  H   UNL     1      -0.709  11.824 131.651  0.00  0.00    +0.000 HD
ENDBRANCH  55  56
ENDBRANCH  54  55
ENDBRANCH  53  54
ENDBRANCH  42  53
ENDBRANCH  40  42
ENDBRANCH  37  38
ENDBRANCH  10  31
BRANCH  22  59
ATOM     59  C   UNL     1      -8.645   4.420 129.229  0.00  0.00    +0.000 C 
ATOM     60  C   UNL     1      -9.360   5.700 128.834  0.00  0.00    +0.000 C 
BRANCH  59  61
ATOM     61  C   UNL     1      -8.819   4.067 130.690  0.00  0.00    +0.000 C 
ATOM     62  C   UNL     1      -9.867   4.801 131.467  0.00  0.00    +0.000 C 
ENDBRANCH  59  61
ENDBRANCH  22  59
BRANCH  18  63
ATOM     63  C   UNL     1      -4.436   5.718 129.471  0.00  0.00    +0.000 C 
ATOM     64  C   UNL     1      -3.051   5.355 129.105  0.00  0.00    +0.000 C 
BRANCH  63  65
ATOM     65  O   UNL     1      -4.594   7.112 129.702  0.00  0.00    +0.000 OA
ATOM     66  H   UNL     1      -3.966   7.297 130.433  0.00  0.00    +0.000 HD
ENDBRANCH  63  65
ENDBRANCH  18  63
BRANCH  14  67
ATOM     67  C   UNL     1      -4.388   4.309 133.435  0.00  0.00    +0.000 C 
BRANCH  67  68
ATOM     68  C   UNL     1      -2.946   4.060 132.927  0.00  0.00    +0.000 C 
ATOM     69  N   UNL     1      -1.882   4.605 133.584  0.00  0.00    +0.000 N 
ATOM     70  O   UNL     1      -2.727   3.339 131.962  0.00  0.00    +0.000 OA
ATOM     71  H   UNL     1      -1.896   5.200 134.389  0.00  0.00    +0.000 HD
ATOM     72  H   UNL     1      -0.944   4.701 133.257  0.00  0.00    +0.000 HD
ENDBRANCH  67  68
ENDBRANCH  14  67
BRANCH   1  73
ATOM     73  C   UNL     1      -8.249   1.110 127.556  0.00  0.00    +0.000 C 
BRANCH  73  77
ATOM     74  C   UNL     1      -7.236  -2.467 124.837  0.00  0.00    +0.000 A 
ATOM     75  C   UNL     1      -7.080  -2.134 126.169  0.00  0.00    +0.000 A 
ATOM     76  C   UNL     1      -7.925  -1.292 126.845  0.00  0.00    +0.000 A 
ATOM     77  C   UNL     1      -8.550  -0.301 126.253  0.00  0.00    +0.000 A 
ATOM     78  C   UNL     1      -8.928  -0.689 124.800  0.00  0.00    +0.000 A 
ATOM     79  C   UNL     1      -8.202  -1.784 124.130  0.00  0.00    +0.000 A 
BRANCH  74  80
ATOM     80  O   UNL     1      -6.517  -3.541 124.391  0.00  0.00    +0.000 OA
BRANCH  80  82
ATOM     81  C   UNL     1      -4.465  -4.566 123.684  0.00  0.00    +0.000 C 
ATOM     82  C   UNL     1      -5.229  -3.261 123.840  0.00  0.00    +0.000 C 
ENDBRANCH  80  82
ENDBRANCH  74  80
ENDBRANCH  73  77
ENDBRANCH   1  73
TORSDOF 20
ENDMDL
MODEL 2
REMARK VINA RESULT:      -8.1      1.093      1.614
REMARK  Name = CHEMBL382301
REMARK  24 active torsions:
REMARK  status: ('A' for Active; 'I' for Inactive)
REMARK    1  A    between atoms: C_1  and  C_2
REMARK    2  A    between atoms: C_2  and  O_3
REMARK    3  A    between atoms: O_3  and  C_4
REMARK    4  A    between atoms: C_7  and  C_8
REMARK    5  A    between atoms: C_8  and  C_9
REMARK    6  A    between atoms: C_18  and  C_19
REMARK    7  A    between atoms: C_25  and  C_26
REMARK    8  A    between atoms: N_28  and  C_29
REMARK    9  A    between atoms: C_29  and  C_30
REMARK   10  A    between atoms: C_29  and  C_34
REMARK   11  A    between atoms: C_30  and  C_31
REMARK   12  A    between atoms: C_31  and  C_32
REMARK   13  A    between atoms: C_32  and  N_33
REMARK   14  A    between atoms: N_36  and  C_37
REMARK   15  A    between atoms: C_37  and  C_38
REMARK   16  A    between atoms: C_44  and  C_45
REMARK   17  A    between atoms: C_45  and  C_46
REMARK   18  A    between atoms: C_52  and  C_53
REMARK   19  A    between atoms: C_53  and  C_54
REMARK   20  A    between atoms: C_53  and  O_55
REMARK   21  A    between atoms: C_59  and  C_60
REMARK   22  A    between atoms: C_60  and  C_61
REMARK   23  A    between atoms: C_60  and  C_62
REMARK   24  A    between atoms: C_62  and  C_63
REMARK                            x       y       z     vdW  Elec       q    Type
REMARK                         _______ _______ _______ _____ _____    ______ ____
ROOT
ATOM      1  C   UNL     1      -7.791   1.516 129.559  0.00  0.00    +0.000 C 
ATOM      2  N   UNL     1      -7.221   0.979 131.623  0.00  0.00    +0.000 N 
ATOM      3  C   UNL     1      -6.388   0.623 133.529  0.00  0.00    +0.000 C 
ATOM      4  O   UNL     1      -6.627  -0.467 134.474  0.00  0.00    +0.000 OA
ATOM      5  C   UNL     1      -5.347   0.860 135.397  0.00  0.00    +0.000 C 
ATOM      6  C   UNL     1      -5.092   2.267 135.537  0.00  0.00    +0.000 C 
ATOM      7  S   UNL     1      -3.786   3.228 136.503  0.00  0.00    +0.000 S 
ATOM      8  S   UNL     1      -4.116   5.093 135.855  0.00  0.00    +0.000 S 
ATOM      9  C   UNL     1      -2.944   6.419 135.747  0.00  0.00    +0.000 C 
ATOM     10  C   UNL     1      -3.211   7.670 134.901  0.00  0.00    +0.000 C 
ATOM     11  N   UNL     1      -3.040   7.416 133.460  0.00  0.00    +0.000 N 
ATOM     12  C   UNL     1      -3.838   6.609 132.687  0.00  0.00    +0.000 C 
ATOM     13  O   UNL     1      -3.318   6.329 131.607  0.00  0.00    +0.000 OA
ATOM     14  C   UNL     1      -4.862   5.675 133.288  0.00  0.00    +0.000 C 
ATOM     15  N   UNL     1      -6.021   5.863 132.559  0.00  0.00    +0.000 N 
ATOM     16  C   UNL     1      -6.027   5.618 131.170  0.00  0.00    +0.000 C 
ATOM     17  O   UNL     1      -6.865   6.080 130.397  0.00  0.00    +0.000 OA
ATOM     18  C   UNL     1      -4.995   4.792 130.534  0.00  0.00    +0.000 C 
ATOM     19  N   UNL     1      -5.497   3.520 130.282  0.00  0.00    +0.000 N 
ATOM     20  C   UNL     1      -6.298   3.383 129.289  0.00  0.00    +0.000 C 
ATOM     21  O   UNL     1      -6.048   2.272 128.783  0.00  0.00    +0.000 OA
ATOM     22  C   UNL     1      -7.349   4.499 128.862  0.00  0.00    +0.000 C 
ATOM     23  N   UNL     1      -7.266   4.285 127.585  0.00  0.00    +0.000 N 
ATOM     24  C   UNL     1      -7.670   2.804 127.793  0.00  0.00    +0.000 C 
ATOM     25  O   UNL     1      -7.509   2.930 126.511  0.00  0.00    +0.000 OA
ATOM     26  H   UNL     1      -7.796   0.508 132.714  0.00  0.00    +0.000 HD
ATOM     27  H   UNL     1      -2.230   7.869 133.001  0.00  0.00    +0.000 HD
ATOM     28  H   UNL     1      -6.760   6.303 133.133  0.00  0.00    +0.000 HD
ATOM     29  H   UNL     1      -4.975   2.662 130.431  0.00  0.00    +0.000 HD
ATOM     30  H   UNL     1      -6.995   5.093 126.867  0.00  0.00    +0.000 HD
ENDROOT
BRANCH  10  31
ATOM     31  C   UNL     1      -2.252   8.797 135.415  0.00  0.00    +0.000 C 
ATOM     32  O   UNL     1      -2.747   9.901 135.660  0.00  0.00    +0.000 OA
ATOM     33  N   UNL     1      -0.916   8.457 135.694  0.00  0.00    +0.000 N 
ATOM     34  C   UNL     1       0.049   7.733 134.864  0.00  0.00    +0.000 C 
ATOM     35  C   UNL     1       0.918   7.046 135.885  0.00  0.00    +0.000 C 
ATOM     36  C   UNL     1       1.131   8.149 136.913  0.00  0.00    +0.000 C 
ATOM     37  C   UNL     1      -0.164   8.982 136.884  0.00  0.00    +0.000 C 
BRANCH  37  38
ATOM     38  C   UNL     1       0.250  10.430 136.704  0.00  0.00    +0.000 C 
ATOM     39  O   UNL     1      -0.479  11.267 137.242  0.00  0.00    +0.000 OA
ATOM     40  N   UNL     1       1.346  10.754 135.899  0.00  0.00    +0.000 N 
ATOM     41  H   UNL     1       1.819  10.063 135.319  0.00  0.00    +0.000 HD
BRANCH  40  42
ATOM     42  C   UNL     1       1.876  12.146 135.782  0.00  0.00    +0.000 C 
BRANCH  42  43
ATOM     43  C   UNL     1       1.420  12.823 134.445  0.00  0.00    +0.000 C 
ATOM     44  O   UNL     1       1.384  14.051 134.362  0.00  0.00    +0.000 OA
ATOM     45  N   UNL     1       1.070  12.009 133.378  0.00  0.00    +0.000 N 
ATOM     46  H   UNL     1       1.105  11.009 133.454  0.00  0.00    +0.000 HD
BRANCH  45  47
ATOM     47  C   UNL     1       0.623  12.557 132.093  0.00  0.00    +0.000 C 
BRANCH  47  48
ATOM     48  C   UNL     1      -0.911  12.610 131.924  0.00  0.00    +0.000 C 
ATOM     49  N   UNL     1      -1.441  13.667 131.214  0.00  0.00    +0.000 N 
ATOM     50  O   UNL     1      -1.639  11.744 132.404  0.00  0.00    +0.000 OA
ATOM     51  H   UNL     1      -0.920  14.414 130.790  0.00  0.00    +0.000 HD
ATOM     52  H   UNL     1      -2.444  13.736 131.081  0.00  0.00    +0.000 HD
ENDBRANCH  47  48
ENDBRANCH  45  47
ENDBRANCH  42  43
BRANCH  42  53
ATOM     53  C   UNL     1       3.401  12.129 135.836  0.00  0.00    +0.000 C 
BRANCH  53  54
ATOM     54  C   UNL     1       3.917  12.175 137.254  0.00  0.00    +0.000 C 
BRANCH  54  55
ATOM     55  C   UNL     1       4.344  10.863 137.800  0.00  0.00    +0.000 C 
BRANCH  55  56
ATOM     56  N   UNL     1       3.313  10.322 138.665  0.00  0.00    +0.000 NA
ATOM     57  H   UNL     1       2.401  10.693 138.404  0.00  0.00    +0.000 HD
ATOM     58  H   UNL     1       3.510  10.579 139.625  0.00  0.00    +0.000 HD
ENDBRANCH  55  56
ENDBRANCH  54  55
ENDBRANCH  53  54
ENDBRANCH  42  53
ENDBRANCH  40  42
ENDBRANCH  37  38
ENDBRANCH  10  31
BRANCH  22  59
ATOM     59  C   UNL     1      -8.824   4.500 129.218  0.00  0.00    +0.000 C 
ATOM     60  C   UNL     1      -9.518   5.792 128.824  0.00  0.00    +0.000 C 
BRANCH  59  61
ATOM     61  C   UNL     1      -8.968   4.171 130.688  0.00  0.00    +0.000 C 
ATOM     62  C   UNL     1     -10.046   4.868 131.459  0.00  0.00    +0.000 C 
ENDBRANCH  59  61
ENDBRANCH  22  59
BRANCH  18  63
ATOM     63  C   UNL     1      -4.572   5.663 129.368  0.00  0.00    +0.000 C 
ATOM     64  C   UNL     1      -3.218   5.248 128.946  0.00  0.00    +0.000 C 
BRANCH  63  65
ATOM     65  O   UNL     1      -4.661   7.056 129.633  0.00  0.00    +0.000 OA
ATOM     66  H   UNL     1      -4.634   7.463 128.741  0.00  0.00    +0.000 HD
ENDBRANCH  63  65
ENDBRANCH  18  63
BRANCH  14  67
ATOM     67  C   UNL     1      -4.463   4.185 133.306  0.00  0.00    +0.000 C 
BRANCH  67  68
ATOM     68  C   UNL     1      -3.047   3.900 132.750  0.00  0.00    +0.000 C 
ATOM     69  N   UNL     1      -1.945   4.381 133.394  0.00  0.00    +0.000 N 
ATOM     70  O   UNL     1      -2.881   3.204 131.756  0.00  0.00    +0.000 OA
ATOM     71  H   UNL     1      -1.915   4.948 134.218  0.00  0.00    +0.000 HD
ATOM     72  H   UNL     1      -1.013   4.453 133.044  0.00  0.00    +0.000 HD
ENDBRANCH  67  68
ENDBRANCH  14  67
BRANCH   1  73
ATOM     73  C   UNL     1      -8.578   1.208 127.482  0.00  0.00    +0.000 C 
BRANCH  73  77
ATOM     74  C   UNL     1      -7.295  -2.301 124.789  0.00  0.00    +0.000 A 
ATOM     75  C   UNL     1      -7.371  -2.042 126.144  0.00  0.00    +0.000 A 
ATOM     76  C   UNL     1      -8.274  -1.175 126.703  0.00  0.00    +0.000 A 
ATOM     77  C   UNL     1      -8.715  -0.116 126.066  0.00  0.00    +0.000 A 
ATOM     78  C   UNL     1      -8.839  -0.408 124.547  0.00  0.00    +0.000 A 
ATOM     79  C   UNL     1      -8.069  -1.519 123.959  0.00  0.00    +0.000 A 
BRANCH  74  80
ATOM     80  O   UNL     1      -6.572  -3.402 124.420  0.00  0.00    +0.000 OA
BRANCH  80  82
ATOM     81  C   UNL     1      -4.512  -4.430 123.743  0.00  0.00    +0.000 C 
ATOM     82  C   UNL     1      -5.341  -3.156 123.739  0.00  0.00    +0.000 C 
ENDBRANCH  80  82
ENDBRANCH  74  80
ENDBRANCH  73  77
ENDBRANCH   1  73
TORSDOF 20
ENDMDL
MODEL 3
REMARK VINA RESULT:      -7.7      1.531      2.425
REMARK  Name = CHEMBL382301
REMARK  24 active torsions:
REMARK  status: ('A' for Active; 'I' for Inactive)
REMARK    1  A    between atoms: C_1  and  C_2
REMARK    2  A    between atoms: C_2  and  O_3
REMARK    3  A    between atoms: O_3  and  C_4
REMARK    4  A    between atoms: C_7  and  C_8
REMARK    5  A    between atoms: C_8  and  C_9
REMARK    6  A    between atoms: C_18  and  C_19
REMARK    7  A    between atoms: C_25  and  C_26
REMARK    8  A    between atoms: N_28  and  C_29
REMARK    9  A    between atoms: C_29  and  C_30
REMARK   10  A    between atoms: C_29  and  C_34
REMARK   11  A    between atoms: C_30  and  C_31
REMARK   12  A    between atoms: C_31  and  C_32
REMARK   13  A    between atoms: C_32  and  N_33
REMARK   14  A    between atoms: N_36  and  C_37
REMARK   15  A    between atoms: C_37  and  C_38
REMARK   16  A    between atoms: C_44  and  C_45
REMARK   17  A    between atoms: C_45  and  C_46
REMARK   18  A    between atoms: C_52  and  C_53
REMARK   19  A    between atoms: C_53  and  C_54
REMARK   20  A    between atoms: C_53  and  O_55
REMARK   21  A    between atoms: C_59  and  C_60
REMARK   22  A    between atoms: C_60  and  C_61
REMARK   23  A    between atoms: C_60  and  C_62
REMARK   24  A    between atoms: C_62  and  C_63
REMARK                            x       y       z     vdW  Elec       q    Type
REMARK                         _______ _______ _______ _____ _____    ______ ____
ROOT
ATOM      1  C   UNL     1      -7.265   1.282 129.926  0.00  0.00    +0.000 C 
ATOM      2  N   UNL     1      -6.746   1.138 132.066  0.00  0.00    +0.000 N 
ATOM      3  C   UNL     1      -5.967   1.157 134.028  0.00  0.00    +0.000 C 
ATOM      4  O   UNL     1      -6.194   0.237 135.142  0.00  0.00    +0.000 OA
ATOM      5  C   UNL     1      -5.003   1.762 135.853  0.00  0.00    +0.000 C 
ATOM      6  C   UNL     1      -4.810   3.182 135.752  0.00  0.00    +0.000 C 
ATOM      7  S   UNL     1      -3.579   4.355 136.571  0.00  0.00    +0.000 S 
ATOM      8  S   UNL     1      -3.961   6.062 135.598  0.00  0.00    +0.000 S 
ATOM      9  C   UNL     1      -2.841   7.403 135.292  0.00  0.00    +0.000 C 
ATOM     10  C   UNL     1      -3.128   8.473 134.234  0.00  0.00    +0.000 C 
ATOM     11  N   UNL     1      -2.897   7.981 132.864  0.00  0.00    +0.000 N 
ATOM     12  C   UNL     1      -3.633   7.017 132.222  0.00  0.00    +0.000 C 
ATOM     13  O   UNL     1      -3.065   6.578 131.222  0.00  0.00    +0.000 OA
ATOM     14  C   UNL     1      -4.639   6.155 132.949  0.00  0.00    +0.000 C 
ATOM     15  N   UNL     1      -5.779   6.161 132.167  0.00  0.00    +0.000 N 
ATOM     16  C   UNL     1      -5.726   5.678 130.843  0.00  0.00    +0.000 C 
ATOM     17  O   UNL     1      -6.553   5.960 129.978  0.00  0.00    +0.000 OA
ATOM     18  C   UNL     1      -4.639   4.802 130.389  0.00  0.00    +0.000 C 
ATOM     19  N   UNL     1      -5.080   3.484 130.350  0.00  0.00    +0.000 N 
ATOM     20  C   UNL     1      -5.839   3.141 129.375  0.00  0.00    +0.000 C 
ATOM     21  O   UNL     1      -5.527   1.971 129.078  0.00  0.00    +0.000 OA
ATOM     22  C   UNL     1      -6.920   4.116 128.730  0.00  0.00    +0.000 C 
ATOM     23  N   UNL     1      -6.783   3.687 127.513  0.00  0.00    +0.000 N 
ATOM     24  C   UNL     1      -7.134   2.248 127.966  0.00  0.00    +0.000 C 
ATOM     25  O   UNL     1      -6.933   2.157 126.686  0.00  0.00    +0.000 OA
ATOM     26  H   UNL     1      -7.340   0.838 133.207  0.00  0.00    +0.000 HD
ATOM     27  H   UNL     1      -2.090   8.385 132.356  0.00  0.00    +0.000 HD
ATOM     28  H   UNL     1      -6.554   6.659 132.635  0.00  0.00    +0.000 HD
ATOM     29  H   UNL     1      -4.529   2.691 130.661  0.00  0.00    +0.000 HD
ATOM     30  H   UNL     1      -6.520   4.370 126.673  0.00  0.00    +0.000 HD
ENDROOT
BRANCH  10  31
ATOM     31  C   UNL     1      -2.234   9.716 134.569  0.00  0.00    +0.000 C 
ATOM     32  O   UNL     1      -2.777  10.824 134.578  0.00  0.00    +0.000 OA
ATOM     33  N   UNL     1      -0.904   9.490 134.967  0.00  0.00    +0.000 N 
ATOM     34  C   UNL     1       0.126   8.664 134.333  0.00  0.00    +0.000 C 
ATOM     35  C   UNL     1       0.962   8.217 135.504  0.00  0.00    +0.000 C 
ATOM     36  C   UNL     1       1.085   9.501 136.314  0.00  0.00    +0.000 C 
ATOM     37  C   UNL     1      -0.233  10.258 136.069  0.00  0.00    +0.000 C 
BRANCH  37  38
ATOM     38  C   UNL     1       0.142  11.663 135.639  0.00  0.00    +0.000 C 
ATOM     39  O   UNL     1       1.281  11.801 135.187  0.00  0.00    +0.000 OA
ATOM     40  N   UNL     1      -0.748  12.722 135.842  0.00  0.00    +0.000 N 
ATOM     41  H   UNL     1      -1.605  12.617 136.383  0.00  0.00    +0.000 HD
BRANCH  40  42
ATOM     42  C   UNL     1      -0.489  14.102 135.331  0.00  0.00    +0.000 C 
BRANCH  42  43
ATOM     43  C   UNL     1       0.286  14.967 136.382  0.00  0.00    +0.000 C 
ATOM     44  O   UNL     1       1.450  15.301 136.160  0.00  0.00    +0.000 OA
ATOM     45  N   UNL     1      -0.372  15.339 137.545  0.00  0.00    +0.000 N 
ATOM     46  H   UNL     1      -1.322  15.064 137.715  0.00  0.00    +0.000 HD
BRANCH  45  47
ATOM     47  C   UNL     1       0.280  16.141 138.586  0.00  0.00    +0.000 C 
BRANCH  47  48
ATOM     48  C   UNL     1       0.999  15.310 139.670  0.00  0.00    +0.000 C 
ATOM     49  N   UNL     1       0.396  14.142 140.087  0.00  0.00    +0.000 N 
ATOM     50  O   UNL     1       2.073  15.670 140.147  0.00  0.00    +0.000 OA
ATOM     51  H   UNL     1      -0.476  13.775 139.751  0.00  0.00    +0.000 HD
ATOM     52  H   UNL     1       0.838  13.568 140.798  0.00  0.00    +0.000 HD
ENDBRANCH  47  48
ENDBRANCH  45  47
ENDBRANCH  42  43
BRANCH  42  53
ATOM     53  C   UNL     1      -1.810  14.791 134.997  0.00  0.00    +0.000 C 
BRANCH  53  54
ATOM     54  C   UNL     1      -2.519  14.125 133.842  0.00  0.00    +0.000 C 
BRANCH  54  55
ATOM     55  C   UNL     1      -2.750  15.004 132.669  0.00  0.00    +0.000 C 
BRANCH  55  56
ATOM     56  N   UNL     1      -2.117  14.443 131.491  0.00  0.00    +0.000 NA
ATOM     57  H   UNL     1      -2.412  13.478 131.355  0.00  0.00    +0.000 HD
ATOM     58  H   UNL     1      -1.110  14.466 131.606  0.00  0.00    +0.000 HD
ENDBRANCH  55  56
ENDBRANCH  54  55
ENDBRANCH  53  54
ENDBRANCH  42  53
ENDBRANCH  40  42
ENDBRANCH  37  38
ENDBRANCH  10  31
BRANCH  22  59
ATOM     59  C   UNL     1      -8.405   4.110 129.040  0.00  0.00    +0.000 C 
ATOM     60  C   UNL     1      -9.125   5.315 128.461  0.00  0.00    +0.000 C 
BRANCH  59  61
ATOM     61  C   UNL     1      -8.588   3.969 130.535  0.00  0.00    +0.000 C 
ATOM     62  C   UNL     1      -9.631   4.816 131.195  0.00  0.00    +0.000 C 
ENDBRANCH  59  61
ENDBRANCH  22  59
BRANCH  18  63
ATOM     63  C   UNL     1      -4.211   5.476 129.101  0.00  0.00    +0.000 C 
ATOM     64  C   UNL     1      -2.824   5.064 128.800  0.00  0.00    +0.000 C 
BRANCH  63  65
ATOM     65  O   UNL     1      -4.373   6.888 129.113  0.00  0.00    +0.000 OA
ATOM     66  H   UNL     1      -4.938   7.063 128.330  0.00  0.00    +0.000 HD
ENDBRANCH  63  65
ENDBRANCH  18  63
BRANCH  14  67
ATOM     67  C   UNL     1      -4.181   4.711 133.239  0.00  0.00    +0.000 C 
BRANCH  67  68
ATOM     68  C   UNL     1      -2.714   4.418 132.840  0.00  0.00    +0.000 C 
ATOM     69  N   UNL     1      -1.688   5.055 133.476  0.00  0.00    +0.000 N 
ATOM     70  O   UNL     1      -2.440   3.583 131.988  0.00  0.00    +0.000 OA
ATOM     71  H   UNL     1      -1.748   5.746 134.197  0.00  0.00    +0.000 HD
ATOM     72  H   UNL     1      -0.735   5.120 133.187  0.00  0.00    +0.000 HD
ENDBRANCH  67  68
ENDBRANCH  14  67
BRANCH   1  73
ATOM     73  C   UNL     1      -7.964   0.582 127.914  0.00  0.00    +0.000 C 
BRANCH  73  77
ATOM     74  C   UNL     1      -7.115  -2.585 124.679  0.00  0.00    +0.000 A 
ATOM     75  C   UNL     1      -6.424  -1.988 125.716  0.00  0.00    +0.000 A 
ATOM     76  C   UNL     1      -7.022  -1.506 126.851  0.00  0.00    +0.000 A 
ATOM     77  C   UNL     1      -8.241  -1.020 126.848  0.00  0.00    +0.000 A 
ATOM     78  C   UNL     1      -9.130  -1.786 125.833  0.00  0.00    +0.000 A 
ATOM     79  C   UNL     1      -8.492  -2.541 124.739  0.00  0.00    +0.000 A 
BRANCH  74  80
ATOM     80  O   UNL     1      -6.368  -3.286 123.773  0.00  0.00    +0.000 OA
BRANCH  80  82
ATOM     81  C   UNL     1      -4.446  -4.718 123.657  0.00  0.00    +0.000 C 
ATOM     82  C   UNL     1      -4.960  -3.332 124.009  0.00  0.00    +0.000 C 
ENDBRANCH  80  82
ENDBRANCH  74  80
ENDBRANCH  73  77
ENDBRANCH   1  73
TORSDOF 20
ENDMDL
MODEL 4
REMARK VINA RESULT:      -7.7      3.936      5.075
REMARK  Name = CHEMBL382301
REMARK  24 active torsions:
REMARK  status: ('A' for Active; 'I' for Inactive)
REMARK    1  A    between atoms: C_1  and  C_2
REMARK    2  A    between atoms: C_2  and  O_3
REMARK    3  A    between atoms: O_3  and  C_4
REMARK    4  A    between atoms: C_7  and  C_8
REMARK    5  A    between atoms: C_8  and  C_9
REMARK    6  A    between atoms: C_18  and  C_19
REMARK    7  A    between atoms: C_25  and  C_26
REMARK    8  A    between atoms: N_28  and  C_29
REMARK    9  A    between atoms: C_29  and  C_30
REMARK   10  A    between atoms: C_29  and  C_34
REMARK   11  A    between atoms: C_30  and  C_31
REMARK   12  A    between atoms: C_31  and  C_32
REMARK   13  A    between atoms: C_32  and  N_33
REMARK   14  A    between atoms: N_36  and  C_37
REMARK   15  A    between atoms: C_37  and  C_38
REMARK   16  A    between atoms: C_44  and  C_45
REMARK   17  A    between atoms: C_45  and  C_46
REMARK   18  A    between atoms: C_52  and  C_53
REMARK   19  A    between atoms: C_53  and  C_54
REMARK   20  A    between atoms: C_53  and  O_55
REMARK   21  A    between atoms: C_59  and  C_60
REMARK   22  A    between atoms: C_60  and  C_61
REMARK   23  A    between atoms: C_60  and  C_62
REMARK   24  A    between atoms: C_62  and  C_63
REMARK                            x       y       z     vdW  Elec       q    Type
REMARK                         _______ _______ _______ _____ _____    ______ ____
ROOT
ATOM      1  C   UNL     1      -5.934   1.030 129.360  0.00  0.00    +0.000 C 
ATOM      2  N   UNL     1      -5.031   0.115 131.154  0.00  0.00    +0.000 N 
ATOM      3  C   UNL     1      -4.054  -0.452 132.937  0.00  0.00    +0.000 C 
ATOM      4  O   UNL     1      -3.477  -1.738 133.328  0.00  0.00    +0.000 OA
ATOM      5  C   UNL     1      -3.303  -0.480 134.953  0.00  0.00    +0.000 C 
ATOM      6  C   UNL     1      -4.007   0.555 135.657  0.00  0.00    +0.000 C 
ATOM      7  S   UNL     1      -3.575   1.564 137.191  0.00  0.00    +0.000 S 
ATOM      8  S   UNL     1      -5.067   2.898 137.215  0.00  0.00    +0.000 S 
ATOM      9  C   UNL     1      -5.036   4.539 137.887  0.00  0.00    +0.000 C 
ATOM     10  C   UNL     1      -6.095   5.585 137.522  0.00  0.00    +0.000 C 
ATOM     11  N   UNL     1      -5.887   6.144 136.174  0.00  0.00    +0.000 N 
ATOM     12  C   UNL     1      -6.020   5.461 134.992  0.00  0.00    +0.000 C 
ATOM     13  O   UNL     1      -5.508   6.055 134.043  0.00  0.00    +0.000 OA
ATOM     14  C   UNL     1      -6.162   3.957 134.942  0.00  0.00    +0.000 C 
ATOM     15  N   UNL     1      -7.211   3.704 134.077  0.00  0.00    +0.000 N 
ATOM     16  C   UNL     1      -7.139   4.139 132.738  0.00  0.00    +0.000 C 
ATOM     17  O   UNL     1      -8.121   4.282 132.011  0.00  0.00    +0.000 OA
ATOM     18  C   UNL     1      -5.857   4.483 132.112  0.00  0.00    +0.000 C 
ATOM     19  N   UNL     1      -5.434   3.438 131.297  0.00  0.00    +0.000 N 
ATOM     20  C   UNL     1      -6.016   3.297 130.162  0.00  0.00    +0.000 C 
ATOM     21  O   UNL     1      -5.138   2.922 129.360  0.00  0.00    +0.000 OA
ATOM     22  C   UNL     1      -7.562   3.599 129.935  0.00  0.00    +0.000 C 
ATOM     23  N   UNL     1      -7.436   4.061 128.729  0.00  0.00    +0.000 N 
ATOM     24  C   UNL     1      -6.777   2.735 128.275  0.00  0.00    +0.000 C 
ATOM     25  O   UNL     1      -6.811   3.473 127.208  0.00  0.00    +0.000 OA
ATOM     26  H   UNL     1      -5.101  -1.021 131.824  0.00  0.00    +0.000 HD
ATOM     27  H   UNL     1      -5.588   7.134 136.124  0.00  0.00    +0.000 HD
ATOM     28  H   UNL     1      -8.023   3.305 134.577  0.00  0.00    +0.000 HD
ATOM     29  H   UNL     1      -4.475   3.112 131.242  0.00  0.00    +0.000 HD
ATOM     30  H   UNL     1      -7.792   5.077 128.445  0.00  0.00    +0.000 HD
ENDROOT
BRANCH  10  31
ATOM     31  C   UNL     1      -6.061   6.694 138.628  0.00  0.00    +0.000 C 
ATOM     32  O   UNL     1      -7.136   7.036 139.127  0.00  0.00    +0.000 OA
ATOM     33  N   UNL     1      -4.807   7.140 139.083  0.00  0.00    +0.000 N 
ATOM     34  C   UNL     1      -3.646   7.588 138.311  0.00  0.00    +0.000 C 
ATOM     35  C   UNL     1      -2.488   7.199 139.193  0.00  0.00    +0.000 C 
ATOM     36  C   UNL     1      -2.983   7.623 140.570  0.00  0.00    +0.000 C 
ATOM     37  C   UNL     1      -4.509   7.424 140.527  0.00  0.00    +0.000 C 
BRANCH  37  38
ATOM     38  C   UNL     1      -5.133   8.726 140.993  0.00  0.00    +0.000 C 
ATOM     39  O   UNL     1      -5.022   8.975 142.196  0.00  0.00    +0.000 OA
ATOM     40  N   UNL     1      -5.855   9.520 140.098  0.00  0.00    +0.000 N 
ATOM     41  H   UNL     1      -6.089   9.205 139.157  0.00  0.00    +0.000 HD
BRANCH  40  42
ATOM     42  C   UNL     1      -6.388  10.867 140.463  0.00  0.00    +0.000 C 
BRANCH  42  43
ATOM     43  C   UNL     1      -7.852  11.066 139.943  0.00  0.00    +0.000 C 
ATOM     44  O   UNL     1      -8.425  12.140 140.127  0.00  0.00    +0.000 OA
ATOM     45  N   UNL     1      -8.466  10.014 139.282  0.00  0.00    +0.000 N 
ATOM     46  H   UNL     1      -7.990   9.143 139.135  0.00  0.00    +0.000 HD
BRANCH  45  47
ATOM     47  C   UNL     1      -9.838  10.110 138.770  0.00  0.00    +0.000 C 
BRANCH  47  48
ATOM     48  C   UNL     1     -10.263   8.930 137.869  0.00  0.00    +0.000 C 
ATOM     49  N   UNL     1      -9.272   8.095 137.396  0.00  0.00    +0.000 N 
ATOM     50  O   UNL     1     -11.442   8.737 137.579  0.00  0.00    +0.000 OA
ATOM     51  H   UNL     1      -8.289   8.181 137.584  0.00  0.00    +0.000 HD
ATOM     52  H   UNL     1      -9.511   7.309 136.801  0.00  0.00    +0.000 HD
ENDBRANCH  47  48
ENDBRANCH  45  47
ENDBRANCH  42  43
BRANCH  42  53
ATOM     53  C   UNL     1      -5.498  11.958 139.871  0.00  0.00    +0.000 C 
BRANCH  53  54
ATOM     54  C   UNL     1      -4.913  11.550 138.541  0.00  0.00    +0.000 C 
BRANCH  54  55
ATOM     55  C   UNL     1      -3.437  11.682 138.447  0.00  0.00    +0.000 C 
BRANCH  55  56
ATOM     56  N   UNL     1      -2.811  11.147 139.641  0.00  0.00    +0.000 NA
ATOM     57  H   UNL     1      -1.836  11.434 139.689  0.00  0.00    +0.000 HD
ATOM     58  H   UNL     1      -2.855  10.135 139.620  0.00  0.00    +0.000 HD
ENDBRANCH  55  56
ENDBRANCH  54  55
ENDBRANCH  53  54
ENDBRANCH  42  53
ENDBRANCH  40  42
ENDBRANCH  37  38
ENDBRANCH  10  31
BRANCH  22  59
ATOM     59  C   UNL     1      -8.665   2.558 129.900  0.00  0.00    +0.000 C 
ATOM     60  C   UNL     1     -10.051   3.177 129.934  0.00  0.00    +0.000 C 
BRANCH  59  61
ATOM     61  C   UNL     1      -8.430   1.564 131.016  0.00  0.00    +0.000 C 
ATOM     62  C   UNL     1      -9.578   1.245 131.923  0.00  0.00    +0.000 C 
ENDBRANCH  59  61
ENDBRANCH  22  59
BRANCH  18  63
ATOM     63  C   UNL     1      -6.166   5.828 131.486  0.00  0.00    +0.000 C 
ATOM     64  C   UNL     1      -4.904   6.590 131.377  0.00  0.00    +0.000 C 
BRANCH  63  65
ATOM     65  O   UNL     1      -7.186   6.552 132.159  0.00  0.00    +0.000 OA
ATOM     66  H   UNL     1      -6.963   6.439 133.107  0.00  0.00    +0.000 HD
ENDBRANCH  63  65
ENDBRANCH  18  63
BRANCH  14  67
ATOM     67  C   UNL     1      -4.897   3.189 134.508  0.00  0.00    +0.000 C 
BRANCH  67  68
ATOM     68  C   UNL     1      -3.654   4.087 134.287  0.00  0.00    +0.000 C 
ATOM     69  N   UNL     1      -3.089   4.749 135.338  0.00  0.00    +0.000 N 
ATOM     70  O   UNL     1      -3.127   4.186 133.187  0.00  0.00    +0.000 OA
ATOM     71  H   UNL     1      -3.392   4.757 136.293  0.00  0.00    +0.000 HD
ATOM     72  H   UNL     1      -2.437   5.504 135.307  0.00  0.00    +0.000 HD
ENDBRANCH  67  68
ENDBRANCH  14  67
BRANCH   1  73
ATOM     73  C   UNL     1      -6.457   1.254 127.191  0.00  0.00    +0.000 C 
BRANCH  73  77
ATOM     74  C   UNL     1      -6.056  -1.778 123.747  0.00  0.00    +0.000 A 
ATOM     75  C   UNL     1      -5.878  -1.775 125.118  0.00  0.00    +0.000 A 
ATOM     76  C   UNL     1      -6.569  -0.955 125.972  0.00  0.00    +0.000 A 
ATOM     77  C   UNL     1      -6.980   0.240 125.618  0.00  0.00    +0.000 A 
ATOM     78  C   UNL     1      -7.385   0.253 124.120  0.00  0.00    +0.000 A 
ATOM     79  C   UNL     1      -6.858  -0.789 123.219  0.00  0.00    +0.000 A 
BRANCH  74  80
ATOM     80  O   UNL     1      -5.539  -2.847 123.069  0.00  0.00    +0.000 OA
BRANCH  80  82
ATOM     81  C   UNL     1      -4.365  -4.890 123.520  0.00  0.00    +0.000 C 
ATOM     82  C   UNL     1      -4.303  -3.372 123.556  0.00  0.00    +0.000 C 
ENDBRANCH  80  82
ENDBRANCH  74  80
ENDBRANCH  73  77
ENDBRANCH   1  73
TORSDOF 20
ENDMDL
MODEL 5
REMARK VINA RESULT:      -7.2      4.847     12.972
REMARK  Name = CHEMBL382301
REMARK  24 active torsions:
REMARK  status: ('A' for Active; 'I' for Inactive)
REMARK    1  A    between atoms: C_1  and  C_2
REMARK    2  A    between atoms: C_2  and  O_3
REMARK    3  A    between atoms: O_3  and  C_4
REMARK    4  A    between atoms: C_7  and  C_8
REMARK    5  A    between atoms: C_8  and  C_9
REMARK    6  A    between atoms: C_18  and  C_19
REMARK    7  A    between atoms: C_25  and  C_26
REMARK    8  A    between atoms: N_28  and  C_29
REMARK    9  A    between atoms: C_29  and  C_30
REMARK   10  A    between atoms: C_29  and  C_34
REMARK   11  A    between atoms: C_30  and  C_31
REMARK   12  A    between atoms: C_31  and  C_32
REMARK   13  A    between atoms: C_32  and  N_33
REMARK   14  A    between atoms: N_36  and  C_37
REMARK   15  A    between atoms: C_37  and  C_38
REMARK   16  A    between atoms: C_44  and  C_45
REMARK   17  A    between atoms: C_45  and  C_46
REMARK   18  A    between atoms: C_52  and  C_53
REMARK   19  A    between atoms: C_53  and  C_54
REMARK   20  A    between atoms: C_53  and  O_55
REMARK   21  A    between atoms: C_59  and  C_60
REMARK   22  A    between atoms: C_60  and  C_61
REMARK   23  A    between atoms: C_60  and  C_62
REMARK   24  A    between atoms: C_62  and  C_63
REMARK                            x       y       z     vdW  Elec       q    Type
REMARK                         _______ _______ _______ _____ _____    ______ ____
ROOT
ATOM      1  C   UNL     1      -3.550   6.790 138.935  0.00  0.00    +0.000 C 
ATOM      2  N   UNL     1      -2.042   7.438 137.459  0.00  0.00    +0.000 N 
ATOM      3  C   UNL     1      -0.659   7.764 135.898  0.00  0.00    +0.000 C 
ATOM      4  O   UNL     1       0.566   8.563 135.875  0.00  0.00    +0.000 OA
ATOM      5  C   UNL     1       0.282   7.839 133.965  0.00  0.00    +0.000 C 
ATOM      6  C   UNL     1      -0.752   7.565 133.006  0.00  0.00    +0.000 C 
ATOM      7  S   UNL     1      -0.701   6.876 131.250  0.00  0.00    +0.000 S 
ATOM      8  S   UNL     1      -2.651   6.643 130.865  0.00  0.00    +0.000 S 
ATOM      9  C   UNL     1      -3.401   5.471 129.766  0.00  0.00    +0.000 C 
ATOM     10  C   UNL     1      -4.896   5.137 129.833  0.00  0.00    +0.000 C 
ATOM     11  N   UNL     1      -5.223   4.262 130.973  0.00  0.00    +0.000 N 
ATOM     12  C   UNL     1      -5.145   4.607 132.299  0.00  0.00    +0.000 C 
ATOM     13  O   UNL     1      -5.178   3.627 133.043  0.00  0.00    +0.000 OA
ATOM     14  C   UNL     1      -4.468   5.876 132.762  0.00  0.00    +0.000 C 
ATOM     15  N   UNL     1      -5.335   6.458 133.669  0.00  0.00    +0.000 N 
ATOM     16  C   UNL     1      -5.708   5.759 134.835  0.00  0.00    +0.000 C 
ATOM     17  O   UNL     1      -6.710   6.020 135.498  0.00  0.00    +0.000 OA
ATOM     18  C   UNL     1      -4.918   4.628 135.336  0.00  0.00    +0.000 C 
ATOM     19  N   UNL     1      -4.130   5.039 136.405  0.00  0.00    +0.000 N 
ATOM     20  C   UNL     1      -4.708   5.211 137.538  0.00  0.00    +0.000 C 
ATOM     21  O   UNL     1      -3.898   4.837 138.409  0.00  0.00    +0.000 OA
ATOM     22  C   UNL     1      -6.190   5.774 137.680  0.00  0.00    +0.000 C 
ATOM     23  N   UNL     1      -6.512   5.054 138.711  0.00  0.00    +0.000 N 
ATOM     24  C   UNL     1      -5.323   5.643 139.510  0.00  0.00    +0.000 C 
ATOM     25  O   UNL     1      -5.906   4.824 140.332  0.00  0.00    +0.000 OA
ATOM     26  H   UNL     1      -1.393   8.541 137.130  0.00  0.00    +0.000 HD
ATOM     27  H   UNL     1      -5.510   3.293 130.746  0.00  0.00    +0.000 HD
ATOM     28  H   UNL     1      -5.723   7.344 133.302  0.00  0.00    +0.000 HD
ATOM     29  H   UNL     1      -3.166   4.755 136.544  0.00  0.00    +0.000 HD
ATOM     30  H   UNL     1      -7.394   4.374 138.704  0.00  0.00    +0.000 HD
ENDROOT
BRANCH  10  31
ATOM     31  C   UNL     1      -5.294   4.489 128.463  0.00  0.00    +0.000 C 
ATOM     32  O   UNL     1      -6.452   4.652 128.069  0.00  0.00    +0.000 OA
ATOM     33  N   UNL     1      -4.285   3.877 127.700  0.00  0.00    +0.000 N 
ATOM     34  C   UNL     1      -3.284   2.888 128.108  0.00  0.00    +0.000 C 
ATOM     35  C   UNL     1      -2.122   3.194 127.200  0.00  0.00    +0.000 C 
ATOM     36  C   UNL     1      -2.814   3.403 125.859  0.00  0.00    +0.000 C 
ATOM     37  C   UNL     1      -4.188   4.005 126.206  0.00  0.00    +0.000 C 
BRANCH  37  38
ATOM     38  C   UNL     1      -5.229   3.164 125.493  0.00  0.00    +0.000 C 
ATOM     39  O   UNL     1      -5.417   2.037 125.954  0.00  0.00    +0.000 OA
ATOM     40  N   UNL     1      -5.849   3.645 124.335  0.00  0.00    +0.000 N 
ATOM     41  H   UNL     1      -5.545   4.499 123.870  0.00  0.00    +0.000 HD
BRANCH  40  42
ATOM     42  C   UNL     1      -6.966   2.920 123.659  0.00  0.00    +0.000 C 
BRANCH  42  43
ATOM     43  C   UNL     1      -7.088   3.332 122.152  0.00  0.00    +0.000 C 
ATOM     44  O   UNL     1      -8.196   3.368 121.616  0.00  0.00    +0.000 OA
ATOM     45  N   UNL     1      -5.930   3.649 121.459  0.00  0.00    +0.000 N 
ATOM     46  H   UNL     1      -5.032   3.619 121.905  0.00  0.00    +0.000 HD
BRANCH  45  47
ATOM     47  C   UNL     1      -5.952   4.036 120.044  0.00  0.00    +0.000 C 
BRANCH  47  48
ATOM     48  C   UNL     1      -5.366   5.436 119.760  0.00  0.00    +0.000 C 
ATOM     49  N   UNL     1      -5.715   6.049 118.574  0.00  0.00    +0.000 N 
ATOM     50  O   UNL     1      -4.615   5.991 120.559  0.00  0.00    +0.000 OA
ATOM     51  H   UNL     1      -6.321   5.667 117.869  0.00  0.00    +0.000 HD
ATOM     52  H   UNL     1      -5.351   6.969 118.352  0.00  0.00    +0.000 HD
ENDBRANCH  47  48
ENDBRANCH  45  47
ENDBRANCH  42  43
BRANCH  42  53
ATOM     53  C   UNL     1      -8.286   3.220 124.364  0.00  0.00    +0.000 C 
BRANCH  53  54
ATOM     54  C   UNL     1      -9.053   1.961 124.688  0.00  0.00    +0.000 C 
BRANCH  54  55
ATOM     55  C   UNL     1      -8.892   1.479 126.082  0.00  0.00    +0.000 C 
BRANCH  55  56
ATOM     56  N   UNL     1      -8.415   2.554 126.931  0.00  0.00    +0.000 NA
ATOM     57  H   UNL     1      -8.071   2.182 127.814  0.00  0.00    +0.000 HD
ATOM     58  H   UNL     1      -9.174   3.198 127.118  0.00  0.00    +0.000 HD
ENDBRANCH  55  56
ENDBRANCH  54  55
ENDBRANCH  53  54
ENDBRANCH  42  53
ENDBRANCH  40  42
ENDBRANCH  37  38
ENDBRANCH  10  31
BRANCH  22  59
ATOM     59  C   UNL     1      -6.558   7.209 138.007  0.00  0.00    +0.000 C 
ATOM     60  C   UNL     1      -8.049   7.469 137.891  0.00  0.00    +0.000 C 
BRANCH  59  61
ATOM     61  C   UNL     1      -5.724   8.131 137.144  0.00  0.00    +0.000 C 
ATOM     62  C   UNL     1      -5.680   9.582 137.511  0.00  0.00    +0.000 C 
ENDBRANCH  59  61
ENDBRANCH  22  59
BRANCH  18  63
ATOM     63  C   UNL     1      -5.986   3.579 135.567  0.00  0.00    +0.000 C 
ATOM     64  C   UNL     1      -5.331   2.255 135.630  0.00  0.00    +0.000 C 
BRANCH  63  65
ATOM     65  O   UNL     1      -7.045   3.622 134.620  0.00  0.00    +0.000 OA
ATOM     66  H   UNL     1      -7.328   2.685 134.547  0.00  0.00    +0.000 HD
ENDBRANCH  63  65
ENDBRANCH  18  63
BRANCH  14  67
ATOM     67  C   UNL     1      -3.070   5.687 133.386  0.00  0.00    +0.000 C 
BRANCH  67  68
ATOM     68  C   UNL     1      -2.460   4.281 133.162  0.00  0.00    +0.000 C 
ATOM     69  N   UNL     1      -2.611   3.308 134.107  0.00  0.00    +0.000 N 
ATOM     70  O   UNL     1      -1.876   3.998 132.125  0.00  0.00    +0.000 OA
ATOM     71  H   UNL     1      -3.071   3.379 134.993  0.00  0.00    +0.000 HD
ATOM     72  H   UNL     1      -2.107   2.450 134.188  0.00  0.00    +0.000 HD
ENDBRANCH  67  68
ENDBRANCH  14  67
BRANCH   1  73
ATOM     73  C   UNL     1      -4.429   6.397 140.960  0.00  0.00    +0.000 C 
BRANCH  73  77
ATOM     74  C   UNL     1      -6.683   9.628 143.347  0.00  0.00    +0.000 A 
ATOM     75  C   UNL     1      -6.920   8.842 142.235  0.00  0.00    +0.000 A 
ATOM     76  C   UNL     1      -6.363   7.604 142.046  0.00  0.00    +0.000 A 
ATOM     77  C   UNL     1      -5.179   7.289 142.515  0.00  0.00    +0.000 A 
ATOM     78  C   UNL     1      -4.928   7.994 143.875  0.00  0.00    +0.000 A 
ATOM     79  C   UNL     1      -5.710   9.194 144.222  0.00  0.00    +0.000 A 
BRANCH  74  80
ATOM     80  O   UNL     1      -7.535  10.679 143.542  0.00  0.00    +0.000 OA
BRANCH  80  82
ATOM     81  C   UNL     1      -8.849  11.960 141.995  0.00  0.00    +0.000 C 
ATOM     82  C   UNL     1      -7.467  11.740 142.588  0.00  0.00    +0.000 C 
ENDBRANCH  80  82
ENDBRANCH  74  80
ENDBRANCH  73  77
ENDBRANCH   1  73
TORSDOF 20
ENDMDL
MODEL 6
REMARK VINA RESULT:      -7.1      1.693      2.742
REMARK  Name = CHEMBL382301
REMARK  24 active torsions:
REMARK  status: ('A' for Active; 'I' for Inactive)
REMARK    1  A    between atoms: C_1  and  C_2
REMARK    2  A    between atoms: C_2  and  O_3
REMARK    3  A    between atoms: O_3  and  C_4
REMARK    4  A    between atoms: C_7  and  C_8
REMARK    5  A    between atoms: C_8  and  C_9
REMARK    6  A    between atoms: C_18  and  C_19
REMARK    7  A    between atoms: C_25  and  C_26
REMARK    8  A    between atoms: N_28  and  C_29
REMARK    9  A    between atoms: C_29  and  C_30
REMARK   10  A    between atoms: C_29  and  C_34
REMARK   11  A    between atoms: C_30  and  C_31
REMARK   12  A    between atoms: C_31  and  C_32
REMARK   13  A    between atoms: C_32  and  N_33
REMARK   14  A    between atoms: N_36  and  C_37
REMARK   15  A    between atoms: C_37  and  C_38
REMARK   16  A    between atoms: C_44  and  C_45
REMARK   17  A    between atoms: C_45  and  C_46
REMARK   18  A    between atoms: C_52  and  C_53
REMARK   19  A    between atoms: C_53  and  C_54
REMARK   20  A    between atoms: C_53  and  O_55
REMARK   21  A    between atoms: C_59  and  C_60
REMARK   22  A    between atoms: C_60  and  C_61
REMARK   23  A    between atoms: C_60  and  C_62
REMARK   24  A    between atoms: C_62  and  C_63
REMARK                            x       y       z     vdW  Elec       q    Type
REMARK                         _______ _______ _______ _____ _____    ______ ____
ROOT
ATOM      1  C   UNL     1      -7.913   1.443 129.384  0.00  0.00    +0.000 C 
ATOM      2  N   UNL     1      -7.363   0.712 131.393  0.00  0.00    +0.000 N 
ATOM      3  C   UNL     1      -6.553   0.183 133.268  0.00  0.00    +0.000 C 
ATOM      4  O   UNL     1      -6.779  -1.004 134.092  0.00  0.00    +0.000 OA
ATOM      5  C   UNL     1      -5.549   0.252 135.169  0.00  0.00    +0.000 C 
ATOM      6  C   UNL     1      -5.332   1.642 135.457  0.00  0.00    +0.000 C 
ATOM      7  S   UNL     1      -4.068   2.530 136.540  0.00  0.00    +0.000 S 
ATOM      8  S   UNL     1      -4.434   4.443 136.080  0.00  0.00    +0.000 S 
ATOM      9  C   UNL     1      -3.295   5.802 136.130  0.00  0.00    +0.000 C 
ATOM     10  C   UNL     1      -3.579   7.125 135.411  0.00  0.00    +0.000 C 
ATOM     11  N   UNL     1      -3.379   7.024 133.954  0.00  0.00    +0.000 N 
ATOM     12  C   UNL     1      -4.142   6.282 133.088  0.00  0.00    +0.000 C 
ATOM     13  O   UNL     1      -3.598   6.126 131.995  0.00  0.00    +0.000 OA
ATOM     14  C   UNL     1      -5.152   5.267 133.572  0.00  0.00    +0.000 C 
ATOM     15  N   UNL     1      -6.304   5.502 132.844  0.00  0.00    +0.000 N 
ATOM     16  C   UNL     1      -6.281   5.399 131.437  0.00  0.00    +0.000 C 
ATOM     17  O   UNL     1      -7.117   5.918 130.700  0.00  0.00    +0.000 OA
ATOM     18  C   UNL     1      -5.217   4.667 130.740  0.00  0.00    +0.000 C 
ATOM     19  N   UNL     1      -5.682   3.416 130.350  0.00  0.00    +0.000 N 
ATOM     20  C   UNL     1      -6.463   3.363 129.334  0.00  0.00    +0.000 C 
ATOM     21  O   UNL     1      -6.177   2.315 128.722  0.00  0.00    +0.000 OA
ATOM     22  C   UNL     1      -7.536   4.492 129.003  0.00  0.00    +0.000 C 
ATOM     23  N   UNL     1      -7.426   4.411 127.712  0.00  0.00    +0.000 N 
ATOM     24  C   UNL     1      -7.796   2.908 127.761  0.00  0.00    +0.000 C 
ATOM     25  O   UNL     1      -7.617   3.168 126.502  0.00  0.00    +0.000 OA
ATOM     26  H   UNL     1      -7.944   0.118 132.419  0.00  0.00    +0.000 HD
ATOM     27  H   UNL     1      -2.573   7.540 133.560  0.00  0.00    +0.000 HD
ATOM     28  H   UNL     1      -7.063   5.863 133.446  0.00  0.00    +0.000 HD
ATOM     29  H   UNL     1      -5.141   2.561 130.421  0.00  0.00    +0.000 HD
ATOM     30  H   UNL     1      -7.164   5.294 127.085  0.00  0.00    +0.000 HD
ENDROOT
BRANCH  10  31
ATOM     31  C   UNL     1      -2.658   8.216 136.055  0.00  0.00    +0.000 C 
ATOM     32  O   UNL     1      -1.474   8.241 135.709  0.00  0.00    +0.000 OA
ATOM     33  N   UNL     1      -3.253   9.184 136.884  0.00  0.00    +0.000 N 
ATOM     34  C   UNL     1      -4.170   9.001 138.011  0.00  0.00    +0.000 C 
ATOM     35  C   UNL     1      -5.000  10.258 137.974  0.00  0.00    +0.000 C 
ATOM     36  C   UNL     1      -3.944  11.327 137.722  0.00  0.00    +0.000 C 
ATOM     37  C   UNL     1      -2.870  10.636 136.862  0.00  0.00    +0.000 C 
BRANCH  37  38
ATOM     38  C   UNL     1      -1.537  10.884 137.541  0.00  0.00    +0.000 C 
ATOM     39  O   UNL     1      -1.592  11.395 138.662  0.00  0.00    +0.000 OA
ATOM     40  N   UNL     1      -0.343  10.616 136.866  0.00  0.00    +0.000 N 
ATOM     41  H   UNL     1      -0.320  10.369 135.878  0.00  0.00    +0.000 HD
BRANCH  40  42
ATOM     42  C   UNL     1       0.995  10.723 137.521  0.00  0.00    +0.000 C 
BRANCH  42  43
ATOM     43  C   UNL     1       2.021  11.482 136.612  0.00  0.00    +0.000 C 
ATOM     44  O   UNL     1       2.946  12.111 137.127  0.00  0.00    +0.000 OA
ATOM     45  N   UNL     1       1.857  11.419 135.237  0.00  0.00    +0.000 N 
ATOM     46  H   UNL     1       1.101  10.901 134.827  0.00  0.00    +0.000 HD
BRANCH  45  47
ATOM     47  C   UNL     1       2.765  12.106 134.312  0.00  0.00    +0.000 C 
BRANCH  47  48
ATOM     48  C   UNL     1       2.114  13.269 133.532  0.00  0.00    +0.000 C 
ATOM     49  N   UNL     1       1.031  12.976 132.730  0.00  0.00    +0.000 N 
ATOM     50  O   UNL     1       2.542  14.418 133.619  0.00  0.00    +0.000 OA
ATOM     51  H   UNL     1       0.620  12.069 132.602  0.00  0.00    +0.000 HD
ATOM     52  H   UNL     1       0.577  13.714 132.201  0.00  0.00    +0.000 HD
ENDBRANCH  47  48
ENDBRANCH  45  47
ENDBRANCH  42  43
BRANCH  42  53
ATOM     53  C   UNL     1       1.539   9.330 137.828  0.00  0.00    +0.000 C 
BRANCH  53  54
ATOM     54  C   UNL     1       1.082   8.829 139.177  0.00  0.00    +0.000 C 
BRANCH  54  55
ATOM     55  C   UNL     1      -0.074   7.899 139.133  0.00  0.00    +0.000 C 
BRANCH  55  56
ATOM     56  N   UNL     1       0.120   6.910 138.090  0.00  0.00    +0.000 NA
ATOM     57  H   UNL     1      -0.476   7.117 137.291  0.00  0.00    +0.000 HD
ATOM     58  H   UNL     1      -0.117   5.992 138.448  0.00  0.00    +0.000 HD
ENDBRANCH  55  56
ENDBRANCH  54  55
ENDBRANCH  53  54
ENDBRANCH  42  53
ENDBRANCH  40  42
ENDBRANCH  37  38
ENDBRANCH  10  31
BRANCH  22  59
ATOM     59  C   UNL     1      -9.016   4.421 129.329  0.00  0.00    +0.000 C 
ATOM     60  C   UNL     1      -9.728   5.741 129.093  0.00  0.00    +0.000 C 
BRANCH  59  61
ATOM     61  C   UNL     1      -9.177   3.902 130.741  0.00  0.00    +0.000 C 
ATOM     62  C   UNL     1     -10.075   4.662 131.667  0.00  0.00    +0.000 C 
ENDBRANCH  59  61
ENDBRANCH  22  59
BRANCH  18  63
ATOM     63  C   UNL     1      -4.798   5.663 129.677  0.00  0.00    +0.000 C 
ATOM     64  C   UNL     1      -3.412   5.350 129.270  0.00  0.00    +0.000 C 
BRANCH  63  65
ATOM     65  O   UNL     1      -4.962   7.020 130.067  0.00  0.00    +0.000 OA
ATOM     66  H   UNL     1      -4.147   7.455 129.736  0.00  0.00    +0.000 HD
ENDBRANCH  63  65
ENDBRANCH  18  63
BRANCH  14  67
ATOM     67  C   UNL     1      -4.716   3.793 133.446  0.00  0.00    +0.000 C 
BRANCH  67  68
ATOM     68  C   UNL     1      -3.291   3.599 132.872  0.00  0.00    +0.000 C 
ATOM     69  N   UNL     1      -2.206   4.068 133.553  0.00  0.00    +0.000 N 
ATOM     70  O   UNL     1      -3.102   2.987 131.829  0.00  0.00    +0.000 OA
ATOM     71  H   UNL     1      -2.195   4.571 134.419  0.00  0.00    +0.000 HD
ATOM     72  H   UNL     1      -1.277   4.197 133.212  0.00  0.00    +0.000 HD
ENDBRANCH  67  68
ENDBRANCH  14  67
BRANCH   1  73
ATOM     73  C   UNL     1      -8.657   1.331 127.271  0.00  0.00    +0.000 C 
BRANCH  73  77
ATOM     74  C   UNL     1      -6.981  -1.409 123.970  0.00  0.00    +0.000 A 
ATOM     75  C   UNL     1      -6.916  -1.330 125.348  0.00  0.00    +0.000 A 
ATOM     76  C   UNL     1      -7.908  -0.792 126.126  0.00  0.00    +0.000 A 
ATOM     77  C   UNL     1      -8.680   0.182 125.704  0.00  0.00    +0.000 A 
ATOM     78  C   UNL     1      -8.953   0.039 124.183  0.00  0.00    +0.000 A 
ATOM     79  C   UNL     1      -8.034  -0.764 123.356  0.00  0.00    +0.000 A 
BRANCH  74  80
ATOM     80  O   UNL     1      -6.078  -2.238 123.365  0.00  0.00    +0.000 OA
BRANCH  80  82
ATOM     81  C   UNL     1      -4.448  -3.986 123.586  0.00  0.00    +0.000 C 
ATOM     82  C   UNL     1      -5.814  -3.479 124.021  0.00  0.00    +0.000 C 
ENDBRANCH  80  82
ENDBRANCH  74  80
ENDBRANCH  73  77
ENDBRANCH   1  73
TORSDOF 20
ENDMDL
MODEL 7
REMARK VINA RESULT:      -7.1      2.857     13.331
REMARK  Name = CHEMBL382301
REMARK  24 active torsions:
REMARK  status: ('A' for Active; 'I' for Inactive)
REMARK    1  A    between atoms: C_1  and  C_2
REMARK    2  A    between atoms: C_2  and  O_3
REMARK    3  A    between atoms: O_3  and  C_4
REMARK    4  A    between atoms: C_7  and  C_8
REMARK    5  A    between atoms: C_8  and  C_9
REMARK    6  A    between atoms: C_18  and  C_19
REMARK    7  A    between atoms: C_25  and  C_26
REMARK    8  A    between atoms: N_28  and  C_29
REMARK    9  A    between atoms: C_29  and  C_30
REMARK   10  A    between atoms: C_29  and  C_34
REMARK   11  A    between atoms: C_30  and  C_31
REMARK   12  A    between atoms: C_31  and  C_32
REMARK   13  A    between atoms: C_32  and  N_33
REMARK   14  A    between atoms: N_36  and  C_37
REMARK   15  A    between atoms: C_37  and  C_38
REMARK   16  A    between atoms: C_44  and  C_45
REMARK   17  A    between atoms: C_45  and  C_46
REMARK   18  A    between atoms: C_52  and  C_53
REMARK   19  A    between atoms: C_53  and  C_54
REMARK   20  A    between atoms: C_53  and  O_55
REMARK   21  A    between atoms: C_59  and  C_60
REMARK   22  A    between atoms: C_60  and  C_61
REMARK   23  A    between atoms: C_60  and  C_62
REMARK   24  A    between atoms: C_62  and  C_63
REMARK                            x       y       z     vdW  Elec       q    Type
REMARK                         _______ _______ _______ _____ _____    ______ ____
ROOT
ATOM      1  C   UNL     1      -2.390   8.252 136.949  0.00  0.00    +0.000 C 
ATOM      2  N   UNL     1      -2.723   6.293 137.908  0.00  0.00    +0.000 N 
ATOM      3  C   UNL     1      -3.281   4.376 138.594  0.00  0.00    +0.000 C 
ATOM      4  O   UNL     1      -3.202   3.794 139.934  0.00  0.00    +0.000 OA
ATOM      5  C   UNL     1      -3.873   2.310 138.670  0.00  0.00    +0.000 C 
ATOM      6  C   UNL     1      -3.691   1.792 137.343  0.00  0.00    +0.000 C 
ATOM      7  S   UNL     1      -4.483   0.345 136.427  0.00  0.00    +0.000 S 
ATOM      8  S   UNL     1      -3.755   0.605 134.581  0.00  0.00    +0.000 S 
ATOM      9  C   UNL     1      -4.502   0.119 133.048  0.00  0.00    +0.000 C 
ATOM     10  C   UNL     1      -4.042   0.693 131.703  0.00  0.00    +0.000 C 
ATOM     11  N   UNL     1      -4.524   2.069 131.489  0.00  0.00    +0.000 N 
ATOM     12  C   UNL     1      -4.134   3.176 132.201  0.00  0.00    +0.000 C 
ATOM     13  O   UNL     1      -4.890   4.133 132.035  0.00  0.00    +0.000 OA
ATOM     14  C   UNL     1      -3.329   3.072 133.476  0.00  0.00    +0.000 C 
ATOM     15  N   UNL     1      -2.308   3.996 133.356  0.00  0.00    +0.000 N 
ATOM     16  C   UNL     1      -2.612   5.363 133.189  0.00  0.00    +0.000 C 
ATOM     17  O   UNL     1      -1.825   6.188 132.729  0.00  0.00    +0.000 OA
ATOM     18  C   UNL     1      -3.930   5.903 133.541  0.00  0.00    +0.000 C 
ATOM     19  N   UNL     1      -3.861   6.555 134.767  0.00  0.00    +0.000 N 
ATOM     20  C   UNL     1      -3.315   7.716 134.793  0.00  0.00    +0.000 C 
ATOM     21  O   UNL     1      -3.954   8.388 135.627  0.00  0.00    +0.000 OA
ATOM     22  C   UNL     1      -2.081   8.116 133.872  0.00  0.00    +0.000 C 
ATOM     23  N   UNL     1      -2.441   9.349 133.687  0.00  0.00    +0.000 N 
ATOM     24  C   UNL     1      -2.444   9.591 135.217  0.00  0.00    +0.000 C 
ATOM     25  O   UNL     1      -2.781  10.732 134.697  0.00  0.00    +0.000 OA
ATOM     26  H   UNL     1      -2.126   5.511 138.789  0.00  0.00    +0.000 HD
ATOM     27  H   UNL     1      -5.239   2.201 130.752  0.00  0.00    +0.000 HD
ATOM     28  H   UNL     1      -1.388   3.532 133.278  0.00  0.00    +0.000 HD
ATOM     29  H   UNL     1      -4.571   6.486 135.490  0.00  0.00    +0.000 HD
ATOM     30  H   UNL     1      -2.592   9.774 132.669  0.00  0.00    +0.000 HD
ENDROOT
BRANCH  10  31
ATOM     31  C   UNL     1      -4.538  -0.283 130.582  0.00  0.00    +0.000 C 
ATOM     32  O   UNL     1      -3.682  -0.854 129.902  0.00  0.00    +0.000 OA
ATOM     33  N   UNL     1      -5.916  -0.555 130.500  0.00  0.00    +0.000 N 
ATOM     34  C   UNL     1      -7.045   0.376 130.473  0.00  0.00    +0.000 C 
ATOM     35  C   UNL     1      -8.147  -0.415 131.128  0.00  0.00    +0.000 C 
ATOM     36  C   UNL     1      -7.980  -1.785 130.483  0.00  0.00    +0.000 C 
ATOM     37  C   UNL     1      -6.469  -1.923 130.220  0.00  0.00    +0.000 C 
BRANCH  37  38
ATOM     38  C   UNL     1      -6.312  -2.314 128.762  0.00  0.00    +0.000 C 
ATOM     39  O   UNL     1      -5.353  -3.043 128.503  0.00  0.00    +0.000 OA
ATOM     40  N   UNL     1      -7.174  -1.788 127.796  0.00  0.00    +0.000 N 
ATOM     41  H   UNL     1      -7.841  -1.047 128.007  0.00  0.00    +0.000 HD
BRANCH  40  42
ATOM     42  C   UNL     1      -7.149  -2.227 126.369  0.00  0.00    +0.000 C 
BRANCH  42  43
ATOM     43  C   UNL     1      -6.820  -1.035 125.406  0.00  0.00    +0.000 C 
ATOM     44  O   UNL     1      -5.686  -0.920 124.941  0.00  0.00    +0.000 OA
ATOM     45  N   UNL     1      -7.829  -0.135 125.101  0.00  0.00    +0.000 N 
ATOM     46  H   UNL     1      -8.751  -0.239 125.483  0.00  0.00    +0.000 HD
BRANCH  45  47
ATOM     47  C   UNL     1      -7.607   1.014 124.217  0.00  0.00    +0.000 C 
BRANCH  47  48
ATOM     48  C   UNL     1      -8.870   1.860 123.947  0.00  0.00    +0.000 C 
ATOM     49  N   UNL     1     -10.096   1.268 124.163  0.00  0.00    +0.000 N 
ATOM     50  O   UNL     1      -8.791   3.022 123.553  0.00  0.00    +0.000 OA
ATOM     51  H   UNL     1     -10.250   0.329 124.484  0.00  0.00    +0.000 HD
ATOM     52  H   UNL     1     -10.949   1.792 123.997  0.00  0.00    +0.000 HD
ENDBRANCH  47  48
ENDBRANCH  45  47
ENDBRANCH  42  43
BRANCH  42  53
ATOM     53  C   UNL     1      -8.501  -2.819 125.981  0.00  0.00    +0.000 C 
BRANCH  53  54
ATOM     54  C   UNL     1      -8.404  -3.698 124.757  0.00  0.00    +0.000 C 
BRANCH  54  55
ATOM     55  C   UNL     1      -9.406  -3.404 123.702  0.00  0.00    +0.000 C 
BRANCH  55  56
ATOM     56  N   UNL     1      -9.677  -1.980 123.653  0.00  0.00    +0.000 NA
ATOM     57  H   UNL     1      -9.634  -1.578 124.588  0.00  0.00    +0.000 HD
ATOM     58  H   UNL     1     -10.602  -1.825 123.271  0.00  0.00    +0.000 HD
ENDBRANCH  55  56
ENDBRANCH  54  55
ENDBRANCH  53  54
ENDBRANCH  42  53
ENDBRANCH  40  42
ENDBRANCH  37  38
ENDBRANCH  10  31
BRANCH  22  59
ATOM     59  C   UNL     1      -0.628   8.137 134.309  0.00  0.00    +0.000 C 
ATOM     60  C   UNL     1       0.327   8.349 133.147  0.00  0.00    +0.000 C 
BRANCH  59  61
ATOM     61  C   UNL     1      -0.339   6.876 135.094  0.00  0.00    +0.000 C 
ATOM     62  C   UNL     1       0.819   6.892 136.042  0.00  0.00    +0.000 C 
ENDBRANCH  59  61
ENDBRANCH  22  59
BRANCH  18  63
ATOM     63  C   UNL     1      -4.283   6.700 132.301  0.00  0.00    +0.000 C 
ATOM     64  C   UNL     1      -5.749   6.646 132.117  0.00  0.00    +0.000 C 
BRANCH  63  65
ATOM     65  O   UNL     1      -3.570   6.297 131.140  0.00  0.00    +0.000 OA
ATOM     66  H   UNL     1      -3.443   5.333 131.270  0.00  0.00    +0.000 HD
ENDBRANCH  63  65
ENDBRANCH  18  63
BRANCH  14  67
ATOM     67  C   UNL     1      -4.125   3.301 134.777  0.00  0.00    +0.000 C 
BRANCH  67  68
ATOM     68  C   UNL     1      -5.661   3.320 134.587  0.00  0.00    +0.000 C 
ATOM     69  N   UNL     1      -6.375   4.448 134.868  0.00  0.00    +0.000 N 
ATOM     70  O   UNL     1      -6.260   2.350 134.141  0.00  0.00    +0.000 OA
ATOM     71  H   UNL     1      -6.032   5.319 135.223  0.00  0.00    +0.000 HD
ATOM     72  H   UNL     1      -7.362   4.534 134.991  0.00  0.00    +0.000 HD
ENDBRANCH  67  68
ENDBRANCH  14  67
BRANCH   1  73
ATOM     73  C   UNL     1      -2.094  10.471 136.821  0.00  0.00    +0.000 C 
BRANCH  73  77
ATOM     74  C   UNL     1       1.267  13.565 136.231  0.00  0.00    +0.000 A 
ATOM     75  C   UNL     1       0.090  13.217 135.597  0.00  0.00    +0.000 A 
ATOM     76  C   UNL     1      -0.987  12.666 136.241  0.00  0.00    +0.000 A 
ATOM     77  C   UNL     1      -0.854  11.892 137.293  0.00  0.00    +0.000 A 
ATOM     78  C   UNL     1       0.347  12.355 138.159  0.00  0.00    +0.000 A 
ATOM     79  C   UNL     1       1.403  13.182 137.549  0.00  0.00    +0.000 A 
BRANCH  74  80
ATOM     80  O   UNL     1       2.117  14.378 135.534  0.00  0.00    +0.000 OA
BRANCH  80  82
ATOM     81  C   UNL     1       3.413  12.808 134.264  0.00  0.00    +0.000 C 
ATOM     82  C   UNL     1       2.438  13.972 134.203  0.00  0.00    +0.000 C 
ENDBRANCH  80  82
ENDBRANCH  74  80
ENDBRANCH  73  77
ENDBRANCH   1  73
TORSDOF 20
ENDMDL
MODEL 8
REMARK VINA RESULT:      -7.0      3.328     13.463
REMARK  Name = CHEMBL382301
REMARK  24 active torsions:
REMARK  status: ('A' for Active; 'I' for Inactive)
REMARK    1  A    between atoms: C_1  and  C_2
REMARK    2  A    between atoms: C_2  and  O_3
REMARK    3  A    between atoms: O_3  and  C_4
REMARK    4  A    between atoms: C_7  and  C_8
REMARK    5  A    between atoms: C_8  and  C_9
REMARK    6  A    between atoms: C_18  and  C_19
REMARK    7  A    between atoms: C_25  and  C_26
REMARK    8  A    between atoms: N_28  and  C_29
REMARK    9  A    between atoms: C_29  and  C_30
REMARK   10  A    between atoms: C_29  and  C_34
REMARK   11  A    between atoms: C_30  and  C_31
REMARK   12  A    between atoms: C_31  and  C_32
REMARK   13  A    between atoms: C_32  and  N_33
REMARK   14  A    between atoms: N_36  and  C_37
REMARK   15  A    between atoms: C_37  and  C_38
REMARK   16  A    between atoms: C_44  and  C_45
REMARK   17  A    between atoms: C_45  and  C_46
REMARK   18  A    between atoms: C_52  and  C_53
REMARK   19  A    between atoms: C_53  and  C_54
REMARK   20  A    between atoms: C_53  and  O_55
REMARK   21  A    between atoms: C_59  and  C_60
REMARK   22  A    between atoms: C_60  and  C_61
REMARK   23  A    between atoms: C_60  and  C_62
REMARK   24  A    between atoms: C_62  and  C_63
REMARK                            x       y       z     vdW  Elec       q    Type
REMARK                         _______ _______ _______ _____ _____    ______ ____
ROOT
ATOM      1  C   UNL     1      -2.552   8.070 137.167  0.00  0.00    +0.000 C 
ATOM      2  N   UNL     1      -2.880   6.082 138.068  0.00  0.00    +0.000 N 
ATOM      3  C   UNL     1      -3.427   4.142 138.693  0.00  0.00    +0.000 C 
ATOM      4  O   UNL     1      -3.365   3.525 140.018  0.00  0.00    +0.000 OA
ATOM      5  C   UNL     1      -3.998   2.068 138.703  0.00  0.00    +0.000 C 
ATOM      6  C   UNL     1      -3.787   1.588 137.366  0.00  0.00    +0.000 C 
ATOM      7  S   UNL     1      -4.547   0.157 136.398  0.00  0.00    +0.000 S 
ATOM      8  S   UNL     1      -3.790   0.475 134.572  0.00  0.00    +0.000 S 
ATOM      9  C   UNL     1      -4.506   0.023 133.015  0.00  0.00    +0.000 C 
ATOM     10  C   UNL     1      -4.029   0.637 131.694  0.00  0.00    +0.000 C 
ATOM     11  N   UNL     1      -4.523   2.014 131.508  0.00  0.00    +0.000 N 
ATOM     12  C   UNL     1      -4.158   3.105 132.256  0.00  0.00    +0.000 C 
ATOM     13  O   UNL     1      -4.921   4.058 132.102  0.00  0.00    +0.000 OA
ATOM     14  C   UNL     1      -3.374   2.975 133.541  0.00  0.00    +0.000 C 
ATOM     15  N   UNL     1      -2.361   3.913 133.464  0.00  0.00    +0.000 N 
ATOM     16  C   UNL     1      -2.677   5.281 133.329  0.00  0.00    +0.000 C 
ATOM     17  O   UNL     1      -1.892   6.126 132.904  0.00  0.00    +0.000 OA
ATOM     18  C   UNL     1      -4.007   5.797 133.672  0.00  0.00    +0.000 C 
ATOM     19  N   UNL     1      -3.966   6.417 134.916  0.00  0.00    +0.000 N 
ATOM     20  C   UNL     1      -3.434   7.582 134.983  0.00  0.00    +0.000 C 
ATOM     21  O   UNL     1      -4.095   8.225 135.823  0.00  0.00    +0.000 OA
ATOM     22  C   UNL     1      -2.189   8.020 134.094  0.00  0.00    +0.000 C 
ATOM     23  N   UNL     1      -2.559   9.254 133.936  0.00  0.00    +0.000 N 
ATOM     24  C   UNL     1      -2.591   9.455 135.472  0.00  0.00    +0.000 C 
ATOM     25  O   UNL     1      -2.933  10.605 134.977  0.00  0.00    +0.000 OA
ATOM     26  H   UNL     1      -2.289   5.284 138.938  0.00  0.00    +0.000 HD
ATOM     27  H   UNL     1      -5.227   2.157 130.763  0.00  0.00    +0.000 HD
ATOM     28  H   UNL     1      -1.434   3.462 133.390  0.00  0.00    +0.000 HD
ATOM     29  H   UNL     1      -4.687   6.320 135.624  0.00  0.00    +0.000 HD
ATOM     30  H   UNL     1      -2.697   9.705 132.927  0.00  0.00    +0.000 HD
ENDROOT
BRANCH  10  31
ATOM     31  C   UNL     1      -4.495  -0.313 130.539  0.00  0.00    +0.000 C 
ATOM     32  O   UNL     1      -3.621  -0.857 129.859  0.00  0.00    +0.000 OA
ATOM     33  N   UNL     1      -5.868  -0.597 130.424  0.00  0.00    +0.000 N 
ATOM     34  C   UNL     1      -7.006   0.324 130.401  0.00  0.00    +0.000 C 
ATOM     35  C   UNL     1      -8.111  -0.495 131.015  0.00  0.00    +0.000 C 
ATOM     36  C   UNL     1      -7.918  -1.845 130.337  0.00  0.00    +0.000 C 
ATOM     37  C   UNL     1      -6.402  -1.962 130.098  0.00  0.00    +0.000 C 
BRANCH  37  38
ATOM     38  C   UNL     1      -6.215  -2.313 128.634  0.00  0.00    +0.000 C 
ATOM     39  O   UNL     1      -5.152  -2.868 128.346  0.00  0.00    +0.000 OA
ATOM     40  N   UNL     1      -7.175  -1.934 127.691  0.00  0.00    +0.000 N 
ATOM     41  H   UNL     1      -7.953  -1.317 127.923  0.00  0.00    +0.000 HD
BRANCH  40  42
ATOM     42  C   UNL     1      -7.109  -2.354 126.259  0.00  0.00    +0.000 C 
BRANCH  42  43
ATOM     43  C   UNL     1      -6.711  -1.160 125.327  0.00  0.00    +0.000 C 
ATOM     44  O   UNL     1      -5.655  -1.204 124.695  0.00  0.00    +0.000 OA
ATOM     45  N   UNL     1      -7.571  -0.077 125.239  0.00  0.00    +0.000 N 
ATOM     46  H   UNL     1      -8.430  -0.051 125.757  0.00  0.00    +0.000 HD
BRANCH  45  47
ATOM     47  C   UNL     1      -7.273   1.088 124.398  0.00  0.00    +0.000 C 
BRANCH  47  48
ATOM     48  C   UNL     1      -8.455   2.066 124.226  0.00  0.00    +0.000 C 
ATOM     49  N   UNL     1      -8.172   3.345 123.795  0.00  0.00    +0.000 N 
ATOM     50  O   UNL     1      -9.611   1.722 124.465  0.00  0.00    +0.000 OA
ATOM     51  H   UNL     1      -7.260   3.706 123.578  0.00  0.00    +0.000 HD
ATOM     52  H   UNL     1      -8.922   4.016 123.669  0.00  0.00    +0.000 HD
ENDBRANCH  47  48
ENDBRANCH  45  47
ENDBRANCH  42  43
BRANCH  42  53
ATOM     53  C   UNL     1      -8.462  -2.902 125.814  0.00  0.00    +0.000 C 
BRANCH  53  54
ATOM     54  C   UNL     1      -8.393  -3.537 124.445  0.00  0.00    +0.000 C 
BRANCH  54  55
ATOM     55  C   UNL     1      -9.519  -3.187 123.543  0.00  0.00    +0.000 C 
BRANCH  55  56
ATOM     56  N   UNL     1      -9.506  -1.766 123.255  0.00  0.00    +0.000 NA
ATOM     57  H   UNL     1      -9.075  -1.253 124.022  0.00  0.00    +0.000 HD
ATOM     58  H   UNL     1     -10.457  -1.438 123.134  0.00  0.00    +0.000 HD
ENDBRANCH  55  56
ENDBRANCH  54  55
ENDBRANCH  53  54
ENDBRANCH  42  53
ENDBRANCH  40  42
ENDBRANCH  37  38
ENDBRANCH  10  31
BRANCH  22  59
ATOM     59  C   UNL     1      -0.744   8.045 134.557  0.00  0.00    +0.000 C 
ATOM     60  C   UNL     1       0.232   8.230 133.408  0.00  0.00    +0.000 C 
BRANCH  59  61
ATOM     61  C   UNL     1      -0.474   6.799 135.371  0.00  0.00    +0.000 C 
ATOM     62  C   UNL     1       0.700   6.810 136.300  0.00  0.00    +0.000 C 
ENDBRANCH  59  61
ENDBRANCH  22  59
BRANCH  18  63
ATOM     63  C   UNL     1      -4.348   6.623 132.448  0.00  0.00    +0.000 C 
ATOM     64  C   UNL     1      -5.811   6.569 132.244  0.00  0.00    +0.000 C 
BRANCH  63  65
ATOM     65  O   UNL     1      -3.618   6.251 131.286  0.00  0.00    +0.000 OA
ATOM     66  H   UNL     1      -4.235   5.659 130.806  0.00  0.00    +0.000 HD
ENDBRANCH  63  65
ENDBRANCH  18  63
BRANCH  14  67
ATOM     67  C   UNL     1      -4.194   3.161 134.834  0.00  0.00    +0.000 C 
BRANCH  67  68
ATOM     68  C   UNL     1      -5.727   3.163 134.619  0.00  0.00    +0.000 C 
ATOM     69  N   UNL     1      -6.462   4.272 134.922  0.00  0.00    +0.000 N 
ATOM     70  O   UNL     1      -6.304   2.199 134.133  0.00  0.00    +0.000 OA
ATOM     71  H   UNL     1      -6.138   5.137 135.309  0.00  0.00    +0.000 HD
ATOM     72  H   UNL     1      -7.452   4.340 135.031  0.00  0.00    +0.000 HD
ENDBRANCH  67  68
ENDBRANCH  14  67
BRANCH   1  73
ATOM     73  C   UNL     1      -2.279  10.295 137.104  0.00  0.00    +0.000 C 
BRANCH  73  77
ATOM     74  C   UNL     1      -4.669  13.714 139.057  0.00  0.00    +0.000 A 
ATOM     75  C   UNL     1      -4.719  12.333 139.029  0.00  0.00    +0.000 A 
ATOM     76  C   UNL     1      -3.618  11.536 138.850  0.00  0.00    +0.000 A 
ATOM     77  C   UNL     1      -2.587  11.916 138.131  0.00  0.00    +0.000 A 
ATOM     78  C   UNL     1      -2.357  13.444 138.277  0.00  0.00    +0.000 A 
ATOM     79  C   UNL     1      -3.466  14.303 138.729  0.00  0.00    +0.000 A 
BRANCH  74  80
ATOM     80  O   UNL     1      -5.773  14.353 139.550  0.00  0.00    +0.000 OA
BRANCH  80  82
ATOM     81  C   UNL     1      -8.041  13.784 140.091  0.00  0.00    +0.000 C 
ATOM     82  C   UNL     1      -6.579  13.614 140.470  0.00  0.00    +0.000 C 
ENDBRANCH  80  82
ENDBRANCH  74  80
ENDBRANCH  73  77
ENDBRANCH   1  73
TORSDOF 20
ENDMDL
MODEL 9
REMARK VINA RESULT:      -7.0      3.566      7.215
REMARK  Name = CHEMBL382301
REMARK  24 active torsions:
REMARK  status: ('A' for Active; 'I' for Inactive)
REMARK    1  A    between atoms: C_1  and  C_2
REMARK    2  A    between atoms: C_2  and  O_3
REMARK    3  A    between atoms: O_3  and  C_4
REMARK    4  A    between atoms: C_7  and  C_8
REMARK    5  A    between atoms: C_8  and  C_9
REMARK    6  A    between atoms: C_18  and  C_19
REMARK    7  A    between atoms: C_25  and  C_26
REMARK    8  A    between atoms: N_28  and  C_29
REMARK    9  A    between atoms: C_29  and  C_30
REMARK   10  A    between atoms: C_29  and  C_34
REMARK   11  A    between atoms: C_30  and  C_31
REMARK   12  A    between atoms: C_31  and  C_32
REMARK   13  A    between atoms: C_32  and  N_33
REMARK   14  A    between atoms: N_36  and  C_37
REMARK   15  A    between atoms: C_37  and  C_38
REMARK   16  A    between atoms: C_44  and  C_45
REMARK   17  A    between atoms: C_45  and  C_46
REMARK   18  A    between atoms: C_52  and  C_53
REMARK   19  A    between atoms: C_53  and  C_54
REMARK   20  A    between atoms: C_53  and  O_55
REMARK   21  A    between atoms: C_59  and  C_60
REMARK   22  A    between atoms: C_60  and  C_61
REMARK   23  A    between atoms: C_60  and  C_62
REMARK   24  A    between atoms: C_62  and  C_63
REMARK                            x       y       z     vdW  Elec       q    Type
REMARK                         _______ _______ _______ _____ _____    ______ ____
ROOT
ATOM      1  C   UNL     1      -6.710  -0.492 132.181  0.00  0.00    +0.000 C 
ATOM      2  N   UNL     1      -6.407   0.885 130.483  0.00  0.00    +0.000 N 
ATOM      3  C   UNL     1      -6.130   2.444 129.088  0.00  0.00    +0.000 C 
ATOM      4  O   UNL     1      -6.481   2.515 127.670  0.00  0.00    +0.000 OA
ATOM      5  C   UNL     1      -5.473   4.254 128.129  0.00  0.00    +0.000 C 
ATOM      6  C   UNL     1      -4.375   4.747 128.912  0.00  0.00    +0.000 C 
ATOM      7  S   UNL     1      -3.651   6.475 129.135  0.00  0.00    +0.000 S 
ATOM      8  S   UNL     1      -2.326   6.159 130.601  0.00  0.00    +0.000 S 
ATOM      9  C   UNL     1      -1.752   7.325 131.807  0.00  0.00    +0.000 C 
ATOM     10  C   UNL     1      -1.036   6.882 133.087  0.00  0.00    +0.000 C 
ATOM     11  N   UNL     1      -1.968   6.326 134.085  0.00  0.00    +0.000 N 
ATOM     12  C   UNL     1      -2.671   5.154 133.961  0.00  0.00    +0.000 C 
ATOM     13  O   UNL     1      -3.589   5.067 134.776  0.00  0.00    +0.000 OA
ATOM     14  C   UNL     1      -2.758   4.401 132.653  0.00  0.00    +0.000 C 
ATOM     15  N   UNL     1      -2.504   3.077 132.960  0.00  0.00    +0.000 N 
ATOM     16  C   UNL     1      -3.339   2.393 133.868  0.00  0.00    +0.000 C 
ATOM     17  O   UNL     1      -3.007   1.370 134.464  0.00  0.00    +0.000 OA
ATOM     18  C   UNL     1      -4.685   2.880 134.188  0.00  0.00    +0.000 C 
ATOM     19  N   UNL     1      -5.633   2.140 133.492  0.00  0.00    +0.000 N 
ATOM     20  C   UNL     1      -5.898   0.960 133.920  0.00  0.00    +0.000 C 
ATOM     21  O   UNL     1      -7.118   0.782 133.738  0.00  0.00    +0.000 OA
ATOM     22  C   UNL     1      -4.800   0.005 134.566  0.00  0.00    +0.000 C 
ATOM     23  N   UNL     1      -5.592  -0.545 135.436  0.00  0.00    +0.000 N 
ATOM     24  C   UNL     1      -6.533  -1.017 134.300  0.00  0.00    +0.000 C 
ATOM     25  O   UNL     1      -7.083  -1.452 135.392  0.00  0.00    +0.000 OA
ATOM     26  H   UNL     1      -6.066   0.819 129.209  0.00  0.00    +0.000 HD
ATOM     27  H   UNL     1      -2.121   6.888 134.941  0.00  0.00    +0.000 HD
ATOM     28  H   UNL     1      -1.608   2.762 132.553  0.00  0.00    +0.000 HD
ATOM     29  H   UNL     1      -6.451   2.541 133.043  0.00  0.00    +0.000 HD
ATOM     30  H   UNL     1      -5.376  -0.523 136.528  0.00  0.00    +0.000 HD
ENDROOT
BRANCH  10  31
ATOM     31  C   UNL     1      -0.256   8.123 133.642  0.00  0.00    +0.000 C 
ATOM     32  O   UNL     1       0.860   7.924 134.131  0.00  0.00    +0.000 OA
ATOM     33  N   UNL     1      -0.805   9.400 133.435  0.00  0.00    +0.000 N 
ATOM     34  C   UNL     1      -2.163   9.880 133.700  0.00  0.00    +0.000 C 
ATOM     35  C   UNL     1      -2.355  10.941 132.649  0.00  0.00    +0.000 C 
ATOM     36  C   UNL     1      -1.021  11.676 132.694  0.00  0.00    +0.000 C 
ATOM     37  C   UNL     1       0.017  10.600 133.062  0.00  0.00    +0.000 C 
BRANCH  37  38
ATOM     38  C   UNL     1       0.807  11.139 134.240  0.00  0.00    +0.000 C 
ATOM     39  O   UNL     1       1.731  11.906 133.961  0.00  0.00    +0.000 OA
ATOM     40  N   UNL     1       0.526  10.698 135.536  0.00  0.00    +0.000 N 
ATOM     41  H   UNL     1      -0.116   9.928 135.722  0.00  0.00    +0.000 HD
BRANCH  40  42
ATOM     42  C   UNL     1       1.182  11.278 136.746  0.00  0.00    +0.000 C 
BRANCH  42  43
ATOM     43  C   UNL     1       2.166  10.258 137.411  0.00  0.00    +0.000 C 
ATOM     44  O   UNL     1       2.827  10.596 138.393  0.00  0.00    +0.000 OA
ATOM     45  N   UNL     1       2.264   8.985 136.869  0.00  0.00    +0.000 N 
ATOM     46  H   UNL     1       1.719   8.717 136.070  0.00  0.00    +0.000 HD
BRANCH  45  47
ATOM     47  C   UNL     1       3.166   7.969 137.423  0.00  0.00    +0.000 C 
BRANCH  47  48
ATOM     48  C   UNL     1       2.935   6.547 136.870  0.00  0.00    +0.000 C 
ATOM     49  N   UNL     1       1.644   6.061 136.869  0.00  0.00    +0.000 N 
ATOM     50  O   UNL     1       3.866   5.866 136.444  0.00  0.00    +0.000 OA
ATOM     51  H   UNL     1       0.830   6.549 137.196  0.00  0.00    +0.000 HD
ATOM     52  H   UNL     1       1.453   5.130 136.513  0.00  0.00    +0.000 HD
ENDBRANCH  47  48
ENDBRANCH  45  47
ENDBRANCH  42  43
BRANCH  42  53
ATOM     53  C   UNL     1       0.125  11.687 137.768  0.00  0.00    +0.000 C 
BRANCH  53  54
ATOM     54  C   UNL     1      -1.074  10.769 137.739  0.00  0.00    +0.000 C 
BRANCH  54  55
ATOM     55  C   UNL     1      -0.896   9.496 138.481  0.00  0.00    +0.000 C 
BRANCH  55  56
ATOM     56  N   UNL     1      -0.781   8.388 137.552  0.00  0.00    +0.000 NA
ATOM     57  H   UNL     1      -0.445   7.556 138.033  0.00  0.00    +0.000 HD
ATOM     58  H   UNL     1      -0.127   8.630 136.818  0.00  0.00    +0.000 HD
ENDBRANCH  55  56
ENDBRANCH  54  55
ENDBRANCH  53  54
ENDBRANCH  42  53
ENDBRANCH  40  42
ENDBRANCH  37  38
ENDBRANCH  10  31
BRANCH  22  59
ATOM     59  C   UNL     1      -4.079  -1.119 133.846  0.00  0.00    +0.000 C 
ATOM     60  C   UNL     1      -3.073  -1.829 134.735  0.00  0.00    +0.000 C 
BRANCH  59  61
ATOM     61  C   UNL     1      -3.467  -0.568 132.577  0.00  0.00    +0.000 C 
ATOM     62  C   UNL     1      -3.366  -1.482 131.395  0.00  0.00    +0.000 C 
ENDBRANCH  59  61
ENDBRANCH  22  59
BRANCH  18  63
ATOM     63  C   UNL     1      -4.681   2.836 135.703  0.00  0.00    +0.000 C 
ATOM     64  C   UNL     1      -5.627   3.858 136.200  0.00  0.00    +0.000 C 
BRANCH  63  65
ATOM     65  O   UNL     1      -3.387   2.963 136.276  0.00  0.00    +0.000 OA
ATOM     66  H   UNL     1      -3.095   3.856 135.992  0.00  0.00    +0.000 HD
ENDBRANCH  63  65
ENDBRANCH  18  63
BRANCH  14  67
ATOM     67  C   UNL     1      -4.097   4.542 131.901  0.00  0.00    +0.000 C 
BRANCH  67  68
ATOM     68  C   UNL     1      -5.023   5.653 132.454  0.00  0.00    +0.000 C 
ATOM     69  N   UNL     1      -6.235   5.333 132.993  0.00  0.00    +0.000 N 
ATOM     70  O   UNL     1      -4.674   6.826 132.465  0.00  0.00    +0.000 OA
ATOM     71  H   UNL     1      -6.653   4.427 133.070  0.00  0.00    +0.000 HD
ATOM     72  H   UNL     1      -7.000   5.945 133.187  0.00  0.00    +0.000 HD
ENDBRANCH  67  68
ENDBRANCH  14  67
BRANCH   1  73
ATOM     73  C   UNL     1      -7.616  -2.187 133.337  0.00  0.00    +0.000 C 
BRANCH  73  77
ATOM     74  C   UNL     1      -7.591  -5.889 136.076  0.00  0.00    +0.000 A 
ATOM     75  C   UNL     1      -8.506  -4.936 135.673  0.00  0.00    +0.000 A 
ATOM     76  C   UNL     1      -8.447  -4.287 134.467  0.00  0.00    +0.000 A 
ATOM     77  C   UNL     1      -7.310  -4.032 133.863  0.00  0.00    +0.000 A 
ATOM     78  C   UNL     1      -6.292  -5.174 134.119  0.00  0.00    +0.000 A 
ATOM     79  C   UNL     1      -6.481  -6.066 135.278  0.00  0.00    +0.000 A 
BRANCH  74  80
ATOM     80  O   UNL     1      -7.949  -6.662 137.146  0.00  0.00    +0.000 OA
BRANCH  80  82
ATOM     81  C   UNL     1      -7.960  -5.607 139.301  0.00  0.00    +0.000 C 
ATOM     82  C   UNL     1      -8.801  -6.052 138.116  0.00  0.00    +0.000 C 
ENDBRANCH  80  82
ENDBRANCH  74  80
ENDBRANCH  73  77
ENDBRANCH   1  73
TORSDOF 20
ENDMDL
