MODEL 1
REMARK VINA RESULT:      -8.5      0.000      0.000
REMARK  Name = CHEMBL1790711
REMARK  24 active torsions:
REMARK  status: ('A' for Active; 'I' for Inactive)
REMARK    1  A    between atoms: C_1  and  C_2
REMARK    2  A    between atoms: C_2  and  C_3
REMARK    3  A    between atoms: C_3  and  C_4
REMARK    4  A    between atoms: C_3  and  C_5
REMARK    5  A    between atoms: C_9  and  C_10
REMARK    6  A    between atoms: C_13  and  O_14
REMARK    7  A    between atoms: C_25  and  C_26
REMARK    8  A    between atoms: C_32  and  C_33
REMARK    9  A    between atoms: N_35  and  C_36
REMARK   10  A    between atoms: C_36  and  C_37
REMARK   11  A    between atoms: C_36  and  C_68
REMARK   12  A    between atoms: C_37  and  C_38
REMARK   13  A    between atoms: C_38  and  C_39
REMARK   14  A    between atoms: C_39  and  N_40
REMARK   15  A    between atoms: C_41  and  C_43
REMARK   16  A    between atoms: C_56  and  O_57
REMARK   17  A    between atoms: C_63  and  O_64
REMARK   18  A    between atoms: N_70  and  C_71
REMARK   19  A    between atoms: C_71  and  N_72
REMARK   20  A    between atoms: C_76  and  C_77
REMARK   21  A    between atoms: C_77  and  C_78
REMARK   22  A    between atoms: C_84  and  C_85
REMARK   23  A    between atoms: C_85  and  C_86
REMARK   24  A    between atoms: C_85  and  O_87
REMARK                            x       y       z     vdW  Elec       q    Type
REMARK                         _______ _______ _______ _____ _____    ______ ____
ROOT
ATOM      1  C   UNL     1      -4.578   1.423 134.638  0.00  0.00    +0.000 C 
ATOM      2  O   UNL     1      -4.125   2.162 135.534  0.00  0.00    +0.000 OA
ATOM      3  N   UNL     1      -5.811   1.675 134.142  0.00  0.00    +0.000 N 
ATOM      4  C   UNL     1      -6.683   0.778 133.437  0.00  0.00    +0.000 C 
ATOM      5  C   UNL     1      -7.052   1.612 132.258  0.00  0.00    +0.000 C 
ATOM      6  C   UNL     1      -7.213   3.009 132.888  0.00  0.00    +0.000 C 
ATOM      7  C   UNL     1      -6.249   3.063 134.076  0.00  0.00    +0.000 C 
ENDROOT
BRANCH   1  21
ATOM      8  C   UNL     1      -7.632  -3.727 139.282  0.00  0.00    +0.000 C 
ATOM      9  N   UNL     1      -5.680  -3.876 139.495  0.00  0.00    +0.000 N 
ATOM     10  C   UNL     1      -4.155  -3.469 139.872  0.00  0.00    +0.000 C 
ATOM     11  O   UNL     1      -3.240  -4.107 139.271  0.00  0.00    +0.000 OA
ATOM     12  C   UNL     1      -3.537  -2.470 141.125  0.00  0.00    +0.000 C 
ATOM     13  N   UNL     1      -2.243  -2.827 141.887  0.00  0.00    +0.000 N 
ATOM     14  C   UNL     1      -0.887  -2.581 141.715  0.00  0.00    +0.000 C 
ATOM     15  O   UNL     1      -0.100  -2.828 142.640  0.00  0.00    +0.000 OA
ATOM     16  C   UNL     1      -0.280  -1.999 140.461  0.00  0.00    +0.000 C 
ATOM     17  C   UNL     1      -1.259  -1.643 139.442  0.00  0.00    +0.000 C 
ATOM     18  S   UNL     1      -0.529  -1.386 137.915  0.00  0.00    +0.000 S 
ATOM     19  S   UNL     1      -2.555  -1.857 136.741  0.00  0.00    +0.000 S 
ATOM     20  C   UNL     1      -2.707  -0.397 134.764  0.00  0.00    +0.000 C 
ATOM     21  C   UNL     1      -3.863   0.171 134.025  0.00  0.00    +0.000 C 
ATOM     22  N   UNL     1      -4.470  -1.048 133.815  0.00  0.00    +0.000 N 
ATOM     23  C   UNL     1      -5.117  -1.630 134.826  0.00  0.00    +0.000 C 
ATOM     24  O   UNL     1      -5.872  -2.522 134.424  0.00  0.00    +0.000 OA
ATOM     25  C   UNL     1      -4.834  -1.155 136.429  0.00  0.00    +0.000 C 
ATOM     26  N   UNL     1      -6.093  -1.078 137.003  0.00  0.00    +0.000 N 
ATOM     27  C   UNL     1      -6.795  -2.182 137.276  0.00  0.00    +0.000 C 
ATOM     28  O   UNL     1      -7.850  -1.793 137.781  0.00  0.00    +0.000 OA
ATOM     29  C   UNL     1      -6.392  -3.808 136.878  0.00  0.00    +0.000 C 
ATOM     30  N   UNL     1      -6.639  -5.103 137.714  0.00  0.00    +0.000 N 
ATOM     31  C   UNL     1      -7.361  -5.130 138.917  0.00  0.00    +0.000 C 
ATOM     32  O   UNL     1      -7.444  -6.034 139.736  0.00  0.00    +0.000 OA
ATOM     33  H   UNL     1      -5.218  -4.779 139.247  0.00  0.00    +0.000 HD
ATOM     34  H   UNL     1      -2.415  -3.142 142.837  0.00  0.00    +0.000 HD
ATOM     35  H   UNL     1      -4.434  -1.509 132.921  0.00  0.00    +0.000 HD
ATOM     36  H   UNL     1      -6.397  -0.262 137.508  0.00  0.00    +0.000 HD
ATOM     37  H   UNL     1      -5.730  -5.375 138.010  0.00  0.00    +0.000 HD
BRANCH  12  38
ATOM     38  C   UNL     1      -3.564  -0.953 140.871  0.00  0.00    +0.000 A 
ATOM     39  C   UNL     1      -2.629  -0.309 141.640  0.00  0.00    +0.000 A 
ATOM     40  C   UNL     1      -2.550   1.066 141.661  0.00  0.00    +0.000 A 
ATOM     41  C   UNL     1      -3.542   1.865 141.119  0.00  0.00    +0.000 A 
ATOM     42  C   UNL     1      -4.555   1.285 140.393  0.00  0.00    +0.000 A 
ATOM     43  C   UNL     1      -4.529  -0.119 140.184  0.00  0.00    +0.000 A 
BRANCH  41  44
ATOM     44  O   UNL     1      -3.554   3.210 141.326  0.00  0.00    +0.000 OA
ATOM     45  H   UNL     1      -2.760   3.501 141.809  0.00  0.00    +0.000 HD
ENDBRANCH  41  44
ENDBRANCH  12  38
BRANCH  29  46
ATOM     46  C   UNL     1      -4.983  -4.026 136.307  0.00  0.00    +0.000 C 
ATOM     47  C   UNL     1      -4.957  -4.975 135.189  0.00  0.00    +0.000 C 
BRANCH  46  48
ATOM     48  O   UNL     1      -3.845  -4.437 136.985  0.00  0.00    +0.000 OA
ATOM     49  H   UNL     1      -3.535  -3.850 137.662  0.00  0.00    +0.000 HD
ENDBRANCH  46  48
ENDBRANCH  29  46
BRANCH   8  50
ATOM     50  C   UNL     1      -9.551  -4.123 139.070  0.00  0.00    +0.000 C 
ATOM     51  C   UNL     1     -10.525  -3.126 139.716  0.00  0.00    +0.000 C 
BRANCH  50  53
ATOM     52  C   UNL     1     -10.474  -5.617 137.134  0.00  0.00    +0.000 C 
ATOM     53  C   UNL     1     -10.288  -4.170 137.471  0.00  0.00    +0.000 C 
ENDBRANCH  50  53
ENDBRANCH   8  50
BRANCH  25  54
ATOM     54  C   UNL     1      -3.752   0.095 136.652  0.00  0.00    +0.000 C 
BRANCH  54  55
ATOM     55  C   UNL     1      -3.954   1.796 137.659  0.00  0.00    +0.000 C 
ATOM     56  N   UNL     1      -2.401   2.689 137.872  0.00  0.00    +0.000 N 
ATOM     57  O   UNL     1      -5.073   2.379 137.839  0.00  0.00    +0.000 OA
ATOM     58  H   UNL     1      -1.523   1.949 137.618  0.00  0.00    +0.000 HD
ATOM     59  H   UNL     1      -1.826   3.384 138.362  0.00  0.00    +0.000 HD
ENDBRANCH  54  55
ENDBRANCH  25  54
ENDBRANCH   1  21
BRANCH   7  60
ATOM     60  C   UNL     1      -5.028   3.988 133.906  0.00  0.00    +0.000 C 
ATOM     61  O   UNL     1      -4.284   3.813 132.939  0.00  0.00    +0.000 OA
ATOM     62  N   UNL     1      -4.780   4.959 134.846  0.00  0.00    +0.000 N 
ATOM     63  H   UNL     1      -5.343   5.014 135.688  0.00  0.00    +0.000 HD
BRANCH  62  64
ATOM     64  C   UNL     1      -3.564   5.827 134.802  0.00  0.00    +0.000 C 
BRANCH  64  65
ATOM     65  C   UNL     1      -2.927   5.961 136.238  0.00  0.00    +0.000 C 
ATOM     66  O   UNL     1      -3.514   5.492 137.218  0.00  0.00    +0.000 OA
ATOM     67  N   UNL     1      -1.698   6.605 136.366  0.00  0.00    +0.000 N 
ATOM     68  H   UNL     1      -1.222   7.017 135.576  0.00  0.00    +0.000 HD
BRANCH  67  69
ATOM     69  C   UNL     1      -1.096   6.786 137.662  0.00  0.00    +0.000 C 
BRANCH  69  70
ATOM     70  N   UNL     1      -0.841   5.485 138.243  0.00  0.00    +0.000 NA
ATOM     71  H   UNL     1      -0.486   4.843 137.539  0.00  0.00    +0.000 HD
ATOM     72  H   UNL     1      -1.745   5.080 138.514  0.00  0.00    +0.000 HD
ENDBRANCH  69  70
ENDBRANCH  67  69
ENDBRANCH  64  65
BRANCH  64  73
ATOM     73  C   UNL     1      -3.926   7.225 134.253  0.00  0.00    +0.000 C 
BRANCH  73  74
ATOM     74  C   UNL     1      -2.931   7.746 133.205  0.00  0.00    +0.000 C 
BRANCH  74  75
ATOM     75  C   UNL     1      -3.258   7.593 131.737  0.00  0.00    +0.000 C 
BRANCH  75  76
ATOM     76  N   UNL     1      -3.845   6.181 131.371  0.00  0.00    +0.000 N 
ATOM     77  C   UNL     1      -5.041   6.041 130.547  0.00  0.00    +0.000 C 
ATOM     78  O   UNL     1      -5.583   7.157 130.395  0.00  0.00    +0.000 OA
ATOM     79  H   UNL     1      -3.316   5.418 131.762  0.00  0.00    +0.000 HD
BRANCH  77  80
ATOM     80  C   UNL     1      -5.922   4.695 129.763  0.00  0.00    +0.000 A 
ATOM     81  C   UNL     1      -4.976   3.883 129.278  0.00  0.00    +0.000 A 
ATOM     82  C   UNL     1      -5.331   3.123 128.119  0.00  0.00    +0.000 A 
ATOM     83  C   UNL     1      -5.904   1.942 128.423  0.00  0.00    +0.000 A 
ATOM     84  C   UNL     1      -7.259   2.095 128.579  0.00  0.00    +0.000 A 
ATOM     85  C   UNL     1      -7.176   3.801 129.267  0.00  0.00    +0.000 A 
ATOM     86  C   UNL     1      -7.202   0.118 128.456  0.00  0.00    +0.000 C 
ATOM     87  O   UNL     1      -5.823  -0.150 128.898  0.00  0.00    +0.000 OA
ATOM     88  C   UNL     1      -5.232   0.969 129.276  0.00  0.00    +0.000 C 
ATOM     89  O   UNL     1      -4.293   1.122 130.029  0.00  0.00    +0.000 OA
ATOM     90  C   UNL     1      -7.489  -0.734 126.844  0.00  0.00    +0.000 A 
ATOM     91  C   UNL     1      -8.053  -0.135 125.717  0.00  0.00    +0.000 A 
ATOM     92  C   UNL     1      -8.859  -0.854 124.713  0.00  0.00    +0.000 A 
ATOM     93  C   UNL     1      -9.085  -2.232 124.733  0.00  0.00    +0.000 A 
ATOM     94  C   UNL     1      -8.424  -2.938 125.710  0.00  0.00    +0.000 A 
ATOM     95  C   UNL     1      -7.629  -2.204 126.707  0.00  0.00    +0.000 A 
ATOM     96  O   UNL     1      -6.971  -3.061 127.543  0.00  0.00    +0.000 OA
ATOM     97  C   UNL     1      -7.012  -2.691 128.866  0.00  0.00    +0.000 A 
ATOM     98  C   UNL     1      -6.501  -3.789 129.688  0.00  0.00    +0.000 A 
ATOM     99  C   UNL     1      -6.614  -3.694 131.046  0.00  0.00    +0.000 A 
ATOM    100  C   UNL     1      -7.413  -2.646 131.506  0.00  0.00    +0.000 A 
ATOM    101  C   UNL     1      -7.946  -1.559 130.673  0.00  0.00    +0.000 A 
ATOM    102  C   UNL     1      -7.607  -1.397 129.338  0.00  0.00    +0.000 A 
BRANCH  99 103
ATOM    103  O   UNL     1      -6.014  -4.536 131.944  0.00  0.00    +0.000 OA
ATOM    104  H   UNL     1      -5.043  -4.444 131.975  0.00  0.00    +0.000 HD
ENDBRANCH  99 103
BRANCH  93 105
ATOM    105  O   UNL     1      -9.908  -2.902 123.868  0.00  0.00    +0.000 OA
ATOM    106  H   UNL     1     -10.382  -3.636 124.299  0.00  0.00    +0.000 HD
ENDBRANCH  93 105
ENDBRANCH  77  80
ENDBRANCH  75  76
ENDBRANCH  74  75
ENDBRANCH  73  74
ENDBRANCH  64  73
ENDBRANCH  62  64
ENDBRANCH   7  60
TORSDOF 21
ENDMDL
MODEL 2
REMARK VINA RESULT:      -8.3      2.489      3.980
REMARK  Name = CHEMBL1790711
REMARK  24 active torsions:
REMARK  status: ('A' for Active; 'I' for Inactive)
REMARK    1  A    between atoms: C_1  and  C_2
REMARK    2  A    between atoms: C_2  and  C_3
REMARK    3  A    between atoms: C_3  and  C_4
REMARK    4  A    between atoms: C_3  and  C_5
REMARK    5  A    between atoms: C_9  and  C_10
REMARK    6  A    between atoms: C_13  and  O_14
REMARK    7  A    between atoms: C_25  and  C_26
REMARK    8  A    between atoms: C_32  and  C_33
REMARK    9  A    between atoms: N_35  and  C_36
REMARK   10  A    between atoms: C_36  and  C_37
REMARK   11  A    between atoms: C_36  and  C_68
REMARK   12  A    between atoms: C_37  and  C_38
REMARK   13  A    between atoms: C_38  and  C_39
REMARK   14  A    between atoms: C_39  and  N_40
REMARK   15  A    between atoms: C_41  and  C_43
REMARK   16  A    between atoms: C_56  and  O_57
REMARK   17  A    between atoms: C_63  and  O_64
REMARK   18  A    between atoms: N_70  and  C_71
REMARK   19  A    between atoms: C_71  and  N_72
REMARK   20  A    between atoms: C_76  and  C_77
REMARK   21  A    between atoms: C_77  and  C_78
REMARK   22  A    between atoms: C_84  and  C_85
REMARK   23  A    between atoms: C_85  and  C_86
REMARK   24  A    between atoms: C_85  and  O_87
REMARK                            x       y       z     vdW  Elec       q    Type
REMARK                         _______ _______ _______ _____ _____    ______ ____
ROOT
ATOM      1  C   UNL     1      -6.025   1.298 132.854  0.00  0.00    +0.000 C 
ATOM      2  O   UNL     1      -5.370   1.836 133.767  0.00  0.00    +0.000 OA
ATOM      3  N   UNL     1      -7.300   1.698 132.638  0.00  0.00    +0.000 N 
ATOM      4  C   UNL     1      -8.348   0.991 131.958  0.00  0.00    +0.000 C 
ATOM      5  C   UNL     1      -8.840   2.044 131.026  0.00  0.00    +0.000 C 
ATOM      6  C   UNL     1      -8.778   3.309 131.904  0.00  0.00    +0.000 C 
ATOM      7  C   UNL     1      -7.627   3.095 132.891  0.00  0.00    +0.000 C 
ENDROOT
BRANCH   1  21
ATOM      8  C   UNL     1      -6.905  -4.352 137.825  0.00  0.00    +0.000 C 
ATOM      9  N   UNL     1      -5.008  -4.366 137.300  0.00  0.00    +0.000 N 
ATOM     10  C   UNL     1      -3.472  -3.870 137.130  0.00  0.00    +0.000 C 
ATOM     11  O   UNL     1      -2.814  -4.397 136.184  0.00  0.00    +0.000 OA
ATOM     12  C   UNL     1      -2.484  -2.908 138.153  0.00  0.00    +0.000 C 
ATOM     13  N   UNL     1      -0.985  -3.214 138.358  0.00  0.00    +0.000 N 
ATOM     14  C   UNL     1       0.199  -2.855 137.728  0.00  0.00    +0.000 C 
ATOM     15  O   UNL     1       1.282  -3.099 138.278  0.00  0.00    +0.000 OA
ATOM     16  C   UNL     1       0.273  -2.150 136.394  0.00  0.00    +0.000 C 
ATOM     17  C   UNL     1      -1.029  -1.805 135.836  0.00  0.00    +0.000 C 
ATOM     18  S   UNL     1      -0.925  -1.398 134.177  0.00  0.00    +0.000 S 
ATOM     19  S   UNL     1      -3.217  -1.946 133.784  0.00  0.00    +0.000 S 
ATOM     20  C   UNL     1      -4.156  -0.380 132.133  0.00  0.00    +0.000 C 
ATOM     21  C   UNL     1      -5.529   0.145 131.916  0.00  0.00    +0.000 C 
ATOM     22  N   UNL     1      -6.112  -1.101 131.837  0.00  0.00    +0.000 N 
ATOM     23  C   UNL     1      -6.312  -1.793 132.960  0.00  0.00    +0.000 C 
ATOM     24  O   UNL     1      -7.119  -2.712 132.784  0.00  0.00    +0.000 OA
ATOM     25  C   UNL     1      -5.481  -1.400 134.385  0.00  0.00    +0.000 C 
ATOM     26  N   UNL     1      -6.442  -1.456 135.381  0.00  0.00    +0.000 N 
ATOM     27  C   UNL     1      -6.941  -2.625 135.795  0.00  0.00    +0.000 C 
ATOM     28  O   UNL     1      -7.753  -2.350 136.680  0.00  0.00    +0.000 OA
ATOM     29  C   UNL     1      -6.637  -4.187 135.138  0.00  0.00    +0.000 C 
ATOM     30  N   UNL     1      -6.497  -5.547 135.891  0.00  0.00    +0.000 N 
ATOM     31  C   UNL     1      -6.722  -5.705 137.267  0.00  0.00    +0.000 C 
ATOM     32  O   UNL     1      -6.455  -6.662 137.978  0.00  0.00    +0.000 OA
ATOM     33  H   UNL     1      -4.627  -5.214 136.823  0.00  0.00    +0.000 HD
ATOM     34  H   UNL     1      -0.780  -3.599 139.275  0.00  0.00    +0.000 HD
ATOM     35  H   UNL     1      -6.386  -1.500 130.954  0.00  0.00    +0.000 HD
ATOM     36  H   UNL     1      -6.577  -0.699 136.031  0.00  0.00    +0.000 HD
ATOM     37  H   UNL     1      -5.531  -5.768 135.811  0.00  0.00    +0.000 HD
BRANCH  12  38
ATOM     38  C   UNL     1      -2.674  -1.384 138.059  0.00  0.00    +0.000 A 
ATOM     39  C   UNL     1      -1.618  -0.720 138.629  0.00  0.00    +0.000 A 
ATOM     40  C   UNL     1      -1.627   0.651 138.760  0.00  0.00    +0.000 A 
ATOM     41  C   UNL     1      -2.774   1.399 138.561  0.00  0.00    +0.000 A 
ATOM     42  C   UNL     1      -3.899   0.788 138.057  0.00  0.00    +0.000 A 
ATOM     43  C   UNL     1      -3.836  -0.588 137.716  0.00  0.00    +0.000 A 
BRANCH  41  44
ATOM     44  O   UNL     1      -2.821   2.718 138.891  0.00  0.00    +0.000 OA
ATOM     45  H   UNL     1      -3.660   2.942 139.332  0.00  0.00    +0.000 HD
ENDBRANCH  41  44
ENDBRANCH  12  38
BRANCH  29  46
ATOM     46  C   UNL     1      -5.529  -4.261 134.076  0.00  0.00    +0.000 C 
ATOM     47  C   UNL     1      -5.899  -5.078 132.916  0.00  0.00    +0.000 C 
BRANCH  46  48
ATOM     48  O   UNL     1      -4.217  -4.680 134.244  0.00  0.00    +0.000 OA
ATOM     49  H   UNL     1      -3.585  -4.301 133.647  0.00  0.00    +0.000 HD
ENDBRANCH  46  48
ENDBRANCH  29  46
BRANCH   8  50
ATOM     50  C   UNL     1      -8.747  -4.879 138.293  0.00  0.00    +0.000 C 
ATOM     51  C   UNL     1      -9.442  -4.032 139.369  0.00  0.00    +0.000 C 
BRANCH  50  53
ATOM     52  C   UNL     1     -10.592  -6.213 137.009  0.00  0.00    +0.000 C 
ATOM     53  C   UNL     1     -10.030  -4.827 137.087  0.00  0.00    +0.000 C 
ENDBRANCH  50  53
ENDBRANCH   8  50
BRANCH  25  54
ATOM     54  C   UNL     1      -4.454  -0.089 134.306  0.00  0.00    +0.000 C 
BRANCH  54  55
ATOM     55  C   UNL     1      -4.392   1.555 135.421  0.00  0.00    +0.000 C 
ATOM     56  N   UNL     1      -3.025   2.654 134.998  0.00  0.00    +0.000 N 
ATOM     57  O   UNL     1      -5.376   1.974 136.114  0.00  0.00    +0.000 OA
ATOM     58  H   UNL     1      -2.268   2.047 134.332  0.00  0.00    +0.000 HD
ATOM     59  H   UNL     1      -2.381   3.417 135.237  0.00  0.00    +0.000 HD
ENDBRANCH  54  55
ENDBRANCH  25  54
ENDBRANCH   1  21
BRANCH   7  60
ATOM     60  C   UNL     1      -6.381   3.972 132.666  0.00  0.00    +0.000 C 
ATOM     61  O   UNL     1      -5.848   3.968 131.554  0.00  0.00    +0.000 OA
ATOM     62  N   UNL     1      -5.876   4.710 133.709  0.00  0.00    +0.000 N 
ATOM     63  H   UNL     1      -6.265   4.615 134.641  0.00  0.00    +0.000 HD
BRANCH  62  64
ATOM     64  C   UNL     1      -4.616   5.506 133.594  0.00  0.00    +0.000 C 
BRANCH  64  65
ATOM     65  C   UNL     1      -4.135   5.990 135.016  0.00  0.00    +0.000 C 
ATOM     66  O   UNL     1      -4.959   6.408 135.835  0.00  0.00    +0.000 OA
ATOM     67  N   UNL     1      -2.777   5.923 135.320  0.00  0.00    +0.000 N 
ATOM     68  H   UNL     1      -2.091   5.608 134.650  0.00  0.00    +0.000 HD
BRANCH  67  69
ATOM     69  C   UNL     1      -2.286   6.390 136.591  0.00  0.00    +0.000 C 
BRANCH  69  70
ATOM     70  N   UNL     1      -2.812   5.537 137.636  0.00  0.00    +0.000 NA
ATOM     71  H   UNL     1      -2.996   6.076 138.478  0.00  0.00    +0.000 HD
ATOM     72  H   UNL     1      -2.068   4.887 137.916  0.00  0.00    +0.000 HD
ENDBRANCH  69  70
ENDBRANCH  67  69
ENDBRANCH  64  65
BRANCH  64  73
ATOM     73  C   UNL     1      -4.837   6.724 132.670  0.00  0.00    +0.000 C 
BRANCH  73  74
ATOM     74  C   UNL     1      -3.533   7.435 132.276  0.00  0.00    +0.000 C 
BRANCH  74  75
ATOM     75  C   UNL     1      -3.315   7.832 130.834  0.00  0.00    +0.000 C 
BRANCH  75  76
ATOM     76  N   UNL     1      -4.108   6.937 129.813  0.00  0.00    +0.000 N 
ATOM     77  C   UNL     1      -3.563   5.678 129.316  0.00  0.00    +0.000 C 
ATOM     78  O   UNL     1      -2.364   5.573 129.653  0.00  0.00    +0.000 OA
ATOM     79  H   UNL     1      -4.999   7.327 129.553  0.00  0.00    +0.000 HD
BRANCH  77  80
ATOM     80  C   UNL     1      -4.161   4.308 128.332  0.00  0.00    +0.000 A 
ATOM     81  C   UNL     1      -5.495   4.398 128.365  0.00  0.00    +0.000 A 
ATOM     82  C   UNL     1      -6.214   3.169 128.233  0.00  0.00    +0.000 A 
ATOM     83  C   UNL     1      -6.470   2.848 126.949  0.00  0.00    +0.000 A 
ATOM     84  C   UNL     1      -5.420   2.142 126.416  0.00  0.00    +0.000 A 
ATOM     85  C   UNL     1      -4.109   2.997 127.384  0.00  0.00    +0.000 A 
ATOM     86  C   UNL     1      -6.770   1.761 125.015  0.00  0.00    +0.000 C 
ATOM     87  O   UNL     1      -7.667   2.918 125.169  0.00  0.00    +0.000 OA
ATOM     88  C   UNL     1      -7.189   3.760 126.067  0.00  0.00    +0.000 C 
ATOM     89  O   UNL     1      -7.403   4.947 126.194  0.00  0.00    +0.000 OA
ATOM     90  C   UNL     1      -7.775   0.214 125.072  0.00  0.00    +0.000 A 
ATOM     91  C   UNL     1      -7.477  -0.901 125.858  0.00  0.00    +0.000 A 
ATOM     92  C   UNL     1      -7.812  -2.288 125.488  0.00  0.00    +0.000 A 
ATOM     93  C   UNL     1      -8.535  -2.640 124.347  0.00  0.00    +0.000 A 
ATOM     94  C   UNL     1      -9.025  -1.598 123.598  0.00  0.00    +0.000 A 
ATOM     95  C   UNL     1      -8.677  -0.219 123.978  0.00  0.00    +0.000 A 
ATOM     96  O   UNL     1      -9.318   0.689 123.185  0.00  0.00    +0.000 OA
ATOM     97  C   UNL     1      -8.522   1.732 122.774  0.00  0.00    +0.000 A 
ATOM     98  C   UNL     1      -9.227   2.499 121.746  0.00  0.00    +0.000 A 
ATOM     99  C   UNL     1      -8.545   3.478 121.081  0.00  0.00    +0.000 A 
ATOM    100  C   UNL     1      -7.167   3.499 121.299  0.00  0.00    +0.000 A 
ATOM    101  C   UNL     1      -6.459   2.708 122.315  0.00  0.00    +0.000 A 
ATOM    102  C   UNL     1      -7.116   1.930 123.257  0.00  0.00    +0.000 A 
BRANCH  99 103
ATOM    103  O   UNL     1      -9.115   4.400 120.243  0.00  0.00    +0.000 OA
ATOM    104  H   UNL     1      -8.548   4.641 119.487  0.00  0.00    +0.000 HD
ENDBRANCH  99 103
BRANCH  93 105
ATOM    105  O   UNL     1      -8.772  -3.924 123.936  0.00  0.00    +0.000 OA
ATOM    106  H   UNL     1      -9.713  -4.165 123.991  0.00  0.00    +0.000 HD
ENDBRANCH  93 105
ENDBRANCH  77  80
ENDBRANCH  75  76
ENDBRANCH  74  75
ENDBRANCH  73  74
ENDBRANCH  64  73
ENDBRANCH  62  64
ENDBRANCH   7  60
TORSDOF 21
ENDMDL
MODEL 3
REMARK VINA RESULT:      -8.3      3.653     11.809
REMARK  Name = CHEMBL1790711
REMARK  24 active torsions:
REMARK  status: ('A' for Active; 'I' for Inactive)
REMARK    1  A    between atoms: C_1  and  C_2
REMARK    2  A    between atoms: C_2  and  C_3
REMARK    3  A    between atoms: C_3  and  C_4
REMARK    4  A    between atoms: C_3  and  C_5
REMARK    5  A    between atoms: C_9  and  C_10
REMARK    6  A    between atoms: C_13  and  O_14
REMARK    7  A    between atoms: C_25  and  C_26
REMARK    8  A    between atoms: C_32  and  C_33
REMARK    9  A    between atoms: N_35  and  C_36
REMARK   10  A    between atoms: C_36  and  C_37
REMARK   11  A    between atoms: C_36  and  C_68
REMARK   12  A    between atoms: C_37  and  C_38
REMARK   13  A    between atoms: C_38  and  C_39
REMARK   14  A    between atoms: C_39  and  N_40
REMARK   15  A    between atoms: C_41  and  C_43
REMARK   16  A    between atoms: C_56  and  O_57
REMARK   17  A    between atoms: C_63  and  O_64
REMARK   18  A    between atoms: N_70  and  C_71
REMARK   19  A    between atoms: C_71  and  N_72
REMARK   20  A    between atoms: C_76  and  C_77
REMARK   21  A    between atoms: C_77  and  C_78
REMARK   22  A    between atoms: C_84  and  C_85
REMARK   23  A    between atoms: C_85  and  C_86
REMARK   24  A    between atoms: C_85  and  O_87
REMARK                            x       y       z     vdW  Elec       q    Type
REMARK                         _______ _______ _______ _____ _____    ______ ____
ROOT
ATOM      1  C   UNL     1      -5.382  -1.793 130.834  0.00  0.00    +0.000 C 
ATOM      2  O   UNL     1      -5.061  -1.272 131.920  0.00  0.00    +0.000 OA
ATOM      3  N   UNL     1      -4.409  -2.144 129.962  0.00  0.00    +0.000 N 
ATOM      4  C   UNL     1      -4.524  -2.370 128.549  0.00  0.00    +0.000 C 
ATOM      5  C   UNL     1      -3.834  -3.684 128.416  0.00  0.00    +0.000 C 
ATOM      6  C   UNL     1      -2.655  -3.531 129.397  0.00  0.00    +0.000 C 
ATOM      7  C   UNL     1      -3.135  -2.593 130.508  0.00  0.00    +0.000 C 
ENDROOT
BRANCH   1  21
ATOM      8  C   UNL     1      -6.000   4.347 126.436  0.00  0.00    +0.000 C 
ATOM      9  N   UNL     1      -7.461   4.457 127.751  0.00  0.00    +0.000 N 
ATOM     10  C   UNL     1      -8.213   4.593 129.183  0.00  0.00    +0.000 C 
ATOM     11  O   UNL     1      -9.395   4.139 129.240  0.00  0.00    +0.000 OA
ATOM     12  C   UNL     1      -7.777   5.455 130.602  0.00  0.00    +0.000 C 
ATOM     13  N   UNL     1      -8.827   6.195 131.459  0.00  0.00    +0.000 N 
ATOM     14  C   UNL     1      -9.652   5.866 132.526  0.00  0.00    +0.000 C 
ATOM     15  O   UNL     1     -10.239   6.765 133.144  0.00  0.00    +0.000 OA
ATOM     16  C   UNL     1      -9.883   4.457 133.019  0.00  0.00    +0.000 C 
ATOM     17  C   UNL     1      -9.099   3.449 132.316  0.00  0.00    +0.000 C 
ATOM     18  S   UNL     1      -9.682   1.867 132.608  0.00  0.00    +0.000 S 
ATOM     19  S   UNL     1      -8.740   1.024 130.581  0.00  0.00    +0.000 S 
ATOM     20  C   UNL     1      -7.941  -1.275 130.950  0.00  0.00    +0.000 C 
ATOM     21  C   UNL     1      -6.843  -2.065 130.336  0.00  0.00    +0.000 C 
ATOM     22  N   UNL     1      -7.276  -1.869 129.043  0.00  0.00    +0.000 N 
ATOM     23  C   UNL     1      -7.054  -0.690 128.460  0.00  0.00    +0.000 C 
ATOM     24  O   UNL     1      -7.187  -0.763 127.233  0.00  0.00    +0.000 OA
ATOM     25  C   UNL     1      -6.682   0.682 129.383  0.00  0.00    +0.000 C 
ATOM     26  N   UNL     1      -5.643   1.296 128.704  0.00  0.00    +0.000 N 
ATOM     27  C   UNL     1      -5.853   1.926 127.544  0.00  0.00    +0.000 C 
ATOM     28  O   UNL     1      -4.756   2.369 127.197  0.00  0.00    +0.000 OA
ATOM     29  C   UNL     1      -7.313   1.989 126.634  0.00  0.00    +0.000 C 
ATOM     30  N   UNL     1      -7.892   3.180 125.806  0.00  0.00    +0.000 N 
ATOM     31  C   UNL     1      -7.209   4.387 125.591  0.00  0.00    +0.000 C 
ATOM     32  O   UNL     1      -7.639   5.436 125.137  0.00  0.00    +0.000 OA
ATOM     33  H   UNL     1      -8.447   4.449 127.405  0.00  0.00    +0.000 HD
ATOM     34  H   UNL     1      -8.771   7.206 131.370  0.00  0.00    +0.000 HD
ATOM     35  H   UNL     1      -7.755  -2.592 128.532  0.00  0.00    +0.000 HD
ATOM     36  H   UNL     1      -4.790   1.563 129.167  0.00  0.00    +0.000 HD
ATOM     37  H   UNL     1      -8.681   3.478 126.333  0.00  0.00    +0.000 HD
BRANCH  12  38
ATOM     38  C   UNL     1      -6.761   4.775 131.536  0.00  0.00    +0.000 A 
ATOM     39  C   UNL     1      -6.749   5.373 132.770  0.00  0.00    +0.000 A 
ATOM     40  C   UNL     1      -5.836   5.001 133.732  0.00  0.00    +0.000 A 
ATOM     41  C   UNL     1      -4.745   4.203 133.436  0.00  0.00    +0.000 A 
ATOM     42  C   UNL     1      -4.649   3.623 132.193  0.00  0.00    +0.000 A 
ATOM     43  C   UNL     1      -5.699   3.828 131.260  0.00  0.00    +0.000 A 
BRANCH  41  44
ATOM     44  O   UNL     1      -3.745   4.013 134.340  0.00  0.00    +0.000 OA
ATOM     45  H   UNL     1      -3.941   4.461 135.183  0.00  0.00    +0.000 HD
ENDBRANCH  41  44
ENDBRANCH  12  38
BRANCH  29  46
ATOM     46  C   UNL     1      -8.556   1.408 127.324  0.00  0.00    +0.000 C 
ATOM     47  C   UNL     1      -9.504   0.801 126.385  0.00  0.00    +0.000 C 
BRANCH  46  48
ATOM     48  O   UNL     1      -9.449   2.064 128.160  0.00  0.00    +0.000 OA
ATOM     49  H   UNL     1      -9.784   1.553 128.885  0.00  0.00    +0.000 HD
ENDBRANCH  46  48
ENDBRANCH  29  46
BRANCH   8  50
ATOM     50  C   UNL     1      -4.934   4.394 124.778  0.00  0.00    +0.000 C 
ATOM     51  C   UNL     1      -3.498   3.858 124.880  0.00  0.00    +0.000 C 
BRANCH  50  53
ATOM     52  C   UNL     1      -5.292   4.388 122.190  0.00  0.00    +0.000 C 
ATOM     53  C   UNL     1      -5.431   3.469 123.364  0.00  0.00    +0.000 C 
ENDBRANCH  50  53
ENDBRANCH   8  50
BRANCH  25  54
ATOM     54  C   UNL     1      -6.566   0.457 131.032  0.00  0.00    +0.000 C 
BRANCH  54  55
ATOM     55  C   UNL     1      -5.073   0.871 132.277  0.00  0.00    +0.000 C 
ATOM     56  N   UNL     1      -5.487   0.586 134.009  0.00  0.00    +0.000 N 
ATOM     57  O   UNL     1      -3.859   0.989 131.906  0.00  0.00    +0.000 OA
ATOM     58  H   UNL     1      -6.657   0.479 134.087  0.00  0.00    +0.000 HD
ATOM     59  H   UNL     1      -5.321   0.746 135.010  0.00  0.00    +0.000 HD
ENDBRANCH  54  55
ENDBRANCH  25  54
ENDBRANCH   1  21
BRANCH   7  60
ATOM     60  C   UNL     1      -3.358  -3.246 131.885  0.00  0.00    +0.000 C 
ATOM     61  O   UNL     1      -3.999  -4.298 131.945  0.00  0.00    +0.000 OA
ATOM     62  N   UNL     1      -2.869  -2.630 133.013  0.00  0.00    +0.000 N 
ATOM     63  H   UNL     1      -2.440  -1.713 132.951  0.00  0.00    +0.000 HD
BRANCH  62  64
ATOM     64  C   UNL     1      -3.130  -3.151 134.389  0.00  0.00    +0.000 C 
BRANCH  64  65
ATOM     65  C   UNL     1      -4.602  -2.810 134.840  0.00  0.00    +0.000 C 
ATOM     66  O   UNL     1      -4.805  -1.886 135.633  0.00  0.00    +0.000 OA
ATOM     67  N   UNL     1      -5.652  -3.563 134.316  0.00  0.00    +0.000 N 
ATOM     68  H   UNL     1      -5.497  -4.338 133.689  0.00  0.00    +0.000 HD
BRANCH  67  69
ATOM     69  C   UNL     1      -7.009  -3.314 134.728  0.00  0.00    +0.000 C 
BRANCH  69  70
ATOM     70  N   UNL     1      -7.396  -1.991 134.285  0.00  0.00    +0.000 NA
ATOM     71  H   UNL     1      -7.853  -1.482 135.037  0.00  0.00    +0.000 HD
ATOM     72  H   UNL     1      -8.131  -2.099 133.577  0.00  0.00    +0.000 HD
ENDBRANCH  69  70
ENDBRANCH  67  69
ENDBRANCH  64  65
BRANCH  64  73
ATOM     73  C   UNL     1      -2.119  -2.546 135.389  0.00  0.00    +0.000 C 
BRANCH  73  74
ATOM     74  C   UNL     1      -1.999  -3.346 136.694  0.00  0.00    +0.000 C 
BRANCH  74  75
ATOM     75  C   UNL     1      -2.213  -2.641 138.015  0.00  0.00    +0.000 C 
BRANCH  75  76
ATOM     76  N   UNL     1      -3.366  -1.573 137.974  0.00  0.00    +0.000 N 
ATOM     77  C   UNL     1      -3.084  -0.149 137.827  0.00  0.00    +0.000 C 
ATOM     78  O   UNL     1      -1.858   0.055 137.955  0.00  0.00    +0.000 OA
ATOM     79  H   UNL     1      -4.284  -1.977 138.062  0.00  0.00    +0.000 HD
BRANCH  77  80
ATOM     80  C   UNL     1      -4.041   1.339 137.560  0.00  0.00    +0.000 A 
ATOM     81  C   UNL     1      -3.777   2.128 138.607  0.00  0.00    +0.000 A 
ATOM     82  C   UNL     1      -4.812   3.039 138.989  0.00  0.00    +0.000 A 
ATOM     83  C   UNL     1      -4.735   4.218 138.340  0.00  0.00    +0.000 A 
ATOM     84  C   UNL     1      -5.412   4.150 137.147  0.00  0.00    +0.000 A 
ATOM     85  C   UNL     1      -5.042   2.377 136.823  0.00  0.00    +0.000 A 
ATOM     86  C   UNL     1      -5.209   6.119 137.257  0.00  0.00    +0.000 C 
ATOM     87  O   UNL     1      -4.022   6.230 138.121  0.00  0.00    +0.000 OA
ATOM     88  C   UNL     1      -3.529   5.034 138.388  0.00  0.00    +0.000 C 
ATOM     89  O   UNL     1      -2.402   4.726 138.715  0.00  0.00    +0.000 OA
ATOM     90  C   UNL     1      -6.557   7.167 137.956  0.00  0.00    +0.000 A 
ATOM     91  C   UNL     1      -7.872   6.744 138.155  0.00  0.00    +0.000 A 
ATOM     92  C   UNL     1      -9.047   7.631 138.079  0.00  0.00    +0.000 A 
ATOM     93  C   UNL     1      -8.974   9.011 137.877  0.00  0.00    +0.000 A 
ATOM     94  C   UNL     1      -7.711   9.549 137.844  0.00  0.00    +0.000 A 
ATOM     95  C   UNL     1      -6.549   8.649 137.916  0.00  0.00    +0.000 A 
ATOM     96  O   UNL     1      -5.379   9.354 137.961  0.00  0.00    +0.000 OA
ATOM     97  C   UNL     1      -4.387   8.841 137.160  0.00  0.00    +0.000 A 
ATOM     98  C   UNL     1      -3.280   9.797 137.094  0.00  0.00    +0.000 A 
ATOM     99  C   UNL     1      -2.264   9.557 136.214  0.00  0.00    +0.000 A 
ATOM    100  C   UNL     1      -2.496   8.527 135.301  0.00  0.00    +0.000 A 
ATOM    101  C   UNL     1      -3.623   7.585 135.355  0.00  0.00    +0.000 A 
ATOM    102  C   UNL     1      -4.525   7.550 136.408  0.00  0.00    +0.000 A 
BRANCH  99 103
ATOM    103  O   UNL     1      -1.080  10.245 136.176  0.00  0.00    +0.000 OA
ATOM    104  H   UNL     1      -0.982  10.808 135.386  0.00  0.00    +0.000 HD
ENDBRANCH  99 103
BRANCH  93 105
ATOM    105  O   UNL     1     -10.054   9.835 137.707  0.00  0.00    +0.000 OA
ATOM    106  H   UNL     1     -10.264  10.345 138.510  0.00  0.00    +0.000 HD
ENDBRANCH  93 105
ENDBRANCH  77  80
ENDBRANCH  75  76
ENDBRANCH  74  75
ENDBRANCH  73  74
ENDBRANCH  64  73
ENDBRANCH  62  64
ENDBRANCH   7  60
TORSDOF 21
ENDMDL
MODEL 4
REMARK VINA RESULT:      -8.2      4.066      9.623
REMARK  Name = CHEMBL1790711
REMARK  24 active torsions:
REMARK  status: ('A' for Active; 'I' for Inactive)
REMARK    1  A    between atoms: C_1  and  C_2
REMARK    2  A    between atoms: C_2  and  C_3
REMARK    3  A    between atoms: C_3  and  C_4
REMARK    4  A    between atoms: C_3  and  C_5
REMARK    5  A    between atoms: C_9  and  C_10
REMARK    6  A    between atoms: C_13  and  O_14
REMARK    7  A    between atoms: C_25  and  C_26
REMARK    8  A    between atoms: C_32  and  C_33
REMARK    9  A    between atoms: N_35  and  C_36
REMARK   10  A    between atoms: C_36  and  C_37
REMARK   11  A    between atoms: C_36  and  C_68
REMARK   12  A    between atoms: C_37  and  C_38
REMARK   13  A    between atoms: C_38  and  C_39
REMARK   14  A    between atoms: C_39  and  N_40
REMARK   15  A    between atoms: C_41  and  C_43
REMARK   16  A    between atoms: C_56  and  O_57
REMARK   17  A    between atoms: C_63  and  O_64
REMARK   18  A    between atoms: N_70  and  C_71
REMARK   19  A    between atoms: C_71  and  N_72
REMARK   20  A    between atoms: C_76  and  C_77
REMARK   21  A    between atoms: C_77  and  C_78
REMARK   22  A    between atoms: C_84  and  C_85
REMARK   23  A    between atoms: C_85  and  C_86
REMARK   24  A    between atoms: C_85  and  O_87
REMARK                            x       y       z     vdW  Elec       q    Type
REMARK                         _______ _______ _______ _____ _____    ______ ____
ROOT
ATOM      1  C   UNL     1      -4.680   3.205 140.515  0.00  0.00    +0.000 C 
ATOM      2  O   UNL     1      -4.363   2.725 139.409  0.00  0.00    +0.000 OA
ATOM      3  N   UNL     1      -5.953   3.061 140.952  0.00  0.00    +0.000 N 
ATOM      4  C   UNL     1      -6.641   3.834 141.947  0.00  0.00    +0.000 C 
ATOM      5  C   UNL     1      -7.206   2.754 142.803  0.00  0.00    +0.000 C 
ATOM      6  C   UNL     1      -7.633   1.703 141.759  0.00  0.00    +0.000 C 
ATOM      7  C   UNL     1      -6.667   1.847 140.580  0.00  0.00    +0.000 C 
ENDROOT
BRANCH   1  21
ATOM      8  C   UNL     1      -7.236  10.098 138.680  0.00  0.00    +0.000 C 
ATOM      9  N   UNL     1      -5.305  10.102 138.297  0.00  0.00    +0.000 N 
ATOM     10  C   UNL     1      -3.890   9.716 137.601  0.00  0.00    +0.000 C 
ATOM     11  O   UNL     1      -2.848   9.950 138.283  0.00  0.00    +0.000 OA
ATOM     12  C   UNL     1      -3.523   9.247 135.991  0.00  0.00    +0.000 C 
ATOM     13  N   UNL     1      -2.247   9.736 135.273  0.00  0.00    +0.000 N 
ATOM     14  C   UNL     1      -0.936   9.293 135.161  0.00  0.00    +0.000 C 
ATOM     15  O   UNL     1      -0.188   9.803 134.315  0.00  0.00    +0.000 OA
ATOM     16  C   UNL     1      -0.337   8.189 136.001  0.00  0.00    +0.000 C 
ATOM     17  C   UNL     1      -1.283   7.562 136.914  0.00  0.00    +0.000 C 
ATOM     18  S   UNL     1      -0.494   6.631 138.114  0.00  0.00    +0.000 S 
ATOM     19  S   UNL     1      -2.336   6.808 139.624  0.00  0.00    +0.000 S 
ATOM     20  C   UNL     1      -2.568   4.700 140.875  0.00  0.00    +0.000 C 
ATOM     21  C   UNL     1      -3.741   4.014 141.473  0.00  0.00    +0.000 C 
ATOM     22  N   UNL     1      -4.138   5.103 142.218  0.00  0.00    +0.000 N 
ATOM     23  C   UNL     1      -4.759   6.112 141.605  0.00  0.00    +0.000 C 
ATOM     24  O   UNL     1      -5.339   6.843 142.416  0.00  0.00    +0.000 OA
ATOM     25  C   UNL     1      -4.668   6.298 139.922  0.00  0.00    +0.000 C 
ATOM     26  N   UNL     1      -5.961   6.601 139.528  0.00  0.00    +0.000 N 
ATOM     27  C   UNL     1      -6.504   7.791 139.799  0.00  0.00    +0.000 C 
ATOM     28  O   UNL     1      -7.639   7.760 139.320  0.00  0.00    +0.000 OA
ATOM     29  C   UNL     1      -5.831   9.061 140.746  0.00  0.00    +0.000 C 
ATOM     30  N   UNL     1      -5.936  10.602 140.522  0.00  0.00    +0.000 N 
ATOM     31  C   UNL     1      -6.730  11.194 139.527  0.00  0.00    +0.000 C 
ATOM     32  O   UNL     1      -6.732  12.354 139.144  0.00  0.00    +0.000 OA
ATOM     33  H   UNL     1      -4.694  10.770 138.818  0.00  0.00    +0.000 HD
ATOM     34  H   UNL     1      -2.436  10.425 134.551  0.00  0.00    +0.000 HD
ATOM     35  H   UNL     1      -3.969   5.156 143.209  0.00  0.00    +0.000 HD
ATOM     36  H   UNL     1      -6.421   6.098 138.787  0.00  0.00    +0.000 HD
ATOM     37  H   UNL     1      -5.020  10.868 140.244  0.00  0.00    +0.000 HD
BRANCH  12  38
ATOM     38  C   UNL     1      -3.763   7.771 135.633  0.00  0.00    +0.000 A 
ATOM     39  C   UNL     1      -3.009   7.399 134.549  0.00  0.00    +0.000 A 
ATOM     40  C   UNL     1      -3.147   6.151 133.981  0.00  0.00    +0.000 A 
ATOM     41  C   UNL     1      -4.199   5.312 134.303  0.00  0.00    +0.000 A 
ATOM     42  C   UNL     1      -5.043   5.651 135.334  0.00  0.00    +0.000 A 
ATOM     43  C   UNL     1      -4.782   6.837 136.069  0.00  0.00    +0.000 A 
BRANCH  41  44
ATOM     44  O   UNL     1      -4.438   4.177 133.591  0.00  0.00    +0.000 OA
ATOM     45  H   UNL     1      -4.949   4.367 132.783  0.00  0.00    +0.000 HD
ENDBRANCH  41  44
ENDBRANCH  12  38
BRANCH  29  46
ATOM     46  C   UNL     1      -4.368   8.871 141.175  0.00  0.00    +0.000 C 
ATOM     47  C   UNL     1      -4.126   9.244 142.572  0.00  0.00    +0.000 C 
BRANCH  46  48
ATOM     48  O   UNL     1      -3.234   9.416 140.591  0.00  0.00    +0.000 OA
ATOM     49  H   UNL     1      -2.411   9.199 141.010  0.00  0.00    +0.000 HD
ENDBRANCH  46  48
ENDBRANCH  29  46
BRANCH   8  50
ATOM     50  C   UNL     1      -9.053  10.585 139.270  0.00  0.00    +0.000 C 
ATOM     51  C   UNL     1     -10.211   9.848 138.582  0.00  0.00    +0.000 C 
BRANCH  50  53
ATOM     52  C   UNL     1      -9.740  11.671 141.546  0.00  0.00    +0.000 C 
ATOM     53  C   UNL     1      -9.559  10.316 140.936  0.00  0.00    +0.000 C 
ENDBRANCH  50  53
ENDBRANCH   8  50
BRANCH  25  54
ATOM     54  C   UNL     1      -3.807   5.134 139.093  0.00  0.00    +0.000 C 
BRANCH  54  55
ATOM     55  C   UNL     1      -4.350   3.994 137.559  0.00  0.00    +0.000 C 
ATOM     56  N   UNL     1      -3.012   2.960 136.929  0.00  0.00    +0.000 N 
ATOM     57  O   UNL     1      -5.564   3.745 137.261  0.00  0.00    +0.000 OA
ATOM     58  H   UNL     1      -2.002   3.371 137.369  0.00  0.00    +0.000 HD
ATOM     59  H   UNL     1      -2.590   2.396 136.182  0.00  0.00    +0.000 HD
ENDBRANCH  54  55
ENDBRANCH  25  54
ENDBRANCH   1  21
BRANCH   7  60
ATOM     60  C   UNL     1      -5.668   0.690 140.388  0.00  0.00    +0.000 C 
ATOM     61  O   UNL     1      -5.049   0.274 141.370  0.00  0.00    +0.000 OA
ATOM     62  N   UNL     1      -5.466   0.173 139.131  0.00  0.00    +0.000 N 
ATOM     63  H   UNL     1      -5.904   0.602 138.323  0.00  0.00    +0.000 HD
BRANCH  62  64
ATOM     64  C   UNL     1      -4.443  -0.880 138.851  0.00  0.00    +0.000 C 
BRANCH  64  65
ATOM     65  C   UNL     1      -3.020  -0.231 138.653  0.00  0.00    +0.000 C 
ATOM     66  O   UNL     1      -2.526  -0.163 137.523  0.00  0.00    +0.000 OA
ATOM     67  N   UNL     1      -2.352   0.266 139.770  0.00  0.00    +0.000 N 
ATOM     68  H   UNL     1      -2.733   0.192 140.702  0.00  0.00    +0.000 HD
BRANCH  67  69
ATOM     69  C   UNL     1      -1.033   0.832 139.644  0.00  0.00    +0.000 C 
BRANCH  69  70
ATOM     70  N   UNL     1      -1.138   2.111 138.973  0.00  0.00    +0.000 NA
ATOM     71  H   UNL     1      -2.021   2.181 138.474  0.00  0.00    +0.000 HD
ATOM     72  H   UNL     1      -0.431   2.134 138.228  0.00  0.00    +0.000 HD
ENDBRANCH  69  70
ENDBRANCH  67  69
ENDBRANCH  64  65
BRANCH  64  73
ATOM     73  C   UNL     1      -4.836  -1.684 137.592  0.00  0.00    +0.000 C 
BRANCH  73  74
ATOM     74  C   UNL     1      -6.329  -1.585 137.245  0.00  0.00    +0.000 C 
BRANCH  74  75
ATOM     75  C   UNL     1      -6.864  -2.351 136.056  0.00  0.00    +0.000 C 
BRANCH  75  76
ATOM     76  N   UNL     1      -6.386  -1.774 134.675  0.00  0.00    +0.000 N 
ATOM     77  C   UNL     1      -7.250  -1.788 133.500  0.00  0.00    +0.000 C 
ATOM     78  O   UNL     1      -8.263  -2.485 133.728  0.00  0.00    +0.000 OA
ATOM     79  H   UNL     1      -5.446  -1.412 134.700  0.00  0.00    +0.000 HD
BRANCH  77  80
ATOM     80  C   UNL     1      -7.198  -1.108 131.845  0.00  0.00    +0.000 A 
ATOM     81  C   UNL     1      -7.643   0.148 131.960  0.00  0.00    +0.000 A 
ATOM     82  C   UNL     1      -8.290   0.695 130.807  0.00  0.00    +0.000 A 
ATOM     83  C   UNL     1      -7.430   1.293 129.959  0.00  0.00    +0.000 A 
ATOM     84  C   UNL     1      -6.917   0.376 129.076  0.00  0.00    +0.000 A 
ATOM     85  C   UNL     1      -6.928  -1.041 130.250  0.00  0.00    +0.000 A 
ATOM     86  C   UNL     1      -6.357   2.029 128.137  0.00  0.00    +0.000 C 
ATOM     87  O   UNL     1      -6.311   2.984 129.257  0.00  0.00    +0.000 OA
ATOM     88  C   UNL     1      -6.552   2.370 130.401  0.00  0.00    +0.000 C 
ATOM     89  O   UNL     1      -6.238   2.696 131.527  0.00  0.00    +0.000 OA
ATOM     90  C   UNL     1      -7.394   2.742 126.787  0.00  0.00    +0.000 A 
ATOM     91  C   UNL     1      -8.418   2.062 126.127  0.00  0.00    +0.000 A 
ATOM     92  C   UNL     1      -8.800   2.301 124.723  0.00  0.00    +0.000 A 
ATOM     93  C   UNL     1      -8.232   3.289 123.916  0.00  0.00    +0.000 A 
ATOM     94  C   UNL     1      -7.334   4.128 124.530  0.00  0.00    +0.000 A 
ATOM     95  C   UNL     1      -6.961   3.872 125.930  0.00  0.00    +0.000 A 
ATOM     96  O   UNL     1      -6.133   4.848 126.407  0.00  0.00    +0.000 OA
ATOM     97  C   UNL     1      -5.080   4.373 127.152  0.00  0.00    +0.000 A 
ATOM     98  C   UNL     1      -4.135   5.463 127.399  0.00  0.00    +0.000 A 
ATOM     99  C   UNL     1      -2.934   5.166 127.977  0.00  0.00    +0.000 A 
ATOM    100  C   UNL     1      -2.638   3.805 128.072  0.00  0.00    +0.000 A 
ATOM    101  C   UNL     1      -3.582   2.712 127.798  0.00  0.00    +0.000 A 
ATOM    102  C   UNL     1      -4.924   2.927 127.523  0.00  0.00    +0.000 A 
BRANCH  99 103
ATOM    103  O   UNL     1      -2.039   6.090 128.446  0.00  0.00    +0.000 OA
ATOM    104  H   UNL     1      -1.217   5.694 128.794  0.00  0.00    +0.000 HD
ENDBRANCH  99 103
BRANCH  93 105
ATOM    105  O   UNL     1      -8.503   3.462 122.585  0.00  0.00    +0.000 OA
ATOM    106  H   UNL     1      -7.849   3.024 122.012  0.00  0.00    +0.000 HD
ENDBRANCH  93 105
ENDBRANCH  77  80
ENDBRANCH  75  76
ENDBRANCH  74  75
ENDBRANCH  73  74
ENDBRANCH  64  73
ENDBRANCH  62  64
ENDBRANCH   7  60
TORSDOF 21
ENDMDL
MODEL 5
REMARK VINA RESULT:      -8.2      2.697      8.030
REMARK  Name = CHEMBL1790711
REMARK  24 active torsions:
REMARK  status: ('A' for Active; 'I' for Inactive)
REMARK    1  A    between atoms: C_1  and  C_2
REMARK    2  A    between atoms: C_2  and  C_3
REMARK    3  A    between atoms: C_3  and  C_4
REMARK    4  A    between atoms: C_3  and  C_5
REMARK    5  A    between atoms: C_9  and  C_10
REMARK    6  A    between atoms: C_13  and  O_14
REMARK    7  A    between atoms: C_25  and  C_26
REMARK    8  A    between atoms: C_32  and  C_33
REMARK    9  A    between atoms: N_35  and  C_36
REMARK   10  A    between atoms: C_36  and  C_37
REMARK   11  A    between atoms: C_36  and  C_68
REMARK   12  A    between atoms: C_37  and  C_38
REMARK   13  A    between atoms: C_38  and  C_39
REMARK   14  A    between atoms: C_39  and  N_40
REMARK   15  A    between atoms: C_41  and  C_43
REMARK   16  A    between atoms: C_56  and  O_57
REMARK   17  A    between atoms: C_63  and  O_64
REMARK   18  A    between atoms: N_70  and  C_71
REMARK   19  A    between atoms: C_71  and  N_72
REMARK   20  A    between atoms: C_76  and  C_77
REMARK   21  A    between atoms: C_77  and  C_78
REMARK   22  A    between atoms: C_84  and  C_85
REMARK   23  A    between atoms: C_85  and  C_86
REMARK   24  A    between atoms: C_85  and  O_87
REMARK                            x       y       z     vdW  Elec       q    Type
REMARK                         _______ _______ _______ _____ _____    ______ ____
ROOT
ATOM      1  C   UNL     1      -5.482   0.278 131.926  0.00  0.00    +0.000 C 
ATOM      2  O   UNL     1      -4.920   1.304 132.358  0.00  0.00    +0.000 OA
ATOM      3  N   UNL     1      -6.833   0.208 131.955  0.00  0.00    +0.000 N 
ATOM      4  C   UNL     1      -7.661  -0.963 131.903  0.00  0.00    +0.000 C 
ATOM      5  C   UNL     1      -8.629  -0.577 130.838  0.00  0.00    +0.000 C 
ATOM      6  C   UNL     1      -8.875   0.912 131.148  0.00  0.00    +0.000 C 
ATOM      7  C   UNL     1      -7.583   1.444 131.773  0.00  0.00    +0.000 C 
ENDROOT
BRANCH   1  21
ATOM      8  C   UNL     1      -7.059  -4.288 137.764  0.00  0.00    +0.000 C 
ATOM      9  N   UNL     1      -5.097  -4.255 137.600  0.00  0.00    +0.000 N 
ATOM     10  C   UNL     1      -3.579  -3.681 137.602  0.00  0.00    +0.000 C 
ATOM     11  O   UNL     1      -2.731  -4.335 136.925  0.00  0.00    +0.000 OA
ATOM     12  C   UNL     1      -2.846  -2.453 138.552  0.00  0.00    +0.000 C 
ATOM     13  N   UNL     1      -1.402  -2.587 139.082  0.00  0.00    +0.000 N 
ATOM     14  C   UNL     1      -0.135  -2.270 138.609  0.00  0.00    +0.000 C 
ATOM     15  O   UNL     1       0.832  -2.308 139.383  0.00  0.00    +0.000 OA
ATOM     16  C   UNL     1       0.163  -1.850 137.190  0.00  0.00    +0.000 C 
ATOM     17  C   UNL     1      -1.021  -1.733 136.348  0.00  0.00    +0.000 C 
ATOM     18  S   UNL     1      -0.620  -1.667 134.685  0.00  0.00    +0.000 S 
ATOM     19  S   UNL     1      -2.770  -2.468 134.019  0.00  0.00    +0.000 S 
ATOM     20  C   UNL     1      -3.441  -1.354 131.929  0.00  0.00    +0.000 C 
ATOM     21  C   UNL     1      -4.768  -0.998 131.364  0.00  0.00    +0.000 C 
ATOM     22  N   UNL     1      -5.272  -2.277 131.453  0.00  0.00    +0.000 N 
ATOM     23  C   UNL     1      -5.654  -2.739 132.645  0.00  0.00    +0.000 C 
ATOM     24  O   UNL     1      -6.374  -3.737 132.531  0.00  0.00    +0.000 OA
ATOM     25  C   UNL     1      -5.128  -1.997 134.076  0.00  0.00    +0.000 C 
ATOM     26  N   UNL     1      -6.258  -1.925 134.874  0.00  0.00    +0.000 N 
ATOM     27  C   UNL     1      -6.778  -3.021 135.435  0.00  0.00    +0.000 C 
ATOM     28  O   UNL     1      -7.755  -2.638 136.081  0.00  0.00    +0.000 OA
ATOM     29  C   UNL     1      -6.289  -4.655 135.195  0.00  0.00    +0.000 C 
ATOM     30  N   UNL     1      -6.239  -5.817 136.237  0.00  0.00    +0.000 N 
ATOM     31  C   UNL     1      -6.716  -5.708 137.552  0.00  0.00    +0.000 C 
ATOM     32  O   UNL     1      -6.550  -6.474 138.490  0.00  0.00    +0.000 OA
ATOM     33  H   UNL     1      -4.597  -5.149 137.393  0.00  0.00    +0.000 HD
ATOM     34  H   UNL     1      -1.359  -2.760 140.082  0.00  0.00    +0.000 HD
ATOM     35  H   UNL     1      -5.356  -2.869 130.643  0.00  0.00    +0.000 HD
ATOM     36  H   UNL     1      -6.546  -1.065 135.310  0.00  0.00    +0.000 HD
ATOM     37  H   UNL     1      -5.267  -5.970 136.380  0.00  0.00    +0.000 HD
BRANCH  12  38
ATOM     38  C   UNL     1      -3.078  -1.001 138.099  0.00  0.00    +0.000 A 
ATOM     39  C   UNL     1      -2.190  -0.149 138.704  0.00  0.00    +0.000 A 
ATOM     40  C   UNL     1      -2.283   1.215 138.533  0.00  0.00    +0.000 A 
ATOM     41  C   UNL     1      -3.397   1.807 137.963  0.00  0.00    +0.000 A 
ATOM     42  C   UNL     1      -4.368   1.014 137.397  0.00  0.00    +0.000 A 
ATOM     43  C   UNL     1      -4.178  -0.392 137.378  0.00  0.00    +0.000 A 
BRANCH  41  44
ATOM     44  O   UNL     1      -3.567   3.157 137.987  0.00  0.00    +0.000 OA
ATOM     45  H   UNL     1      -4.038   3.440 138.790  0.00  0.00    +0.000 HD
ENDBRANCH  41  44
ENDBRANCH  12  38
BRANCH  29  46
ATOM     46  C   UNL     1      -4.997  -4.854 134.389  0.00  0.00    +0.000 C 
ATOM     47  C   UNL     1      -5.129  -5.863 133.333  0.00  0.00    +0.000 C 
BRANCH  46  48
ATOM     48  O   UNL     1      -3.738  -5.186 134.869  0.00  0.00    +0.000 OA
ATOM     49  H   UNL     1      -3.413  -4.646 135.578  0.00  0.00    +0.000 HD
ENDBRANCH  46  48
ENDBRANCH  29  46
BRANCH   8  50
ATOM     50  C   UNL     1      -8.932  -4.856 137.999  0.00  0.00    +0.000 C 
ATOM     51  C   UNL     1      -9.911  -3.779 138.490  0.00  0.00    +0.000 C 
BRANCH  50  53
ATOM     52  C   UNL     1     -10.622  -6.636 137.099  0.00  0.00    +0.000 C 
ATOM     53  C   UNL     1      -9.877  -5.425 136.626  0.00  0.00    +0.000 C 
ENDBRANCH  50  53
ENDBRANCH   8  50
BRANCH  25  54
ATOM     54  C   UNL     1      -4.160  -0.650 133.900  0.00  0.00    +0.000 C 
BRANCH  54  55
ATOM     55  C   UNL     1      -4.406   1.199 134.584  0.00  0.00    +0.000 C 
ATOM     56  N   UNL     1      -3.004   2.281 134.240  0.00  0.00    +0.000 N 
ATOM     57  O   UNL     1      -5.537   1.683 134.917  0.00  0.00    +0.000 OA
ATOM     58  H   UNL     1      -2.095   1.603 133.924  0.00  0.00    +0.000 HD
ATOM     59  H   UNL     1      -2.453   3.126 134.434  0.00  0.00    +0.000 HD
ENDBRANCH  54  55
ENDBRANCH  25  54
ENDBRANCH   1  21
BRANCH   7  60
ATOM     60  C   UNL     1      -6.772   2.423 130.903  0.00  0.00    +0.000 C 
ATOM     61  O   UNL     1      -6.522   3.545 131.350  0.00  0.00    +0.000 OA
ATOM     62  N   UNL     1      -6.376   2.040 129.644  0.00  0.00    +0.000 N 
ATOM     63  H   UNL     1      -6.685   1.155 129.256  0.00  0.00    +0.000 HD
BRANCH  62  64
ATOM     64  C   UNL     1      -5.674   2.968 128.706  0.00  0.00    +0.000 C 
BRANCH  64  65
ATOM     65  C   UNL     1      -6.474   3.096 127.353  0.00  0.00    +0.000 C 
ATOM     66  O   UNL     1      -6.861   2.081 126.767  0.00  0.00    +0.000 OA
ATOM     67  N   UNL     1      -6.739   4.370 126.853  0.00  0.00    +0.000 N 
ATOM     68  H   UNL     1      -6.405   5.207 127.308  0.00  0.00    +0.000 HD
BRANCH  67  69
ATOM     69  C   UNL     1      -7.432   4.537 125.601  0.00  0.00    +0.000 C 
BRANCH  69  70
ATOM     70  N   UNL     1      -8.578   5.396 125.814  0.00  0.00    +0.000 NA
ATOM     71  H   UNL     1      -9.277   5.243 125.093  0.00  0.00    +0.000 HD
ATOM     72  H   UNL     1      -8.276   6.366 125.665  0.00  0.00    +0.000 HD
ENDBRANCH  69  70
ENDBRANCH  67  69
ENDBRANCH  64  65
BRANCH  64  73
ATOM     73  C   UNL     1      -4.242   2.460 128.425  0.00  0.00    +0.000 C 
BRANCH  73  74
ATOM     74  C   UNL     1      -3.735   2.812 127.019  0.00  0.00    +0.000 C 
BRANCH  74  75
ATOM     75  C   UNL     1      -3.149   4.183 126.767  0.00  0.00    +0.000 C 
BRANCH  75  76
ATOM     76  N   UNL     1      -2.629   4.889 128.072  0.00  0.00    +0.000 N 
ATOM     77  C   UNL     1      -3.421   5.902 128.761  0.00  0.00    +0.000 C 
ATOM     78  O   UNL     1      -4.398   6.228 128.053  0.00  0.00    +0.000 OA
ATOM     79  H   UNL     1      -1.717   4.571 128.358  0.00  0.00    +0.000 HD
BRANCH  77  80
ATOM     80  C   UNL     1      -3.316   6.798 130.306  0.00  0.00    +0.000 A 
ATOM     81  C   UNL     1      -3.617   5.908 131.257  0.00  0.00    +0.000 A 
ATOM     82  C   UNL     1      -4.216   6.433 132.446  0.00  0.00    +0.000 A 
ATOM     83  C   UNL     1      -3.306   6.807 133.368  0.00  0.00    +0.000 A 
ATOM     84  C   UNL     1      -2.910   8.103 133.149  0.00  0.00    +0.000 A 
ATOM     85  C   UNL     1      -3.062   8.038 131.316  0.00  0.00    +0.000 A 
ATOM     86  C   UNL     1      -2.183   7.881 134.980  0.00  0.00    +0.000 C 
ATOM     87  O   UNL     1      -2.016   6.419 135.039  0.00  0.00    +0.000 OA
ATOM     88  C   UNL     1      -2.309   5.871 133.873  0.00  0.00    +0.000 C 
ATOM     89  O   UNL     1      -1.945   4.809 133.413  0.00  0.00    +0.000 OA
ATOM     90  C   UNL     1      -3.153   8.431 136.450  0.00  0.00    +0.000 A 
ATOM     91  C   UNL     1      -4.255   9.286 136.403  0.00  0.00    +0.000 A 
ATOM     92  C   UNL     1      -4.627  10.218 137.483  0.00  0.00    +0.000 A 
ATOM     93  C   UNL     1      -3.965  10.298 138.709  0.00  0.00    +0.000 A 
ATOM     94  C   UNL     1      -2.971   9.373 138.920  0.00  0.00    +0.000 A 
ATOM     95  C   UNL     1      -2.609   8.453 137.830  0.00  0.00    +0.000 A 
ATOM     96  O   UNL     1      -1.672   7.547 138.238  0.00  0.00    +0.000 OA
ATOM     97  C   UNL     1      -0.668   7.332 137.324  0.00  0.00    +0.000 A 
ATOM     98  C   UNL     1       0.395   6.547 137.954  0.00  0.00    +0.000 A 
ATOM     99  C   UNL     1       1.564   6.367 137.270  0.00  0.00    +0.000 A 
ATOM    100  C   UNL     1       1.708   7.144 136.120  0.00  0.00    +0.000 A 
ATOM    101  C   UNL     1       0.645   7.951 135.505  0.00  0.00    +0.000 A 
ATOM    102  C   UNL     1      -0.668   7.932 135.949  0.00  0.00    +0.000 A 
BRANCH  99 103
ATOM    103  O   UNL     1       2.563   5.505 137.638  0.00  0.00    +0.000 OA
ATOM    104  H   UNL     1       3.259   5.405 136.962  0.00  0.00    +0.000 HD
ENDBRANCH  99 103
BRANCH  93 105
ATOM    105  O   UNL     1      -4.232  11.222 139.684  0.00  0.00    +0.000 OA
ATOM    106  H   UNL     1      -4.269  10.826 140.572  0.00  0.00    +0.000 HD
ENDBRANCH  93 105
ENDBRANCH  77  80
ENDBRANCH  75  76
ENDBRANCH  74  75
ENDBRANCH  73  74
ENDBRANCH  64  73
ENDBRANCH  62  64
ENDBRANCH   7  60
TORSDOF 21
ENDMDL
MODEL 6
REMARK VINA RESULT:      -7.9      4.156      9.800
REMARK  Name = CHEMBL1790711
REMARK  24 active torsions:
REMARK  status: ('A' for Active; 'I' for Inactive)
REMARK    1  A    between atoms: C_1  and  C_2
REMARK    2  A    between atoms: C_2  and  C_3
REMARK    3  A    between atoms: C_3  and  C_4
REMARK    4  A    between atoms: C_3  and  C_5
REMARK    5  A    between atoms: C_9  and  C_10
REMARK    6  A    between atoms: C_13  and  O_14
REMARK    7  A    between atoms: C_25  and  C_26
REMARK    8  A    between atoms: C_32  and  C_33
REMARK    9  A    between atoms: N_35  and  C_36
REMARK   10  A    between atoms: C_36  and  C_37
REMARK   11  A    between atoms: C_36  and  C_68
REMARK   12  A    between atoms: C_37  and  C_38
REMARK   13  A    between atoms: C_38  and  C_39
REMARK   14  A    between atoms: C_39  and  N_40
REMARK   15  A    between atoms: C_41  and  C_43
REMARK   16  A    between atoms: C_56  and  O_57
REMARK   17  A    between atoms: C_63  and  O_64
REMARK   18  A    between atoms: N_70  and  C_71
REMARK   19  A    between atoms: C_71  and  N_72
REMARK   20  A    between atoms: C_76  and  C_77
REMARK   21  A    between atoms: C_77  and  C_78
REMARK   22  A    between atoms: C_84  and  C_85
REMARK   23  A    between atoms: C_85  and  C_86
REMARK   24  A    between atoms: C_85  and  O_87
REMARK                            x       y       z     vdW  Elec       q    Type
REMARK                         _______ _______ _______ _____ _____    ______ ____
ROOT
ATOM      1  C   UNL     1      -4.711   3.301 140.792  0.00  0.00    +0.000 C 
ATOM      2  O   UNL     1      -4.358   2.763 139.725  0.00  0.00    +0.000 OA
ATOM      3  N   UNL     1      -6.007   3.215 141.172  0.00  0.00    +0.000 N 
ATOM      4  C   UNL     1      -6.716   4.053 142.098  0.00  0.00    +0.000 C 
ATOM      5  C   UNL     1      -7.356   3.029 142.971  0.00  0.00    +0.000 C 
ATOM      6  C   UNL     1      -7.767   1.947 141.954  0.00  0.00    +0.000 C 
ATOM      7  C   UNL     1      -6.742   2.008 140.818  0.00  0.00    +0.000 C 
ENDROOT
BRANCH   1  21
ATOM      8  C   UNL     1      -7.150  10.173 138.733  0.00  0.00    +0.000 C 
ATOM      9  N   UNL     1      -5.209  10.153 138.406  0.00  0.00    +0.000 N 
ATOM     10  C   UNL     1      -3.778   9.740 137.761  0.00  0.00    +0.000 C 
ATOM     11  O   UNL     1      -2.754   9.979 138.468  0.00  0.00    +0.000 OA
ATOM     12  C   UNL     1      -3.368   9.232 136.173  0.00  0.00    +0.000 C 
ATOM     13  N   UNL     1      -2.068   9.694 135.481  0.00  0.00    +0.000 N 
ATOM     14  C   UNL     1      -0.758   9.237 135.418  0.00  0.00    +0.000 C 
ATOM     15  O   UNL     1       0.019   9.723 134.583  0.00  0.00    +0.000 OA
ATOM     16  C   UNL     1      -0.193   8.148 136.299  0.00  0.00    +0.000 C 
ATOM     17  C   UNL     1      -1.172   7.549 137.198  0.00  0.00    +0.000 C 
ATOM     18  S   UNL     1      -0.426   6.638 138.440  0.00  0.00    +0.000 S 
ATOM     19  S   UNL     1      -2.309   6.864 139.892  0.00  0.00    +0.000 S 
ATOM     20  C   UNL     1      -2.597   4.786 141.181  0.00  0.00    +0.000 C 
ATOM     21  C   UNL     1      -3.793   4.123 141.760  0.00  0.00    +0.000 C 
ATOM     22  N   UNL     1      -4.202   5.232 142.468  0.00  0.00    +0.000 N 
ATOM     23  C   UNL     1      -4.796   6.233 141.815  0.00  0.00    +0.000 C 
ATOM     24  O   UNL     1      -5.392   6.986 142.593  0.00  0.00    +0.000 OA
ATOM     25  C   UNL     1      -4.653   6.380 140.132  0.00  0.00    +0.000 C 
ATOM     26  N   UNL     1      -5.932   6.685 139.694  0.00  0.00    +0.000 N 
ATOM     27  C   UNL     1      -6.472   7.886 139.923  0.00  0.00    +0.000 C 
ATOM     28  O   UNL     1      -7.593   7.853 139.412  0.00  0.00    +0.000 OA
ATOM     29  C   UNL     1      -5.815   9.170 140.862  0.00  0.00    +0.000 C 
ATOM     30  N   UNL     1      -5.900  10.707 140.600  0.00  0.00    +0.000 N 
ATOM     31  C   UNL     1      -6.658  11.283 139.570  0.00  0.00    +0.000 C 
ATOM     32  O   UNL     1      -6.639  12.435 139.161  0.00  0.00    +0.000 OA
ATOM     33  H   UNL     1      -4.607  10.827 138.930  0.00  0.00    +0.000 HD
ATOM     34  H   UNL     1      -2.230  10.368 134.739  0.00  0.00    +0.000 HD
ATOM     35  H   UNL     1      -4.060   5.305 143.462  0.00  0.00    +0.000 HD
ATOM     36  H   UNL     1      -6.375   6.170 138.951  0.00  0.00    +0.000 HD
ATOM     37  H   UNL     1      -4.973  10.959 140.343  0.00  0.00    +0.000 HD
BRANCH  12  38
ATOM     38  C   UNL     1      -3.611   7.750 135.840  0.00  0.00    +0.000 A 
ATOM     39  C   UNL     1      -2.801   7.337 134.813  0.00  0.00    +0.000 A 
ATOM     40  C   UNL     1      -2.926   6.076 134.271  0.00  0.00    +0.000 A 
ATOM     41  C   UNL     1      -4.009   5.262 134.552  0.00  0.00    +0.000 A 
ATOM     42  C   UNL     1      -4.907   5.642 135.522  0.00  0.00    +0.000 A 
ATOM     43  C   UNL     1      -4.669   6.844 136.240  0.00  0.00    +0.000 A 
BRANCH  41  44
ATOM     44  O   UNL     1      -4.224   4.112 133.857  0.00  0.00    +0.000 OA
ATOM     45  H   UNL     1      -3.590   4.018 133.124  0.00  0.00    +0.000 HD
ENDBRANCH  41  44
ENDBRANCH  12  38
BRANCH  29  46
ATOM     46  C   UNL     1      -4.367   8.978 141.337  0.00  0.00    +0.000 C 
ATOM     47  C   UNL     1      -4.163   9.375 142.733  0.00  0.00    +0.000 C 
BRANCH  46  48
ATOM     48  O   UNL     1      -3.212   9.503 140.777  0.00  0.00    +0.000 OA
ATOM     49  H   UNL     1      -2.502   8.888 140.644  0.00  0.00    +0.000 HD
ENDBRANCH  46  48
ENDBRANCH  29  46
BRANCH   8  50
ATOM     50  C   UNL     1      -8.979  10.689 139.259  0.00  0.00    +0.000 C 
ATOM     51  C   UNL     1     -10.123   9.928 138.572  0.00  0.00    +0.000 C 
BRANCH  50  53
ATOM     52  C   UNL     1      -9.758  11.865 141.459  0.00  0.00    +0.000 C 
ATOM     53  C   UNL     1      -9.526  10.487 140.921  0.00  0.00    +0.000 C 
ENDBRANCH  50  53
ENDBRANCH   8  50
BRANCH  25  54
ATOM     54  C   UNL     1      -3.780   5.190 139.355  0.00  0.00    +0.000 C 
BRANCH  54  55
ATOM     55  C   UNL     1      -4.279   4.039 137.814  0.00  0.00    +0.000 C 
ATOM     56  N   UNL     1      -2.912   3.032 137.203  0.00  0.00    +0.000 N 
ATOM     57  O   UNL     1      -5.483   3.765 137.500  0.00  0.00    +0.000 OA
ATOM     58  H   UNL     1      -1.916   3.464 137.656  0.00  0.00    +0.000 HD
ATOM     59  H   UNL     1      -2.468   2.476 136.462  0.00  0.00    +0.000 HD
ENDBRANCH  54  55
ENDBRANCH  25  54
ENDBRANCH   1  21
BRANCH   7  60
ATOM     60  C   UNL     1      -5.773   0.815 140.725  0.00  0.00    +0.000 C 
ATOM     61  O   UNL     1      -5.161   0.469 141.739  0.00  0.00    +0.000 OA
ATOM     62  N   UNL     1      -5.588   0.185 139.517  0.00  0.00    +0.000 N 
ATOM     63  H   UNL     1      -6.019   0.554 138.676  0.00  0.00    +0.000 HD
BRANCH  62  64
ATOM     64  C   UNL     1      -4.594  -0.914 139.328  0.00  0.00    +0.000 C 
BRANCH  64  65
ATOM     65  C   UNL     1      -3.252  -0.348 138.723  0.00  0.00    +0.000 C 
ATOM     66  O   UNL     1      -3.243   0.127 137.583  0.00  0.00    +0.000 OA
ATOM     67  N   UNL     1      -2.098  -0.388 139.503  0.00  0.00    +0.000 N 
ATOM     68  H   UNL     1      -2.087  -0.798 140.426  0.00  0.00    +0.000 HD
BRANCH  67  69
ATOM     69  C   UNL     1      -0.841   0.081 138.979  0.00  0.00    +0.000 C 
BRANCH  69  70
ATOM     70  N   UNL     1      -0.860   1.528 138.949  0.00  0.00    +0.000 NA
ATOM     71  H   UNL     1      -0.656   1.907 139.871  0.00  0.00    +0.000 HD
ATOM     72  H   UNL     1      -1.826   1.826 138.768  0.00  0.00    +0.000 HD
ENDBRANCH  69  70
ENDBRANCH  67  69
ENDBRANCH  64  65
BRANCH  64  73
ATOM     73  C   UNL     1      -5.173  -2.003 138.399  0.00  0.00    +0.000 C 
BRANCH  73  74
ATOM     74  C   UNL     1      -4.141  -3.061 137.981  0.00  0.00    +0.000 C 
BRANCH  74  75
ATOM     75  C   UNL     1      -3.777  -3.200 136.520  0.00  0.00    +0.000 C 
BRANCH  75  76
ATOM     76  N   UNL     1      -4.453  -2.119 135.601  0.00  0.00    +0.000 N 
ATOM     77  C   UNL     1      -3.698  -1.401 134.581  0.00  0.00    +0.000 C 
ATOM     78  O   UNL     1      -2.476  -1.628 134.721  0.00  0.00    +0.000 OA
ATOM     79  H   UNL     1      -5.432  -1.987 135.799  0.00  0.00    +0.000 HD
BRANCH  77  80
ATOM     80  C   UNL     1      -4.075  -0.271 133.245  0.00  0.00    +0.000 A 
ATOM     81  C   UNL     1      -5.321  -0.571 132.865  0.00  0.00    +0.000 A 
ATOM     82  C   UNL     1      -5.643  -0.310 131.495  0.00  0.00    +0.000 A 
ATOM     83  C   UNL     1      -6.099   0.942 131.294  0.00  0.00    +0.000 A 
ATOM     84  C   UNL     1      -5.051   1.802 131.078  0.00  0.00    +0.000 A 
ATOM     85  C   UNL     1      -3.864   0.933 132.184  0.00  0.00    +0.000 A 
ATOM     86  C   UNL     1      -6.524   2.976 130.460  0.00  0.00    +0.000 C 
ATOM     87  O   UNL     1      -7.662   2.409 131.202  0.00  0.00    +0.000 OA
ATOM     88  C   UNL     1      -7.255   1.455 132.019  0.00  0.00    +0.000 C 
ATOM     89  O   UNL     1      -7.782   1.034 133.028  0.00  0.00    +0.000 OA
ATOM     90  C   UNL     1      -6.964   3.071 128.671  0.00  0.00    +0.000 A 
ATOM     91  C   UNL     1      -6.157   2.617 127.627  0.00  0.00    +0.000 A 
ATOM     92  C   UNL     1      -6.136   3.211 126.278  0.00  0.00    +0.000 A 
ATOM     93  C   UNL     1      -6.977   4.246 125.866  0.00  0.00    +0.000 A 
ATOM     94  C   UNL     1      -7.930   4.645 126.771  0.00  0.00    +0.000 A 
ATOM     95  C   UNL     1      -7.934   4.046 128.115  0.00  0.00    +0.000 A 
ATOM     96  O   UNL     1      -8.996   4.488 128.851  0.00  0.00    +0.000 OA
ATOM     97  C   UNL     1      -8.682   4.803 130.152  0.00  0.00    +0.000 A 
ATOM     98  C   UNL     1      -9.819   5.490 130.768  0.00  0.00    +0.000 A 
ATOM     99  C   UNL     1      -9.654   6.041 132.006  0.00  0.00    +0.000 A 
ATOM    100  C   UNL     1      -8.338   6.084 132.470  0.00  0.00    +0.000 A 
ATOM    101  C   UNL     1      -7.194   5.414 131.834  0.00  0.00    +0.000 A 
ATOM    102  C   UNL     1      -7.329   4.559 130.751  0.00  0.00    +0.000 A 
BRANCH  99 103
ATOM    103  O   UNL     1     -10.665   6.536 132.786  0.00  0.00    +0.000 OA
ATOM    104  H   UNL     1     -11.025   7.384 132.463  0.00  0.00    +0.000 HD
ENDBRANCH  99 103
BRANCH  93 105
ATOM    105  O   UNL     1      -6.906   4.876 124.652  0.00  0.00    +0.000 OA
ATOM    106  H   UNL     1      -7.330   5.752 124.662  0.00  0.00    +0.000 HD
ENDBRANCH  93 105
ENDBRANCH  77  80
ENDBRANCH  75  76
ENDBRANCH  74  75
ENDBRANCH  73  74
ENDBRANCH  64  73
ENDBRANCH  62  64
ENDBRANCH   7  60
TORSDOF 21
ENDMDL
MODEL 7
REMARK VINA RESULT:      -7.8      3.916      9.608
REMARK  Name = CHEMBL1790711
REMARK  24 active torsions:
REMARK  status: ('A' for Active; 'I' for Inactive)
REMARK    1  A    between atoms: C_1  and  C_2
REMARK    2  A    between atoms: C_2  and  C_3
REMARK    3  A    between atoms: C_3  and  C_4
REMARK    4  A    between atoms: C_3  and  C_5
REMARK    5  A    between atoms: C_9  and  C_10
REMARK    6  A    between atoms: C_13  and  O_14
REMARK    7  A    between atoms: C_25  and  C_26
REMARK    8  A    between atoms: C_32  and  C_33
REMARK    9  A    between atoms: N_35  and  C_36
REMARK   10  A    between atoms: C_36  and  C_37
REMARK   11  A    between atoms: C_36  and  C_68
REMARK   12  A    between atoms: C_37  and  C_38
REMARK   13  A    between atoms: C_38  and  C_39
REMARK   14  A    between atoms: C_39  and  N_40
REMARK   15  A    between atoms: C_41  and  C_43
REMARK   16  A    between atoms: C_56  and  O_57
REMARK   17  A    between atoms: C_63  and  O_64
REMARK   18  A    between atoms: N_70  and  C_71
REMARK   19  A    between atoms: C_71  and  N_72
REMARK   20  A    between atoms: C_76  and  C_77
REMARK   21  A    between atoms: C_77  and  C_78
REMARK   22  A    between atoms: C_84  and  C_85
REMARK   23  A    between atoms: C_85  and  C_86
REMARK   24  A    between atoms: C_85  and  O_87
REMARK                            x       y       z     vdW  Elec       q    Type
REMARK                         _______ _______ _______ _____ _____    ______ ____
ROOT
ATOM      1  C   UNL     1      -4.694   3.292 140.595  0.00  0.00    +0.000 C 
ATOM      2  O   UNL     1      -4.402   2.799 139.488  0.00  0.00    +0.000 OA
ATOM      3  N   UNL     1      -5.969   3.199 141.038  0.00  0.00    +0.000 N 
ATOM      4  C   UNL     1      -6.621   3.999 142.036  0.00  0.00    +0.000 C 
ATOM      5  C   UNL     1      -7.225   2.943 142.895  0.00  0.00    +0.000 C 
ATOM      6  C   UNL     1      -7.699   1.910 141.854  0.00  0.00    +0.000 C 
ATOM      7  C   UNL     1      -6.734   2.015 140.670  0.00  0.00    +0.000 C 
ENDROOT
BRANCH   1  21
ATOM      8  C   UNL     1      -7.027  10.278 138.820  0.00  0.00    +0.000 C 
ATOM      9  N   UNL     1      -5.100  10.218 138.419  0.00  0.00    +0.000 N 
ATOM     10  C   UNL     1      -3.706   9.788 137.708  0.00  0.00    +0.000 C 
ATOM     11  O   UNL     1      -2.650   9.981 138.381  0.00  0.00    +0.000 OA
ATOM     12  C   UNL     1      -3.370   9.315 136.092  0.00  0.00    +0.000 C 
ATOM     13  N   UNL     1      -2.085   9.763 135.364  0.00  0.00    +0.000 N 
ATOM     14  C   UNL     1      -0.791   9.275 135.238  0.00  0.00    +0.000 C 
ATOM     15  O   UNL     1      -0.034   9.765 134.387  0.00  0.00    +0.000 OA
ATOM     16  C   UNL     1      -0.222   8.148 136.066  0.00  0.00    +0.000 C 
ATOM     17  C   UNL     1      -1.182   7.548 136.985  0.00  0.00    +0.000 C 
ATOM     18  S   UNL     1      -0.414   6.584 138.172  0.00  0.00    +0.000 S 
ATOM     19  S   UNL     1      -2.234   6.817 139.701  0.00  0.00    +0.000 S 
ATOM     20  C   UNL     1      -2.528   4.711 140.943  0.00  0.00    +0.000 C 
ATOM     21  C   UNL     1      -3.719   4.062 141.549  0.00  0.00    +0.000 C 
ATOM     22  N   UNL     1      -4.071   5.160 142.302  0.00  0.00    +0.000 N 
ATOM     23  C   UNL     1      -4.662   6.194 141.701  0.00  0.00    +0.000 C 
ATOM     24  O   UNL     1      -5.209   6.939 142.521  0.00  0.00    +0.000 OA
ATOM     25  C   UNL     1      -4.580   6.385 140.018  0.00  0.00    +0.000 C 
ATOM     26  N   UNL     1      -5.865   6.735 139.638  0.00  0.00    +0.000 N 
ATOM     27  C   UNL     1      -6.365   7.942 139.920  0.00  0.00    +0.000 C 
ATOM     28  O   UNL     1      -7.505   7.952 139.452  0.00  0.00    +0.000 OA
ATOM     29  C   UNL     1      -5.639   9.182 140.868  0.00  0.00    +0.000 C 
ATOM     30  N   UNL     1      -5.693  10.728 140.652  0.00  0.00    +0.000 N 
ATOM     31  C   UNL     1      -6.475  11.352 139.668  0.00  0.00    +0.000 C 
ATOM     32  O   UNL     1      -6.441  12.514 139.291  0.00  0.00    +0.000 OA
ATOM     33  H   UNL     1      -4.461  10.862 138.938  0.00  0.00    +0.000 HD
ATOM     34  H   UNL     1      -2.257  10.462 134.647  0.00  0.00    +0.000 HD
ATOM     35  H   UNL     1      -3.890   5.201 143.292  0.00  0.00    +0.000 HD
ATOM     36  H   UNL     1      -6.350   6.252 138.899  0.00  0.00    +0.000 HD
ATOM     37  H   UNL     1      -4.771  10.963 140.367  0.00  0.00    +0.000 HD
BRANCH  12  38
ATOM     38  C   UNL     1      -3.664   7.849 135.728  0.00  0.00    +0.000 A 
ATOM     39  C   UNL     1      -2.925   7.454 134.643  0.00  0.00    +0.000 A 
ATOM     40  C   UNL     1      -3.108   6.214 134.071  0.00  0.00    +0.000 A 
ATOM     41  C   UNL     1      -4.192   5.413 134.389  0.00  0.00    +0.000 A 
ATOM     42  C   UNL     1      -5.022   5.780 135.422  0.00  0.00    +0.000 A 
ATOM     43  C   UNL     1      -4.717   6.953 136.161  0.00  0.00    +0.000 A 
BRANCH  41  44
ATOM     44  O   UNL     1      -4.472   4.291 133.673  0.00  0.00    +0.000 OA
ATOM     45  H   UNL     1      -4.024   4.301 132.809  0.00  0.00    +0.000 HD
ENDBRANCH  41  44
ENDBRANCH  12  38
BRANCH  29  46
ATOM     46  C   UNL     1      -4.180   8.940 141.281  0.00  0.00    +0.000 C 
ATOM     47  C   UNL     1      -3.912   9.295 142.679  0.00  0.00    +0.000 C 
BRANCH  46  48
ATOM     48  O   UNL     1      -3.033   9.450 140.690  0.00  0.00    +0.000 OA
ATOM     49  H   UNL     1      -2.382   9.796 141.287  0.00  0.00    +0.000 HD
ENDBRANCH  46  48
ENDBRANCH  29  46
BRANCH   8  50
ATOM     50  C   UNL     1      -8.820  10.825 139.430  0.00  0.00    +0.000 C 
ATOM     51  C   UNL     1     -10.010  10.175 138.708  0.00  0.00    +0.000 C 
BRANCH  50  53
ATOM     52  C   UNL     1      -9.510  11.842 141.737  0.00  0.00    +0.000 C 
ATOM     53  C   UNL     1      -9.343  10.506 141.081  0.00  0.00    +0.000 C 
ENDBRANCH  50  53
ENDBRANCH   8  50
BRANCH  25  54
ATOM     54  C   UNL     1      -3.768   5.197 139.175  0.00  0.00    +0.000 C 
BRANCH  54  55
ATOM     55  C   UNL     1      -4.360   4.092 137.633  0.00  0.00    +0.000 C 
ATOM     56  N   UNL     1      -3.052   3.051 136.956  0.00  0.00    +0.000 N 
ATOM     57  O   UNL     1      -5.583   3.866 137.357  0.00  0.00    +0.000 OA
ATOM     58  H   UNL     1      -2.026   3.440 137.382  0.00  0.00    +0.000 HD
ATOM     59  H   UNL     1      -2.653   2.494 136.190  0.00  0.00    +0.000 HD
ENDBRANCH  54  55
ENDBRANCH  25  54
ENDBRANCH   1  21
BRANCH   7  60
ATOM     60  C   UNL     1      -5.783   0.819 140.474  0.00  0.00    +0.000 C 
ATOM     61  O   UNL     1      -5.155   0.396 141.447  0.00  0.00    +0.000 OA
ATOM     62  N   UNL     1      -5.632   0.273 139.221  0.00  0.00    +0.000 N 
ATOM     63  H   UNL     1      -6.074   0.704 138.417  0.00  0.00    +0.000 HD
BRANCH  62  64
ATOM     64  C   UNL     1      -4.656  -0.822 138.935  0.00  0.00    +0.000 C 
BRANCH  64  65
ATOM     65  C   UNL     1      -3.227  -0.226 138.637  0.00  0.00    +0.000 C 
ATOM     66  O   UNL     1      -2.833  -0.124 137.471  0.00  0.00    +0.000 OA
ATOM     67  N   UNL     1      -2.439   0.187 139.709  0.00  0.00    +0.000 N 
ATOM     68  H   UNL     1      -2.738   0.083 140.668  0.00  0.00    +0.000 HD
BRANCH  67  69
ATOM     69  C   UNL     1      -1.111   0.701 139.489  0.00  0.00    +0.000 C 
BRANCH  69  70
ATOM     70  N   UNL     1      -1.214   2.046 138.964  0.00  0.00    +0.000 NA
ATOM     71  H   UNL     1      -0.417   2.259 138.369  0.00  0.00    +0.000 HD
ATOM     72  H   UNL     1      -1.117   2.699 139.750  0.00  0.00    +0.000 HD
ENDBRANCH  69  70
ENDBRANCH  67  69
ENDBRANCH  64  65
BRANCH  64  73
ATOM     73  C   UNL     1      -5.137  -1.665 137.733  0.00  0.00    +0.000 C 
BRANCH  73  74
ATOM     74  C   UNL     1      -4.634  -3.116 137.764  0.00  0.00    +0.000 C 
BRANCH  74  75
ATOM     75  C   UNL     1      -3.635  -3.573 136.726  0.00  0.00    +0.000 C 
BRANCH  75  76
ATOM     76  N   UNL     1      -3.901  -2.977 135.296  0.00  0.00    +0.000 N 
ATOM     77  C   UNL     1      -4.281  -3.825 134.172  0.00  0.00    +0.000 C 
ATOM     78  O   UNL     1      -4.145  -5.028 134.485  0.00  0.00    +0.000 OA
ATOM     79  H   UNL     1      -3.778  -1.978 135.254  0.00  0.00    +0.000 HD
BRANCH  77  80
ATOM     80  C   UNL     1      -4.835  -3.574 132.489  0.00  0.00    +0.000 A 
ATOM     81  C   UNL     1      -6.023  -2.969 132.590  0.00  0.00    +0.000 A 
ATOM     82  C   UNL     1      -6.947  -3.210 131.524  0.00  0.00    +0.000 A 
ATOM     83  C   UNL     1      -6.814  -2.333 130.509  0.00  0.00    +0.000 A 
ATOM     84  C   UNL     1      -5.868  -2.776 129.618  0.00  0.00    +0.000 A 
ATOM     85  C   UNL     1      -4.801  -3.600 130.871  0.00  0.00    +0.000 A 
ATOM     86  C   UNL     1      -6.695  -1.370 128.492  0.00  0.00    +0.000 C 
ATOM     87  O   UNL     1      -7.253  -0.479 129.522  0.00  0.00    +0.000 OA
ATOM     88  C   UNL     1      -6.915  -0.896 130.729  0.00  0.00    +0.000 C 
ATOM     89  O   UNL     1      -6.842  -0.267 131.764  0.00  0.00    +0.000 OA
ATOM     90  C   UNL     1      -8.024  -1.792 127.284  0.00  0.00    +0.000 A 
ATOM     91  C   UNL     1      -8.321  -3.084 126.846  0.00  0.00    +0.000 A 
ATOM     92  C   UNL     1      -8.857  -3.403 125.510  0.00  0.00    +0.000 A 
ATOM     93  C   UNL     1      -9.203  -2.443 124.557  0.00  0.00    +0.000 A 
ATOM     94  C   UNL     1      -9.110  -1.133 124.959  0.00  0.00    +0.000 A 
ATOM     95  C   UNL     1      -8.568  -0.832 126.293  0.00  0.00    +0.000 A 
ATOM     96  O   UNL     1      -8.632   0.506 126.563  0.00  0.00    +0.000 OA
ATOM     97  C   UNL     1      -7.499   1.010 127.157  0.00  0.00    +0.000 A 
ATOM     98  C   UNL     1      -7.575   2.472 127.173  0.00  0.00    +0.000 A 
ATOM     99  C   UNL     1      -6.474   3.177 127.566  0.00  0.00    +0.000 A 
ATOM    100  C   UNL     1      -5.303   2.429 127.703  0.00  0.00    +0.000 A 
ATOM    101  C   UNL     1      -5.227   0.962 127.660  0.00  0.00    +0.000 A 
ATOM    102  C   UNL     1      -6.350   0.150 127.593  0.00  0.00    +0.000 A 
BRANCH  99 103
ATOM    103  O   UNL     1      -6.453   4.523 127.820  0.00  0.00    +0.000 OA
ATOM    104  H   UNL     1      -6.985   5.045 127.191  0.00  0.00    +0.000 HD
ENDBRANCH  99 103
BRANCH  93 105
ATOM    105  O   UNL     1      -9.609  -2.721 123.279  0.00  0.00    +0.000 OA
ATOM    106  H   UNL     1      -8.876  -2.684 122.639  0.00  0.00    +0.000 HD
ENDBRANCH  93 105
ENDBRANCH  77  80
ENDBRANCH  75  76
ENDBRANCH  74  75
ENDBRANCH  73  74
ENDBRANCH  64  73
ENDBRANCH  62  64
ENDBRANCH   7  60
TORSDOF 21
ENDMDL
MODEL 8
REMARK VINA RESULT:      -7.7      6.024     12.856
REMARK  Name = CHEMBL1790711
REMARK  24 active torsions:
REMARK  status: ('A' for Active; 'I' for Inactive)
REMARK    1  A    between atoms: C_1  and  C_2
REMARK    2  A    between atoms: C_2  and  C_3
REMARK    3  A    between atoms: C_3  and  C_4
REMARK    4  A    between atoms: C_3  and  C_5
REMARK    5  A    between atoms: C_9  and  C_10
REMARK    6  A    between atoms: C_13  and  O_14
REMARK    7  A    between atoms: C_25  and  C_26
REMARK    8  A    between atoms: C_32  and  C_33
REMARK    9  A    between atoms: N_35  and  C_36
REMARK   10  A    between atoms: C_36  and  C_37
REMARK   11  A    between atoms: C_36  and  C_68
REMARK   12  A    between atoms: C_37  and  C_38
REMARK   13  A    between atoms: C_38  and  C_39
REMARK   14  A    between atoms: C_39  and  N_40
REMARK   15  A    between atoms: C_41  and  C_43
REMARK   16  A    between atoms: C_56  and  O_57
REMARK   17  A    between atoms: C_63  and  O_64
REMARK   18  A    between atoms: N_70  and  C_71
REMARK   19  A    between atoms: C_71  and  N_72
REMARK   20  A    between atoms: C_76  and  C_77
REMARK   21  A    between atoms: C_77  and  C_78
REMARK   22  A    between atoms: C_84  and  C_85
REMARK   23  A    between atoms: C_85  and  C_86
REMARK   24  A    between atoms: C_85  and  O_87
REMARK                            x       y       z     vdW  Elec       q    Type
REMARK                         _______ _______ _______ _____ _____    ______ ____
ROOT
ATOM      1  C   UNL     1       1.431   7.910 140.047  0.00  0.00    +0.000 C 
ATOM      2  O   UNL     1       1.484   7.185 139.035  0.00  0.00    +0.000 OA
ATOM      3  N   UNL     1       0.443   7.706 140.949  0.00  0.00    +0.000 N 
ATOM      4  C   UNL     1      -0.057   8.619 141.937  0.00  0.00    +0.000 C 
ATOM      5  C   UNL     1      -0.034   7.759 143.153  0.00  0.00    +0.000 C 
ATOM      6  C   UNL     1      -0.501   6.399 142.598  0.00  0.00    +0.000 C 
ATOM      7  C   UNL     1      -0.032   6.342 141.141  0.00  0.00    +0.000 C 
ENDROOT
BRANCH   1  21
ATOM      8  C   UNL     1      -3.406  13.517 138.442  0.00  0.00    +0.000 C 
ATOM      9  N   UNL     1      -1.837  13.790 137.285  0.00  0.00    +0.000 N 
ATOM     10  C   UNL     1      -0.735  13.517 136.126  0.00  0.00    +0.000 C 
ATOM     11  O   UNL     1       0.379  14.105 136.261  0.00  0.00    +0.000 OA
ATOM     12  C   UNL     1      -0.879  12.739 134.602  0.00  0.00    +0.000 C 
ATOM     13  N   UNL     1      -0.148  13.265 133.348  0.00  0.00    +0.000 N 
ATOM     14  C   UNL     1       1.095  13.063 132.762  0.00  0.00    +0.000 C 
ATOM     15  O   UNL     1       1.303  13.478 131.613  0.00  0.00    +0.000 OA
ATOM     16  C   UNL     1       2.240  12.338 133.427  0.00  0.00    +0.000 C 
ATOM     17  C   UNL     1       1.912  11.791 134.738  0.00  0.00    +0.000 C 
ATOM     18  S   UNL     1       3.313  11.355 135.618  0.00  0.00    +0.000 S 
ATOM     19  S   UNL     1       2.193  11.553 137.718  0.00  0.00    +0.000 S 
ATOM     20  C   UNL     1       3.029   9.819 139.253  0.00  0.00    +0.000 C 
ATOM     21  C   UNL     1       2.399   9.094 140.386  0.00  0.00    +0.000 C 
ATOM     22  N   UNL     1       2.025  10.240 141.055  0.00  0.00    +0.000 N 
ATOM     23  C   UNL     1       0.970  10.928 140.616  0.00  0.00    +0.000 C 
ATOM     24  O   UNL     1       0.558  11.715 141.475  0.00  0.00    +0.000 OA
ATOM     25  C   UNL     1       0.375  10.702 139.045  0.00  0.00    +0.000 C 
ATOM     26  N   UNL     1      -1.001  10.647 139.191  0.00  0.00    +0.000 N 
ATOM     27  C   UNL     1      -1.709  11.743 139.483  0.00  0.00    +0.000 C 
ATOM     28  O   UNL     1      -2.885  11.380 139.538  0.00  0.00    +0.000 OA
ATOM     29  C   UNL     1      -1.107  13.312 139.855  0.00  0.00    +0.000 C 
ATOM     30  N   UNL     1      -1.706  14.701 139.465  0.00  0.00    +0.000 N 
ATOM     31  C   UNL     1      -2.942  14.865 138.821  0.00  0.00    +0.000 C 
ATOM     32  O   UNL     1      -3.404  15.871 138.304  0.00  0.00    +0.000 OA
ATOM     33  H   UNL     1      -1.283  14.670 137.393  0.00  0.00    +0.000 HD
ATOM     34  H   UNL     1      -0.774  13.703 132.678  0.00  0.00    +0.000 HD
ATOM     35  H   UNL     1       2.530  10.568 141.861  0.00  0.00    +0.000 HD
ATOM     36  H   UNL     1      -1.548   9.898 138.799  0.00  0.00    +0.000 HD
ATOM     37  H   UNL     1      -1.069  15.057 138.790  0.00  0.00    +0.000 HD
BRANCH  12  38
ATOM     38  C   UNL     1      -0.820  11.202 134.605  0.00  0.00    +0.000 A 
ATOM     39  C   UNL     1      -0.318  10.726 133.422  0.00  0.00    +0.000 A 
ATOM     40  C   UNL     1      -0.279   9.374 133.157  0.00  0.00    +0.000 A 
ATOM     41  C   UNL     1      -0.956   8.455 133.940  0.00  0.00    +0.000 A 
ATOM     42  C   UNL     1      -1.548   8.870 135.110  0.00  0.00    +0.000 A 
ATOM     43  C   UNL     1      -1.411  10.228 135.502  0.00  0.00    +0.000 A 
BRANCH  41  44
ATOM     44  O   UNL     1      -1.079   7.156 133.554  0.00  0.00    +0.000 OA
ATOM     45  H   UNL     1      -2.014   6.906 133.447  0.00  0.00    +0.000 HD
ENDBRANCH  41  44
ENDBRANCH  12  38
BRANCH  29  46
ATOM     46  C   UNL     1       0.402  13.515 139.650  0.00  0.00    +0.000 C 
ATOM     47  C   UNL     1       1.032  14.275 140.734  0.00  0.00    +0.000 C 
BRANCH  46  48
ATOM     48  O   UNL     1       1.042  14.092 138.562  0.00  0.00    +0.000 OA
ATOM     49  H   UNL     1       0.676  14.912 138.257  0.00  0.00    +0.000 HD
ENDBRANCH  46  48
ENDBRANCH  29  46
BRANCH   8  50
ATOM     50  C   UNL     1      -4.931  13.784 139.663  0.00  0.00    +0.000 C 
ATOM     51  C   UNL     1      -6.166  12.907 139.407  0.00  0.00    +0.000 C 
BRANCH  50  53
ATOM     52  C   UNL     1      -4.748  14.802 142.063  0.00  0.00    +0.000 C 
ATOM     53  C   UNL     1      -4.768  13.466 141.387  0.00  0.00    +0.000 C 
ENDBRANCH  50  53
ENDBRANCH   8  50
BRANCH  25  54
ATOM     54  C   UNL     1       1.149   9.552 138.117  0.00  0.00    +0.000 C 
BRANCH  54  55
ATOM     55  C   UNL     1       0.430   7.917 137.245  0.00  0.00    +0.000 C 
ATOM     56  N   UNL     1      -1.206   7.448 137.846  0.00  0.00    +0.000 N 
ATOM     57  O   UNL     1       0.885   7.442 136.155  0.00  0.00    +0.000 OA
ATOM     58  H   UNL     1      -1.407   8.042 138.842  0.00  0.00    +0.000 HD
ATOM     59  H   UNL     1      -1.947   6.750 137.979  0.00  0.00    +0.000 HD
ENDBRANCH  54  55
ENDBRANCH  25  54
ENDBRANCH   1  21
BRANCH   7  60
ATOM     60  C   UNL     1       1.105   5.346 140.844  0.00  0.00    +0.000 C 
ATOM     61  O   UNL     1       2.125   5.389 141.534  0.00  0.00    +0.000 OA
ATOM     62  N   UNL     1       0.971   4.458 139.803  0.00  0.00    +0.000 N 
ATOM     63  H   UNL     1       0.171   4.513 139.182  0.00  0.00    +0.000 HD
BRANCH  62  64
ATOM     64  C   UNL     1       2.068   3.531 139.392  0.00  0.00    +0.000 C 
BRANCH  64  65
ATOM     65  C   UNL     1       2.955   4.187 138.265  0.00  0.00    +0.000 C 
ATOM     66  O   UNL     1       3.070   3.629 137.169  0.00  0.00    +0.000 OA
ATOM     67  N   UNL     1       3.584   5.401 138.533  0.00  0.00    +0.000 N 
ATOM     68  H   UNL     1       3.520   5.853 139.433  0.00  0.00    +0.000 HD
BRANCH  67  69
ATOM     69  C   UNL     1       4.436   6.018 137.549  0.00  0.00    +0.000 C 
BRANCH  69  70
ATOM     70  N   UNL     1       3.669   6.236 136.340  0.00  0.00    +0.000 NA
ATOM     71  H   UNL     1       4.169   5.877 135.531  0.00  0.00    +0.000 HD
ATOM     72  H   UNL     1       3.623   7.248 136.174  0.00  0.00    +0.000 HD
ENDBRANCH  69  70
ENDBRANCH  67  69
ENDBRANCH  64  65
BRANCH  64  73
ATOM     73  C   UNL     1       1.477   2.195 138.887  0.00  0.00    +0.000 C 
BRANCH  73  74
ATOM     74  C   UNL     1       0.646   1.456 139.947  0.00  0.00    +0.000 C 
BRANCH  74  75
ATOM     75  C   UNL     1      -0.851   1.663 139.987  0.00  0.00    +0.000 C 
BRANCH  75  76
ATOM     76  N   UNL     1      -1.467   2.046 138.593  0.00  0.00    +0.000 N 
ATOM     77  C   UNL     1      -2.906   2.012 138.358  0.00  0.00    +0.000 C 
ATOM     78  O   UNL     1      -3.479   1.455 139.319  0.00  0.00    +0.000 OA
ATOM     79  H   UNL     1      -0.773   2.303 137.910  0.00  0.00    +0.000 HD
BRANCH  77  80
ATOM     80  C   UNL     1      -4.016   2.517 137.048  0.00  0.00    +0.000 A 
ATOM     81  C   UNL     1      -3.921   3.850 136.993  0.00  0.00    +0.000 A 
ATOM     82  C   UNL     1      -5.083   4.547 136.532  0.00  0.00    +0.000 A 
ATOM     83  C   UNL     1      -5.106   4.695 135.192  0.00  0.00    +0.000 A 
ATOM     84  C   UNL     1      -5.686   3.600 134.601  0.00  0.00    +0.000 A 
ATOM     85  C   UNL     1      -5.083   2.378 135.838  0.00  0.00    +0.000 A 
ATOM     86  C   UNL     1      -5.731   4.829 133.047  0.00  0.00    +0.000 C 
ATOM     87  O   UNL     1      -4.629   5.745 133.383  0.00  0.00    +0.000 OA
ATOM     88  C   UNL     1      -4.014   5.347 134.481  0.00  0.00    +0.000 C 
ATOM     89  O   UNL     1      -2.882   5.581 134.853  0.00  0.00    +0.000 OA
ATOM     90  C   UNL     1      -7.241   5.823 132.676  0.00  0.00    +0.000 A 
ATOM     91  C   UNL     1      -8.507   5.580 133.214  0.00  0.00    +0.000 A 
ATOM     92  C   UNL     1      -9.773   5.873 132.518  0.00  0.00    +0.000 A 
ATOM     93  C   UNL     1      -9.853   6.499 131.273  0.00  0.00    +0.000 A 
ATOM     94  C   UNL     1      -8.665   6.936 130.738  0.00  0.00    +0.000 A 
ATOM     95  C   UNL     1      -7.410   6.630 131.444  0.00  0.00    +0.000 A 
ATOM     96  O   UNL     1      -6.341   7.213 130.825  0.00  0.00    +0.000 OA
ATOM     97  C   UNL     1      -5.241   6.394 130.722  0.00  0.00    +0.000 A 
ATOM     98  C   UNL     1      -4.257   7.020 129.838  0.00  0.00    +0.000 A 
ATOM     99  C   UNL     1      -3.161   6.295 129.465  0.00  0.00    +0.000 A 
ATOM    100  C   UNL     1      -3.204   4.939 129.793  0.00  0.00    +0.000 A 
ATOM    101  C   UNL     1      -4.209   4.309 130.661  0.00  0.00    +0.000 A 
ATOM    102  C   UNL     1      -5.170   5.033 131.349  0.00  0.00    +0.000 A 
BRANCH  99 103
ATOM    103  O   UNL     1      -2.070   6.802 128.812  0.00  0.00    +0.000 OA
ATOM    104  H   UNL     1      -1.676   7.576 129.256  0.00  0.00    +0.000 HD
ENDBRANCH  99 103
BRANCH  93 105
ATOM    105  O   UNL     1     -11.011   6.691 130.568  0.00  0.00    +0.000 OA
ATOM    106  H   UNL     1     -10.877   6.625 129.606  0.00  0.00    +0.000 HD
ENDBRANCH  93 105
ENDBRANCH  77  80
ENDBRANCH  75  76
ENDBRANCH  74  75
ENDBRANCH  73  74
ENDBRANCH  64  73
ENDBRANCH  62  64
ENDBRANCH   7  60
TORSDOF 21
ENDMDL
MODEL 9
REMARK VINA RESULT:      -7.7      4.416     13.104
REMARK  Name = CHEMBL1790711
REMARK  24 active torsions:
REMARK  status: ('A' for Active; 'I' for Inactive)
REMARK    1  A    between atoms: C_1  and  C_2
REMARK    2  A    between atoms: C_2  and  C_3
REMARK    3  A    between atoms: C_3  and  C_4
REMARK    4  A    between atoms: C_3  and  C_5
REMARK    5  A    between atoms: C_9  and  C_10
REMARK    6  A    between atoms: C_13  and  O_14
REMARK    7  A    between atoms: C_25  and  C_26
REMARK    8  A    between atoms: C_32  and  C_33
REMARK    9  A    between atoms: N_35  and  C_36
REMARK   10  A    between atoms: C_36  and  C_37
REMARK   11  A    between atoms: C_36  and  C_68
REMARK   12  A    between atoms: C_37  and  C_38
REMARK   13  A    between atoms: C_38  and  C_39
REMARK   14  A    between atoms: C_39  and  N_40
REMARK   15  A    between atoms: C_41  and  C_43
REMARK   16  A    between atoms: C_56  and  O_57
REMARK   17  A    between atoms: C_63  and  O_64
REMARK   18  A    between atoms: N_70  and  C_71
REMARK   19  A    between atoms: C_71  and  N_72
REMARK   20  A    between atoms: C_76  and  C_77
REMARK   21  A    between atoms: C_77  and  C_78
REMARK   22  A    between atoms: C_84  and  C_85
REMARK   23  A    between atoms: C_85  and  C_86
REMARK   24  A    between atoms: C_85  and  O_87
REMARK                            x       y       z     vdW  Elec       q    Type
REMARK                         _______ _______ _______ _____ _____    ______ ____
ROOT
ATOM      1  C   UNL     1      -5.754  -1.649 131.639  0.00  0.00    +0.000 C 
ATOM      2  O   UNL     1      -5.204  -0.551 131.858  0.00  0.00    +0.000 OA
ATOM      3  N   UNL     1      -4.989  -2.763 131.571  0.00  0.00    +0.000 N 
ATOM      4  C   UNL     1      -5.307  -4.020 130.956  0.00  0.00    +0.000 C 
ATOM      5  C   UNL     1      -4.957  -4.967 132.051  0.00  0.00    +0.000 C 
ATOM      6  C   UNL     1      -3.674  -4.336 132.628  0.00  0.00    +0.000 C 
ATOM      7  C   UNL     1      -3.800  -2.825 132.412  0.00  0.00    +0.000 C 
ENDROOT
BRANCH   1  21
ATOM      8  C   UNL     1      -5.441  -1.772 124.069  0.00  0.00    +0.000 C 
ATOM      9  N   UNL     1      -6.688  -0.326 124.550  0.00  0.00    +0.000 N 
ATOM     10  C   UNL     1      -7.230   1.075 125.165  0.00  0.00    +0.000 C 
ATOM     11  O   UNL     1      -8.471   1.134 125.418  0.00  0.00    +0.000 OA
ATOM     12  C   UNL     1      -6.459   2.600 125.333  0.00  0.00    +0.000 C 
ATOM     13  N   UNL     1      -7.214   3.924 125.092  0.00  0.00    +0.000 N 
ATOM     14  C   UNL     1      -7.973   4.793 125.866  0.00  0.00    +0.000 C 
ATOM     15  O   UNL     1      -8.270   5.909 125.418  0.00  0.00    +0.000 OA
ATOM     16  C   UNL     1      -8.461   4.483 127.261  0.00  0.00    +0.000 C 
ATOM     17  C   UNL     1      -8.006   3.197 127.774  0.00  0.00    +0.000 C 
ATOM     18  S   UNL     1      -8.896   2.706 129.150  0.00  0.00    +0.000 S 
ATOM     19  S   UNL     1      -8.395   0.398 128.791  0.00  0.00    +0.000 S 
ATOM     20  C   UNL     1      -8.101  -0.718 130.966  0.00  0.00    +0.000 C 
ATOM     21  C   UNL     1      -7.283  -1.883 131.392  0.00  0.00    +0.000 C 
ATOM     22  N   UNL     1      -7.798  -2.734 130.440  0.00  0.00    +0.000 N 
ATOM     23  C   UNL     1      -7.380  -2.619 129.178  0.00  0.00    +0.000 C 
ATOM     24  O   UNL     1      -7.659  -3.627 128.518  0.00  0.00    +0.000 OA
ATOM     25  C   UNL     1      -6.610  -1.208 128.640  0.00  0.00    +0.000 C 
ATOM     26  N   UNL     1      -5.539  -1.655 127.884  0.00  0.00    +0.000 N 
ATOM     27  C   UNL     1      -5.726  -2.211 126.684  0.00  0.00    +0.000 C 
ATOM     28  O   UNL     1      -4.602  -2.492 126.263  0.00  0.00    +0.000 OA
ATOM     29  C   UNL     1      -7.224  -2.599 125.929  0.00  0.00    +0.000 C 
ATOM     30  N   UNL     1      -7.605  -2.503 124.418  0.00  0.00    +0.000 N 
ATOM     31  C   UNL     1      -6.694  -2.174 123.402  0.00  0.00    +0.000 C 
ATOM     32  O   UNL     1      -6.923  -1.883 122.238  0.00  0.00    +0.000 OA
ATOM     33  H   UNL     1      -7.682  -0.397 124.234  0.00  0.00    +0.000 HD
ATOM     34  H   UNL     1      -6.942   4.386 124.229  0.00  0.00    +0.000 HD
ATOM     35  H   UNL     1      -8.481  -3.436 130.673  0.00  0.00    +0.000 HD
ATOM     36  H   UNL     1      -4.602  -1.319 128.040  0.00  0.00    +0.000 HD
ATOM     37  H   UNL     1      -8.244  -1.743 124.379  0.00  0.00    +0.000 HD
BRANCH  12  38
ATOM     38  C   UNL     1      -5.528   2.770 126.545  0.00  0.00    +0.000 A 
ATOM     39  C   UNL     1      -5.493   4.077 126.959  0.00  0.00    +0.000 A 
ATOM     40  C   UNL     1      -4.638   4.484 127.960  0.00  0.00    +0.000 A 
ATOM     41  C   UNL     1      -3.613   3.676 128.421  0.00  0.00    +0.000 A 
ATOM     42  C   UNL     1      -3.539   2.370 127.997  0.00  0.00    +0.000 A 
ATOM     43  C   UNL     1      -4.546   1.876 127.126  0.00  0.00    +0.000 A 
BRANCH  41  44
ATOM     44  O   UNL     1      -2.655   4.162 129.257  0.00  0.00    +0.000 OA
ATOM     45  H   UNL     1      -2.453   5.093 129.060  0.00  0.00    +0.000 HD
ENDBRANCH  41  44
ENDBRANCH  12  38
BRANCH  29  46
ATOM     46  C   UNL     1      -8.484  -2.082 126.639  0.00  0.00    +0.000 C 
ATOM     47  C   UNL     1      -9.579  -3.056 126.648  0.00  0.00    +0.000 C 
BRANCH  46  48
ATOM     48  O   UNL     1      -9.203  -0.929 126.362  0.00  0.00    +0.000 OA
ATOM     49  H   UNL     1      -9.511  -0.841 125.469  0.00  0.00    +0.000 HD
ENDBRANCH  46  48
ENDBRANCH  29  46
BRANCH   8  50
ATOM     50  C   UNL     1      -4.579  -3.326 123.216  0.00  0.00    +0.000 C 
ATOM     51  C   UNL     1      -3.094  -3.164 122.856  0.00  0.00    +0.000 C 
BRANCH  50  53
ATOM     52  C   UNL     1      -5.811  -5.483 124.026  0.00  0.00    +0.000 C 
ATOM     53  C   UNL     1      -4.449  -4.861 124.068  0.00  0.00    +0.000 C 
ENDBRANCH  50  53
ENDBRANCH   8  50
BRANCH  25  54
ATOM     54  C   UNL     1      -6.370  -0.014 129.781  0.00  0.00    +0.000 C 
BRANCH  54  55
ATOM     55  C   UNL     1      -4.712   0.963 130.278  0.00  0.00    +0.000 C 
ATOM     56  N   UNL     1      -5.015   2.387 131.345  0.00  0.00    +0.000 N 
ATOM     57  O   UNL     1      -3.542   0.471 130.163  0.00  0.00    +0.000 OA
ATOM     58  H   UNL     1      -6.166   2.626 131.307  0.00  0.00    +0.000 HD
ATOM     59  H   UNL     1      -4.724   3.287 131.742  0.00  0.00    +0.000 HD
ENDBRANCH  54  55
ENDBRANCH  25  54
ENDBRANCH   1  21
BRANCH   7  60
ATOM     60  C   UNL     1      -4.016  -1.984 133.684  0.00  0.00    +0.000 C 
ATOM     61  O   UNL     1      -3.082  -1.295 134.103  0.00  0.00    +0.000 OA
ATOM     62  N   UNL     1      -5.223  -2.042 134.338  0.00  0.00    +0.000 N 
ATOM     63  H   UNL     1      -5.938  -2.697 134.037  0.00  0.00    +0.000 HD
BRANCH  62  64
ATOM     64  C   UNL     1      -5.473  -1.333 135.629  0.00  0.00    +0.000 C 
BRANCH  64  65
ATOM     65  C   UNL     1      -6.632  -2.038 136.433  0.00  0.00    +0.000 C 
ATOM     66  O   UNL     1      -7.078  -1.514 137.458  0.00  0.00    +0.000 OA
ATOM     67  N   UNL     1      -7.138  -3.246 135.954  0.00  0.00    +0.000 N 
ATOM     68  H   UNL     1      -6.763  -3.698 135.132  0.00  0.00    +0.000 HD
BRANCH  67  69
ATOM     69  C   UNL     1      -8.169  -3.947 136.675  0.00  0.00    +0.000 C 
BRANCH  69  70
ATOM     70  N   UNL     1      -9.373  -3.143 136.664  0.00  0.00    +0.000 NA
ATOM     71  H   UNL     1      -9.142  -2.155 136.588  0.00  0.00    +0.000 HD
ATOM     72  H   UNL     1      -9.813  -3.223 137.588  0.00  0.00    +0.000 HD
ENDBRANCH  69  70
ENDBRANCH  67  69
ENDBRANCH  64  65
BRANCH  64  73
ATOM     73  C   UNL     1      -5.839   0.144 135.364  0.00  0.00    +0.000 C 
BRANCH  73  74
ATOM     74  C   UNL     1      -4.758   1.133 135.825  0.00  0.00    +0.000 C 
BRANCH  74  75
ATOM     75  C   UNL     1      -3.998   1.931 134.790  0.00  0.00    +0.000 C 
BRANCH  75  76
ATOM     76  N   UNL     1      -3.359   3.249 135.362  0.00  0.00    +0.000 N 
ATOM     77  C   UNL     1      -3.699   4.561 134.823  0.00  0.00    +0.000 C 
ATOM     78  O   UNL     1      -4.361   4.427 133.770  0.00  0.00    +0.000 OA
ATOM     79  H   UNL     1      -2.710   3.080 136.113  0.00  0.00    +0.000 HD
BRANCH  77  80
ATOM     80  C   UNL     1      -3.373   6.265 135.260  0.00  0.00    +0.000 A 
ATOM     81  C   UNL     1      -2.041   6.372 135.315  0.00  0.00    +0.000 A 
ATOM     82  C   UNL     1      -1.524   7.360 136.212  0.00  0.00    +0.000 A 
ATOM     83  C   UNL     1      -1.394   8.572 135.636  0.00  0.00    +0.000 A 
ATOM     84  C   UNL     1      -2.568   9.277 135.740  0.00  0.00    +0.000 A 
ATOM     85  C   UNL     1      -3.677   7.812 135.627  0.00  0.00    +0.000 A 
ATOM     86  C   UNL     1      -1.375  10.771 135.218  0.00  0.00    +0.000 C 
ATOM     87  O   UNL     1      -0.306  10.042 134.514  0.00  0.00    +0.000 OA
ATOM     88  C   UNL     1      -0.599   8.757 134.428  0.00  0.00    +0.000 C 
ATOM     89  O   UNL     1      -0.201   7.933 133.632  0.00  0.00    +0.000 OA
ATOM     90  C   UNL     1      -0.613  11.859 136.498  0.00  0.00    +0.000 A 
ATOM     91  C   UNL     1      -1.029  11.935 137.829  0.00  0.00    +0.000 A 
ATOM     92  C   UNL     1      -0.929  13.149 138.659  0.00  0.00    +0.000 A 
ATOM     93  C   UNL     1      -0.334  14.339 138.236  0.00  0.00    +0.000 A 
ATOM     94  C   UNL     1       0.263  14.309 136.999  0.00  0.00    +0.000 A 
ATOM     95  C   UNL     1       0.149  13.091 136.181  0.00  0.00    +0.000 A 
ATOM     96  O   UNL     1       0.872  13.201 135.027  0.00  0.00    +0.000 OA
ATOM     97  C   UNL     1       0.220  12.732 133.912  0.00  0.00    +0.000 A 
ATOM     98  C   UNL     1       0.971  13.119 132.717  0.00  0.00    +0.000 A 
ATOM     99  C   UNL     1       0.407  12.899 131.493  0.00  0.00    +0.000 A 
ATOM    100  C   UNL     1      -0.937  12.525 131.514  0.00  0.00    +0.000 A 
ATOM    101  C   UNL     1      -1.696  12.162 132.719  0.00  0.00    +0.000 A 
ATOM    102  C   UNL     1      -1.110  12.040 133.970  0.00  0.00    +0.000 A 
BRANCH  99 103
ATOM    103  O   UNL     1       1.059  13.024 130.295  0.00  0.00    +0.000 OA
ATOM    104  H   UNL     1       0.718  12.427 129.603  0.00  0.00    +0.000 HD
ENDBRANCH  99 103
BRANCH  93 105
ATOM    105  O   UNL     1      -0.318  15.504 138.955  0.00  0.00    +0.000 OA
ATOM    106  H   UNL     1      -1.013  15.531 139.636  0.00  0.00    +0.000 HD
ENDBRANCH  93 105
ENDBRANCH  77  80
ENDBRANCH  75  76
ENDBRANCH  74  75
ENDBRANCH  73  74
ENDBRANCH  64  73
ENDBRANCH  62  64
ENDBRANCH   7  60
TORSDOF 21
ENDMDL
