MODEL 1
REMARK VINA RESULT:      -9.7      0.000      0.000
REMARK  Name = CHEMBL31350
REMARK  5 active torsions:
REMARK  status: ('A' for Active; 'I' for Inactive)
REMARK    1  A    between atoms: C_1  and  C_2
REMARK    2  A    between atoms: N_4  and  C_5
REMARK    3  A    between atoms: C_5  and  C_6
REMARK    4  A    between atoms: C_10  and  C_11
REMARK    5  A    between atoms: C_16  and  N_17
REMARK                            x       y       z     vdW  Elec       q    Type
REMARK                         _______ _______ _______ _____ _____    ______ ____
ROOT
ATOM      1  C   UNL     1      -5.202   3.995 129.385  0.00  0.00    +0.000 C 
ATOM      2  O   UNL     1      -4.284   3.578 130.088  0.00  0.00    +0.000 OA
ATOM      3  N   UNL     1      -5.284   3.618 128.045  0.00  0.00    +0.000 N 
ATOM      4  C   UNL     1      -5.980   2.368 127.774  0.00  0.00    +0.000 C 
ATOM      5  C   UNL     1      -5.422   1.697 126.535  0.00  0.00    +0.000 C 
ATOM      6  C   UNL     1      -5.458   2.649 125.320  0.00  0.00    +0.000 C 
ATOM      7  C   UNL     1      -4.711   3.950 125.656  0.00  0.00    +0.000 C 
ATOM      8  C   UNL     1      -5.196   4.590 126.952  0.00  0.00    +0.000 C 
ENDROOT
BRANCH   6   9
ATOM      9  N   UNL     1      -6.841   2.803 124.758  0.00  0.00    +0.000 N 
ATOM     10  C   UNL     1      -8.010   2.639 125.494  0.00  0.00    +0.000 C 
ATOM     11  O   UNL     1      -8.293   3.137 126.576  0.00  0.00    +0.000 OA
ATOM     12  O   UNL     1      -8.888   1.779 124.924  0.00  0.00    +0.000 OA
ATOM     13  C   UNL     1      -9.441   2.370 123.768  0.00  0.00    +0.000 C 
ATOM     14  C   UNL     1      -8.359   2.887 122.871  0.00  0.00    +0.000 A 
ATOM     15  C   UNL     1      -8.674   3.209 121.551  0.00  0.00    +0.000 A 
ATOM     16  C   UNL     1      -7.690   3.716 120.715  0.00  0.00    +0.000 A 
ATOM     17  C   UNL     1      -6.398   3.910 121.199  0.00  0.00    +0.000 A 
ATOM     18  C   UNL     1      -6.078   3.590 122.521  0.00  0.00    +0.000 A 
ATOM     19  C   UNL     1      -7.055   3.069 123.371  0.00  0.00    +0.000 A 
ENDBRANCH   6   9
BRANCH   1  24
ATOM     20  C   UNL     1     -10.581   6.344 130.819  0.00  0.00    +0.000 A 
ATOM     21  C   UNL     1     -10.111   5.299 130.045  0.00  0.00    +0.000 A 
ATOM     22  C   UNL     1      -8.699   5.271 130.186  0.00  0.00    +0.000 A 
ATOM     23  C   UNL     1      -7.641   4.509 129.639  0.00  0.00    +0.000 A 
ATOM     24  C   UNL     1      -6.311   4.798 130.009  0.00  0.00    +0.000 A 
ATOM     25  C   UNL     1      -6.073   5.852 130.896  0.00  0.00    +0.000 A 
ATOM     26  C   UNL     1      -7.106   6.599 131.480  0.00  0.00    +0.000 A 
ATOM     27  C   UNL     1      -8.400   6.285 131.087  0.00  0.00    +0.000 A 
ATOM     28  O   UNL     1      -9.538   6.927 131.486  0.00  0.00    +0.000 OA
BRANCH  20  29
ATOM     29  C   UNL     1     -11.950   6.889 131.032  0.00  0.00    +0.000 C 
BRANCH  29  33
ATOM     30  C   UNL     1     -13.804   7.691 127.813  0.00  0.00    +0.000 C 
ATOM     31  C   UNL     1     -12.971   7.909 129.054  0.00  0.00    +0.000 C 
ATOM     32  O   UNL     1     -12.525   9.016 129.341  0.00  0.00    +0.000 OA
ATOM     33  N   UNL     1     -12.759   6.792 129.832  0.00  0.00    +0.000 N 
ATOM     34  H   UNL     1     -13.105   5.885 129.550  0.00  0.00    +0.000 HD
ENDBRANCH  29  33
ENDBRANCH  20  29
ENDBRANCH   1  24
TORSDOF 4
ENDMDL
MODEL 2
REMARK VINA RESULT:      -9.7      2.090      2.672
REMARK  Name = CHEMBL31350
REMARK  5 active torsions:
REMARK  status: ('A' for Active; 'I' for Inactive)
REMARK    1  A    between atoms: C_1  and  C_2
REMARK    2  A    between atoms: N_4  and  C_5
REMARK    3  A    between atoms: C_5  and  C_6
REMARK    4  A    between atoms: C_10  and  C_11
REMARK    5  A    between atoms: C_16  and  N_17
REMARK                            x       y       z     vdW  Elec       q    Type
REMARK                         _______ _______ _______ _____ _____    ______ ____
ROOT
ATOM      1  C   UNL     1      -6.607   3.178 129.111  0.00  0.00    +0.000 C 
ATOM      2  O   UNL     1      -5.682   3.043 129.910  0.00  0.00    +0.000 OA
ATOM      3  N   UNL     1      -6.439   2.808 127.778  0.00  0.00    +0.000 N 
ATOM      4  C   UNL     1      -6.706   1.411 127.464  0.00  0.00    +0.000 C 
ATOM      5  C   UNL     1      -5.854   0.946 126.300  0.00  0.00    +0.000 C 
ATOM      6  C   UNL     1      -6.046   1.857 125.068  0.00  0.00    +0.000 C 
ATOM      7  C   UNL     1      -5.753   3.317 125.451  0.00  0.00    +0.000 C 
ATOM      8  C   UNL     1      -6.532   3.773 126.680  0.00  0.00    +0.000 C 
ENDROOT
BRANCH   6   9
ATOM      9  N   UNL     1      -7.349   1.603 124.369  0.00  0.00    +0.000 N 
ATOM     10  C   UNL     1      -8.375   2.537 124.257  0.00  0.00    +0.000 C 
ATOM     11  O   UNL     1      -8.295   3.700 123.885  0.00  0.00    +0.000 OA
ATOM     12  O   UNL     1      -9.578   2.066 124.665  0.00  0.00    +0.000 OA
ATOM     13  C   UNL     1     -10.049   1.114 123.736  0.00  0.00    +0.000 C 
ATOM     14  C   UNL     1      -9.002   0.079 123.464  0.00  0.00    +0.000 A 
ATOM     15  C   UNL     1      -9.374  -1.110 122.837  0.00  0.00    +0.000 A 
ATOM     16  C   UNL     1      -8.412  -2.067 122.553  0.00  0.00    +0.000 A 
ATOM     17  C   UNL     1      -7.079  -1.833 122.885  0.00  0.00    +0.000 A 
ATOM     18  C   UNL     1      -6.700  -0.644 123.514  0.00  0.00    +0.000 A 
ATOM     19  C   UNL     1      -7.659   0.324 123.816  0.00  0.00    +0.000 A 
ENDBRANCH   6   9
BRANCH   1  24
ATOM     20  C   UNL     1     -11.364   6.434 130.919  0.00  0.00    +0.000 A 
ATOM     21  C   UNL     1     -10.136   6.683 130.335  0.00  0.00    +0.000 A 
ATOM     22  C   UNL     1      -9.505   5.428 130.129  0.00  0.00    +0.000 A 
ATOM     23  C   UNL     1      -8.254   4.992 129.637  0.00  0.00    +0.000 A 
ATOM     24  C   UNL     1      -7.960   3.612 129.606  0.00  0.00    +0.000 A 
ATOM     25  C   UNL     1      -8.914   2.710 130.087  0.00  0.00    +0.000 A 
ATOM     26  C   UNL     1     -10.176   3.113 130.545  0.00  0.00    +0.000 A 
ATOM     27  C   UNL     1     -10.423   4.480 130.563  0.00  0.00    +0.000 A 
ATOM     28  O   UNL     1     -11.558   5.084 131.027  0.00  0.00    +0.000 OA
BRANCH  20  29
ATOM     29  C   UNL     1     -12.439   7.344 131.405  0.00  0.00    +0.000 C 
BRANCH  29  33
ATOM     30  C   UNL     1     -13.467   9.427 128.398  0.00  0.00    +0.000 C 
ATOM     31  C   UNL     1     -13.251   8.208 129.263  0.00  0.00    +0.000 C 
ATOM     32  O   UNL     1     -13.573   7.086 128.883  0.00  0.00    +0.000 OA
ATOM     33  N   UNL     1     -12.666   8.444 130.488  0.00  0.00    +0.000 N 
ATOM     34  H   UNL     1     -12.447   9.383 130.790  0.00  0.00    +0.000 HD
ENDBRANCH  29  33
ENDBRANCH  20  29
ENDBRANCH   1  24
TORSDOF 4
ENDMDL
MODEL 3
REMARK VINA RESULT:      -9.5      3.644      4.406
REMARK  Name = CHEMBL31350
REMARK  5 active torsions:
REMARK  status: ('A' for Active; 'I' for Inactive)
REMARK    1  A    between atoms: C_1  and  C_2
REMARK    2  A    between atoms: N_4  and  C_5
REMARK    3  A    between atoms: C_5  and  C_6
REMARK    4  A    between atoms: C_10  and  C_11
REMARK    5  A    between atoms: C_16  and  N_17
REMARK                            x       y       z     vdW  Elec       q    Type
REMARK                         _______ _______ _______ _____ _____    ______ ____
ROOT
ATOM      1  C   UNL     1      -7.303  -0.006 131.013  0.00  0.00    +0.000 C 
ATOM      2  O   UNL     1      -7.435  -0.614 132.074  0.00  0.00    +0.000 OA
ATOM      3  N   UNL     1      -6.899  -0.683 129.863  0.00  0.00    +0.000 N 
ATOM      4  C   UNL     1      -7.960  -1.304 129.083  0.00  0.00    +0.000 C 
ATOM      5  C   UNL     1      -7.450  -2.537 128.363  0.00  0.00    +0.000 C 
ATOM      6  C   UNL     1      -6.216  -2.207 127.495  0.00  0.00    +0.000 C 
ATOM      7  C   UNL     1      -5.128  -1.555 128.364  0.00  0.00    +0.000 C 
ATOM      8  C   UNL     1      -5.648  -0.369 129.169  0.00  0.00    +0.000 C 
ENDROOT
BRANCH   6   9
ATOM      9  N   UNL     1      -6.584  -1.480 126.235  0.00  0.00    +0.000 N 
ATOM     10  C   UNL     1      -6.097  -0.225 125.883  0.00  0.00    +0.000 C 
ATOM     11  O   UNL     1      -4.933   0.154 125.872  0.00  0.00    +0.000 OA
ATOM     12  O   UNL     1      -7.072   0.660 125.566  0.00  0.00    +0.000 OA
ATOM     13  C   UNL     1      -7.652   0.299 124.332  0.00  0.00    +0.000 C 
ATOM     14  C   UNL     1      -8.059  -1.142 124.342  0.00  0.00    +0.000 A 
ATOM     15  C   UNL     1      -8.930  -1.605 123.356  0.00  0.00    +0.000 A 
ATOM     16  C   UNL     1      -9.295  -2.943 123.335  0.00  0.00    +0.000 A 
ATOM     17  C   UNL     1      -8.783  -3.819 124.290  0.00  0.00    +0.000 A 
ATOM     18  C   UNL     1      -7.909  -3.360 125.280  0.00  0.00    +0.000 A 
ATOM     19  C   UNL     1      -7.541  -2.014 125.320  0.00  0.00    +0.000 A 
ENDBRANCH   6   9
BRANCH   1  24
ATOM     20  C   UNL     1     -10.445   5.124 130.451  0.00  0.00    +0.000 A 
ATOM     21  C   UNL     1     -10.729   3.777 130.576  0.00  0.00    +0.000 A 
ATOM     22  C   UNL     1      -9.491   3.096 130.717  0.00  0.00    +0.000 A 
ATOM     23  C   UNL     1      -9.084   1.747 130.830  0.00  0.00    +0.000 A 
ATOM     24  C   UNL     1      -7.711   1.440 130.930  0.00  0.00    +0.000 A 
ATOM     25  C   UNL     1      -6.783   2.486 130.892  0.00  0.00    +0.000 A 
ATOM     26  C   UNL     1      -7.161   3.834 130.818  0.00  0.00    +0.000 A 
ATOM     27  C   UNL     1      -8.522   4.092 130.717  0.00  0.00    +0.000 A 
ATOM     28  O   UNL     1      -9.096   5.324 130.574  0.00  0.00    +0.000 OA
BRANCH  20  29
ATOM     29  C   UNL     1     -11.318   6.310 130.230  0.00  0.00    +0.000 C 
BRANCH  29  33
ATOM     30  C   UNL     1     -10.906   7.774 126.747  0.00  0.00    +0.000 C 
ATOM     31  C   UNL     1     -10.681   7.565 128.226  0.00  0.00    +0.000 C 
ATOM     32  O   UNL     1      -9.848   8.219 128.848  0.00  0.00    +0.000 OA
ATOM     33  N   UNL     1     -11.473   6.607 128.819  0.00  0.00    +0.000 N 
ATOM     34  H   UNL     1     -12.123   6.056 128.275  0.00  0.00    +0.000 HD
ENDBRANCH  29  33
ENDBRANCH  20  29
ENDBRANCH   1  24
TORSDOF 4
ENDMDL
MODEL 4
REMARK VINA RESULT:      -9.5      5.960      9.744
REMARK  Name = CHEMBL31350
REMARK  5 active torsions:
REMARK  status: ('A' for Active; 'I' for Inactive)
REMARK    1  A    between atoms: C_1  and  C_2
REMARK    2  A    between atoms: N_4  and  C_5
REMARK    3  A    between atoms: C_5  and  C_6
REMARK    4  A    between atoms: C_10  and  C_11
REMARK    5  A    between atoms: C_16  and  N_17
REMARK                            x       y       z     vdW  Elec       q    Type
REMARK                         _______ _______ _______ _____ _____    ______ ____
ROOT
ATOM      1  C   UNL     1      -3.209   5.815 133.049  0.00  0.00    +0.000 C 
ATOM      2  O   UNL     1      -2.773   4.671 132.936  0.00  0.00    +0.000 OA
ATOM      3  N   UNL     1      -2.409   6.818 133.592  0.00  0.00    +0.000 N 
ATOM      4  C   UNL     1      -1.536   7.515 132.659  0.00  0.00    +0.000 C 
ATOM      5  C   UNL     1      -0.276   7.996 133.353  0.00  0.00    +0.000 C 
ATOM      6  C   UNL     1      -0.614   8.868 134.581  0.00  0.00    +0.000 C 
ATOM      7  C   UNL     1      -1.536   8.089 135.534  0.00  0.00    +0.000 C 
ATOM      8  C   UNL     1      -2.762   7.516 134.831  0.00  0.00    +0.000 C 
ENDROOT
BRANCH   6   9
ATOM      9  N   UNL     1      -1.069  10.245 134.195  0.00  0.00    +0.000 N 
ATOM     10  C   UNL     1      -2.263  10.823 134.614  0.00  0.00    +0.000 C 
ATOM     11  O   UNL     1      -2.704  10.896 135.754  0.00  0.00    +0.000 OA
ATOM     12  O   UNL     1      -3.012  11.308 133.595  0.00  0.00    +0.000 OA
ATOM     13  C   UNL     1      -2.391  12.457 133.060  0.00  0.00    +0.000 C 
ATOM     14  C   UNL     1      -0.955  12.178 132.739  0.00  0.00    +0.000 A 
ATOM     15  C   UNL     1      -0.263  13.067 131.915  0.00  0.00    +0.000 A 
ATOM     16  C   UNL     1       1.075  12.839 131.631  0.00  0.00    +0.000 A 
ATOM     17  C   UNL     1       1.723  11.732 132.176  0.00  0.00    +0.000 A 
ATOM     18  C   UNL     1       1.035  10.839 133.002  0.00  0.00    +0.000 A 
ATOM     19  C   UNL     1      -0.315  11.050 133.289  0.00  0.00    +0.000 A 
ENDBRANCH   6   9
BRANCH   1  24
ATOM     20  C   UNL     1      -9.138   6.161 131.938  0.00  0.00    +0.000 A 
ATOM     21  C   UNL     1      -8.326   5.629 132.923  0.00  0.00    +0.000 A 
ATOM     22  C   UNL     1      -6.986   5.952 132.584  0.00  0.00    +0.000 A 
ATOM     23  C   UNL     1      -5.710   5.672 133.125  0.00  0.00    +0.000 A 
ATOM     24  C   UNL     1      -4.556   6.158 132.473  0.00  0.00    +0.000 A 
ATOM     25  C   UNL     1      -4.709   6.888 131.291  0.00  0.00    +0.000 A 
ATOM     26  C   UNL     1      -5.963   7.211 130.754  0.00  0.00    +0.000 A 
ATOM     27  C   UNL     1      -7.072   6.710 131.424  0.00  0.00    +0.000 A 
ATOM     28  O   UNL     1      -8.375   6.855 131.037  0.00  0.00    +0.000 OA
BRANCH  20  29
ATOM     29  C   UNL     1     -10.611   6.109 131.725  0.00  0.00    +0.000 C 
BRANCH  29  33
ATOM     30  C   UNL     1     -12.626   8.404 129.464  0.00  0.00    +0.000 C 
ATOM     31  C   UNL     1     -12.308   7.487 130.620  0.00  0.00    +0.000 C 
ATOM     32  O   UNL     1     -13.147   7.213 131.473  0.00  0.00    +0.000 OA
ATOM     33  N   UNL     1     -11.027   6.980 130.642  0.00  0.00    +0.000 N 
ATOM     34  H   UNL     1     -10.344   7.254 129.948  0.00  0.00    +0.000 HD
ENDBRANCH  29  33
ENDBRANCH  20  29
ENDBRANCH   1  24
TORSDOF 4
ENDMDL
MODEL 5
REMARK VINA RESULT:      -9.4      3.346      4.474
REMARK  Name = CHEMBL31350
REMARK  5 active torsions:
REMARK  status: ('A' for Active; 'I' for Inactive)
REMARK    1  A    between atoms: C_1  and  C_2
REMARK    2  A    between atoms: N_4  and  C_5
REMARK    3  A    between atoms: C_5  and  C_6
REMARK    4  A    between atoms: C_10  and  C_11
REMARK    5  A    between atoms: C_16  and  N_17
REMARK                            x       y       z     vdW  Elec       q    Type
REMARK                         _______ _______ _______ _____ _____    ______ ____
ROOT
ATOM      1  C   UNL     1      -7.459   2.122 132.666  0.00  0.00    +0.000 C 
ATOM      2  O   UNL     1      -7.480   1.767 133.843  0.00  0.00    +0.000 OA
ATOM      3  N   UNL     1      -7.056   1.231 131.673  0.00  0.00    +0.000 N 
ATOM      4  C   UNL     1      -8.096   0.367 131.131  0.00  0.00    +0.000 C 
ATOM      5  C   UNL     1      -7.514  -0.957 130.674  0.00  0.00    +0.000 C 
ATOM      6  C   UNL     1      -6.363  -0.744 129.668  0.00  0.00    +0.000 C 
ATOM      7  C   UNL     1      -5.294   0.173 130.287  0.00  0.00    +0.000 C 
ATOM      8  C   UNL     1      -5.877   1.470 130.838  0.00  0.00    +0.000 C 
ENDROOT
BRANCH   6   9
ATOM      9  N   UNL     1      -6.860  -0.357 128.306  0.00  0.00    +0.000 N 
ATOM     10  C   UNL     1      -6.576   0.853 127.681  0.00  0.00    +0.000 C 
ATOM     11  O   UNL     1      -5.484   1.385 127.535  0.00  0.00    +0.000 OA
ATOM     12  O   UNL     1      -7.680   1.501 127.239  0.00  0.00    +0.000 OA
ATOM     13  C   UNL     1      -8.222   0.809 126.135  0.00  0.00    +0.000 C 
ATOM     14  C   UNL     1      -8.404  -0.641 126.460  0.00  0.00    +0.000 A 
ATOM     15  C   UNL     1      -9.213  -1.422 125.634  0.00  0.00    +0.000 A 
ATOM     16  C   UNL     1      -9.370  -2.773 125.905  0.00  0.00    +0.000 A 
ATOM     17  C   UNL     1      -8.713  -3.345 126.992  0.00  0.00    +0.000 A 
ATOM     18  C   UNL     1      -7.901  -2.568 127.823  0.00  0.00    +0.000 A 
ATOM     19  C   UNL     1      -7.742  -1.205 127.569  0.00  0.00    +0.000 A 
ENDBRANCH   6   9
BRANCH   1  24
ATOM     20  C   UNL     1     -10.925   6.636 130.636  0.00  0.00    +0.000 A 
ATOM     21  C   UNL     1     -11.068   5.279 130.865  0.00  0.00    +0.000 A 
ATOM     22  C   UNL     1      -9.842   4.812 131.407  0.00  0.00    +0.000 A 
ATOM     23  C   UNL     1      -9.321   3.558 131.801  0.00  0.00    +0.000 A 
ATOM     24  C   UNL     1      -8.000   3.474 132.287  0.00  0.00    +0.000 A 
ATOM     25  C   UNL     1      -7.230   4.640 132.347  0.00  0.00    +0.000 A 
ATOM     26  C   UNL     1      -7.733   5.901 131.998  0.00  0.00    +0.000 A 
ATOM     27  C   UNL     1      -9.037   5.938 131.520  0.00  0.00    +0.000 A 
ATOM     28  O   UNL     1      -9.694   7.049 131.070  0.00  0.00    +0.000 OA
BRANCH  20  29
ATOM     29  C   UNL     1     -11.842   7.648 130.043  0.00  0.00    +0.000 C 
BRANCH  29  33
ATOM     30  C   UNL     1     -11.180   7.750 126.302  0.00  0.00    +0.000 C 
ATOM     31  C   UNL     1     -10.976   7.994 127.778  0.00  0.00    +0.000 C 
ATOM     32  O   UNL     1     -10.000   8.608 128.199  0.00  0.00    +0.000 OA
ATOM     33  N   UNL     1     -11.956   7.491 128.605  0.00  0.00    +0.000 N 
ATOM     34  H   UNL     1     -12.729   6.955 128.234  0.00  0.00    +0.000 HD
ENDBRANCH  29  33
ENDBRANCH  20  29
ENDBRANCH   1  24
TORSDOF 4
ENDMDL
MODEL 6
REMARK VINA RESULT:      -9.4      5.092      7.996
REMARK  Name = CHEMBL31350
REMARK  5 active torsions:
REMARK  status: ('A' for Active; 'I' for Inactive)
REMARK    1  A    between atoms: C_1  and  C_2
REMARK    2  A    between atoms: N_4  and  C_5
REMARK    3  A    between atoms: C_5  and  C_6
REMARK    4  A    between atoms: C_10  and  C_11
REMARK    5  A    between atoms: C_16  and  N_17
REMARK                            x       y       z     vdW  Elec       q    Type
REMARK                         _______ _______ _______ _____ _____    ______ ____
ROOT
ATOM      1  C   UNL     1      -6.831   3.987 133.180  0.00  0.00    +0.000 C 
ATOM      2  O   UNL     1      -6.316   2.870 133.186  0.00  0.00    +0.000 OA
ATOM      3  N   UNL     1      -7.734   4.335 132.178  0.00  0.00    +0.000 N 
ATOM      4  C   UNL     1      -9.124   3.972 132.416  0.00  0.00    +0.000 C 
ATOM      5  C   UNL     1      -9.844   3.704 131.108  0.00  0.00    +0.000 C 
ATOM      6  C   UNL     1      -9.722   4.906 130.147  0.00  0.00    +0.000 C 
ATOM      7  C   UNL     1      -8.239   5.248 129.929  0.00  0.00    +0.000 C 
ATOM      8  C   UNL     1      -7.476   5.428 131.237  0.00  0.00    +0.000 C 
ENDROOT
BRANCH   6   9
ATOM      9  N   UNL     1     -10.615   6.045 130.542  0.00  0.00    +0.000 N 
ATOM     10  C   UNL     1     -10.971   6.344 131.854  0.00  0.00    +0.000 C 
ATOM     11  O   UNL     1     -10.235   6.462 132.824  0.00  0.00    +0.000 OA
ATOM     12  O   UNL     1     -12.309   6.464 132.033  0.00  0.00    +0.000 OA
ATOM     13  C   UNL     1     -12.763   7.646 131.411  0.00  0.00    +0.000 C 
ATOM     14  C   UNL     1     -12.287   7.710 129.992  0.00  0.00    +0.000 A 
ATOM     15  C   UNL     1     -12.885   8.621 129.120  0.00  0.00    +0.000 A 
ATOM     16  C   UNL     1     -12.438   8.713 127.811  0.00  0.00    +0.000 A 
ATOM     17  C   UNL     1     -11.389   7.905 127.376  0.00  0.00    +0.000 A 
ATOM     18  C   UNL     1     -10.786   6.992 128.245  0.00  0.00    +0.000 A 
ATOM     19  C   UNL     1     -11.232   6.880 129.563  0.00  0.00    +0.000 A 
ENDBRANCH   6   9
BRANCH   1  24
ATOM     20  C   UNL     1      -7.493   7.505 138.047  0.00  0.00    +0.000 A 
ATOM     21  C   UNL     1      -8.262   6.589 137.353  0.00  0.00    +0.000 A 
ATOM     22  C   UNL     1      -7.460   6.076 136.300  0.00  0.00    +0.000 A 
ATOM     23  C   UNL     1      -7.651   5.175 135.228  0.00  0.00    +0.000 A 
ATOM     24  C   UNL     1      -6.590   4.922 134.333  0.00  0.00    +0.000 A 
ATOM     25  C   UNL     1      -5.377   5.592 134.521  0.00  0.00    +0.000 A 
ATOM     26  C   UNL     1      -5.150   6.462 135.597  0.00  0.00    +0.000 A 
ATOM     27  C   UNL     1      -6.221   6.686 136.452  0.00  0.00    +0.000 A 
ATOM     28  O   UNL     1      -6.231   7.540 137.519  0.00  0.00    +0.000 OA
BRANCH  20  29
ATOM     29  C   UNL     1      -7.800   8.389 139.205  0.00  0.00    +0.000 C 
BRANCH  29  33
ATOM     30  C   UNL     1      -6.639  12.005 139.348  0.00  0.00    +0.000 C 
ATOM     31  C   UNL     1      -7.580  10.824 139.349  0.00  0.00    +0.000 C 
ATOM     32  O   UNL     1      -8.793  10.969 139.474  0.00  0.00    +0.000 OA
ATOM     33  N   UNL     1      -6.987   9.591 139.192  0.00  0.00    +0.000 N 
ATOM     34  H   UNL     1      -5.982   9.498 139.130  0.00  0.00    +0.000 HD
ENDBRANCH  29  33
ENDBRANCH  20  29
ENDBRANCH   1  24
TORSDOF 4
ENDMDL
MODEL 7
REMARK VINA RESULT:      -9.4      3.948      4.664
REMARK  Name = CHEMBL31350
REMARK  5 active torsions:
REMARK  status: ('A' for Active; 'I' for Inactive)
REMARK    1  A    between atoms: C_1  and  C_2
REMARK    2  A    between atoms: N_4  and  C_5
REMARK    3  A    between atoms: C_5  and  C_6
REMARK    4  A    between atoms: C_10  and  C_11
REMARK    5  A    between atoms: C_16  and  N_17
REMARK                            x       y       z     vdW  Elec       q    Type
REMARK                         _______ _______ _______ _____ _____    ______ ____
ROOT
ATOM      1  C   UNL     1      -7.294  -0.582 131.389  0.00  0.00    +0.000 C 
ATOM      2  O   UNL     1      -7.099  -1.217 132.425  0.00  0.00    +0.000 OA
ATOM      3  N   UNL     1      -6.909  -1.114 130.160  0.00  0.00    +0.000 N 
ATOM      4  C   UNL     1      -7.876  -1.986 129.509  0.00  0.00    +0.000 C 
ATOM      5  C   UNL     1      -7.177  -3.030 128.660  0.00  0.00    +0.000 C 
ATOM      6  C   UNL     1      -6.221  -2.373 127.642  0.00  0.00    +0.000 C 
ATOM      7  C   UNL     1      -5.222  -1.465 128.377  0.00  0.00    +0.000 C 
ATOM      8  C   UNL     1      -5.905  -0.470 129.310  0.00  0.00    +0.000 C 
ENDROOT
BRANCH   6   9
ATOM      9  N   UNL     1      -6.955  -1.755 126.488  0.00  0.00    +0.000 N 
ATOM     10  C   UNL     1      -8.054  -0.912 126.618  0.00  0.00    +0.000 C 
ATOM     11  O   UNL     1      -8.167   0.072 127.337  0.00  0.00    +0.000 OA
ATOM     12  O   UNL     1      -9.118  -1.298 125.873  0.00  0.00    +0.000 OA
ATOM     13  C   UNL     1      -8.839  -1.080 124.507  0.00  0.00    +0.000 C 
ATOM     14  C   UNL     1      -7.524  -1.693 124.133  0.00  0.00    +0.000 A 
ATOM     15  C   UNL     1      -7.221  -1.870 122.783  0.00  0.00    +0.000 A 
ATOM     16  C   UNL     1      -5.997  -2.410 122.420  0.00  0.00    +0.000 A 
ATOM     17  C   UNL     1      -5.073  -2.764 123.401  0.00  0.00    +0.000 A 
ATOM     18  C   UNL     1      -5.371  -2.588 124.756  0.00  0.00    +0.000 A 
ATOM     19  C   UNL     1      -6.604  -2.055 125.137  0.00  0.00    +0.000 A 
ENDBRANCH   6   9
BRANCH   1  24
ATOM     20  C   UNL     1      -8.923   5.235 131.304  0.00  0.00    +0.000 A 
ATOM     21  C   UNL     1      -7.790   4.501 131.005  0.00  0.00    +0.000 A 
ATOM     22  C   UNL     1      -8.109   3.132 131.207  0.00  0.00    +0.000 A 
ATOM     23  C   UNL     1      -7.407   1.907 131.132  0.00  0.00    +0.000 A 
ATOM     24  C   UNL     1      -8.074   0.703 131.441  0.00  0.00    +0.000 A 
ATOM     25  C   UNL     1      -9.414   0.758 131.836  0.00  0.00    +0.000 A 
ATOM     26  C   UNL     1     -10.143   1.955 131.882  0.00  0.00    +0.000 A 
ATOM     27  C   UNL     1      -9.448   3.118 131.574  0.00  0.00    +0.000 A 
ATOM     28  O   UNL     1      -9.951   4.388 131.618  0.00  0.00    +0.000 OA
BRANCH  20  29
ATOM     29  C   UNL     1      -9.184   6.701 131.324  0.00  0.00    +0.000 C 
BRANCH  29  33
ATOM     30  C   UNL     1     -10.543   8.250 128.131  0.00  0.00    +0.000 C 
ATOM     31  C   UNL     1     -10.532   7.679 129.529  0.00  0.00    +0.000 C 
ATOM     32  O   UNL     1     -11.557   7.608 130.202  0.00  0.00    +0.000 OA
ATOM     33  N   UNL     1      -9.307   7.243 129.985  0.00  0.00    +0.000 N 
ATOM     34  H   UNL     1      -8.473   7.350 129.424  0.00  0.00    +0.000 HD
ENDBRANCH  29  33
ENDBRANCH  20  29
ENDBRANCH   1  24
TORSDOF 4
ENDMDL
MODEL 8
REMARK VINA RESULT:      -9.2      4.515      6.579
REMARK  Name = CHEMBL31350
REMARK  5 active torsions:
REMARK  status: ('A' for Active; 'I' for Inactive)
REMARK    1  A    between atoms: C_1  and  C_2
REMARK    2  A    between atoms: N_4  and  C_5
REMARK    3  A    between atoms: C_5  and  C_6
REMARK    4  A    between atoms: C_10  and  C_11
REMARK    5  A    between atoms: C_16  and  N_17
REMARK                            x       y       z     vdW  Elec       q    Type
REMARK                         _______ _______ _______ _____ _____    ______ ____
ROOT
ATOM      1  C   UNL     1      -5.582   4.173 124.372  0.00  0.00    +0.000 C 
ATOM      2  O   UNL     1      -5.278   4.823 123.373  0.00  0.00    +0.000 OA
ATOM      3  N   UNL     1      -6.649   3.277 124.326  0.00  0.00    +0.000 N 
ATOM      4  C   UNL     1      -6.336   1.934 123.859  0.00  0.00    +0.000 C 
ATOM      5  C   UNL     1      -7.533   1.310 123.169  0.00  0.00    +0.000 C 
ATOM      6  C   UNL     1      -8.775   1.323 124.085  0.00  0.00    +0.000 C 
ATOM      7  C   UNL     1      -9.063   2.760 124.550  0.00  0.00    +0.000 C 
ATOM      8  C   UNL     1      -7.842   3.438 125.161  0.00  0.00    +0.000 C 
ENDROOT
BRANCH   6   9
ATOM      9  N   UNL     1      -8.702   0.279 125.160  0.00  0.00    +0.000 N 
ATOM     10  C   UNL     1      -8.596   0.559 126.519  0.00  0.00    +0.000 C 
ATOM     11  O   UNL     1      -9.276   1.329 127.183  0.00  0.00    +0.000 OA
ATOM     12  O   UNL     1      -7.571  -0.090 127.123  0.00  0.00    +0.000 OA
ATOM     13  C   UNL     1      -7.871  -1.466 127.208  0.00  0.00    +0.000 C 
ATOM     14  C   UNL     1      -8.283  -1.999 125.870  0.00  0.00    +0.000 A 
ATOM     15  C   UNL     1      -8.306  -3.380 125.672  0.00  0.00    +0.000 A 
ATOM     16  C   UNL     1      -8.712  -3.891 124.448  0.00  0.00    +0.000 A 
ATOM     17  C   UNL     1      -9.103  -3.026 123.428  0.00  0.00    +0.000 A 
ATOM     18  C   UNL     1      -9.081  -1.642 123.621  0.00  0.00    +0.000 A 
ATOM     19  C   UNL     1      -8.666  -1.112 124.844  0.00  0.00    +0.000 A 
ENDBRANCH   6   9
BRANCH   1  24
ATOM     20  C   UNL     1      -2.862   5.937 129.470  0.00  0.00    +0.000 A 
ATOM     21  C   UNL     1      -3.917   6.371 128.688  0.00  0.00    +0.000 A 
ATOM     22  C   UNL     1      -4.060   5.445 127.622  0.00  0.00    +0.000 A 
ATOM     23  C   UNL     1      -4.886   5.335 126.480  0.00  0.00    +0.000 A 
ATOM     24  C   UNL     1      -4.714   4.247 125.599  0.00  0.00    +0.000 A 
ATOM     25  C   UNL     1      -3.710   3.312 125.871  0.00  0.00    +0.000 A 
ATOM     26  C   UNL     1      -2.902   3.378 127.015  0.00  0.00    +0.000 A 
ATOM     27  C   UNL     1      -3.102   4.467 127.854  0.00  0.00    +0.000 A 
ATOM     28  O   UNL     1      -2.384   4.751 128.982  0.00  0.00    +0.000 OA
BRANCH  20  29
ATOM     29  C   UNL     1      -2.218   6.514 130.683  0.00  0.00    +0.000 C 
BRANCH  29  33
ATOM     30  C   UNL     1      -3.918   6.573 134.081  0.00  0.00    +0.000 C 
ATOM     31  C   UNL     1      -3.158   7.069 132.875  0.00  0.00    +0.000 C 
ATOM     32  O   UNL     1      -2.778   8.234 132.790  0.00  0.00    +0.000 OA
ATOM     33  N   UNL     1      -2.918   6.132 131.895  0.00  0.00    +0.000 N 
ATOM     34  H   UNL     1      -3.277   5.190 131.973  0.00  0.00    +0.000 HD
ENDBRANCH  29  33
ENDBRANCH  20  29
ENDBRANCH   1  24
TORSDOF 4
ENDMDL
MODEL 9
REMARK VINA RESULT:      -9.2      5.210      8.240
REMARK  Name = CHEMBL31350
REMARK  5 active torsions:
REMARK  status: ('A' for Active; 'I' for Inactive)
REMARK    1  A    between atoms: C_1  and  C_2
REMARK    2  A    between atoms: N_4  and  C_5
REMARK    3  A    between atoms: C_5  and  C_6
REMARK    4  A    between atoms: C_10  and  C_11
REMARK    5  A    between atoms: C_16  and  N_17
REMARK                            x       y       z     vdW  Elec       q    Type
REMARK                         _______ _______ _______ _____ _____    ______ ____
ROOT
ATOM      1  C   UNL     1      -9.065  -2.388 125.951  0.00  0.00    +0.000 C 
ATOM      2  O   UNL     1     -10.111  -3.014 125.786  0.00  0.00    +0.000 OA
ATOM      3  N   UNL     1      -8.714  -1.368 125.069  0.00  0.00    +0.000 N 
ATOM      4  C   UNL     1      -9.254  -0.050 125.368  0.00  0.00    +0.000 C 
ATOM      5  C   UNL     1      -9.457   0.752 124.097  0.00  0.00    +0.000 C 
ATOM      6  C   UNL     1      -8.151   0.840 123.278  0.00  0.00    +0.000 C 
ATOM      7  C   UNL     1      -7.623  -0.575 122.989  0.00  0.00    +0.000 C 
ATOM      8  C   UNL     1      -7.503  -1.428 124.247  0.00  0.00    +0.000 C 
ENDROOT
BRANCH   6   9
ATOM      9  N   UNL     1      -7.170   1.807 123.872  0.00  0.00    +0.000 N 
ATOM     10  C   UNL     1      -6.918   1.931 125.235  0.00  0.00    +0.000 C 
ATOM     11  O   UNL     1      -6.669   1.042 126.037  0.00  0.00    +0.000 OA
ATOM     12  O   UNL     1      -7.017   3.205 125.685  0.00  0.00    +0.000 OA
ATOM     13  C   UNL     1      -5.932   3.963 125.195  0.00  0.00    +0.000 C 
ATOM     14  C   UNL     1      -5.807   3.804 123.711  0.00  0.00    +0.000 A 
ATOM     15  C   UNL     1      -5.018   4.708 122.999  0.00  0.00    +0.000 A 
ATOM     16  C   UNL     1      -4.869   4.559 121.628  0.00  0.00    +0.000 A 
ATOM     17  C   UNL     1      -5.499   3.504 120.971  0.00  0.00    +0.000 A 
ATOM     18  C   UNL     1      -6.291   2.595 121.679  0.00  0.00    +0.000 A 
ATOM     19  C   UNL     1      -6.458   2.739 123.057  0.00  0.00    +0.000 A 
ENDBRANCH   6   9
BRANCH   1  24
ATOM     20  C   UNL     1      -4.598  -2.562 130.015  0.00  0.00    +0.000 A 
ATOM     21  C   UNL     1      -4.835  -1.939 128.804  0.00  0.00    +0.000 A 
ATOM     22  C   UNL     1      -6.144  -2.303 128.391  0.00  0.00    +0.000 A 
ATOM     23  C   UNL     1      -6.953  -2.060 127.257  0.00  0.00    +0.000 A 
ATOM     24  C   UNL     1      -8.240  -2.633 127.185  0.00  0.00    +0.000 A 
ATOM     25  C   UNL     1      -8.673  -3.449 128.234  0.00  0.00    +0.000 A 
ATOM     26  C   UNL     1      -7.906  -3.676 129.385  0.00  0.00    +0.000 A 
ATOM     27  C   UNL     1      -6.644  -3.097 129.415  0.00  0.00    +0.000 A 
ATOM     28  O   UNL     1      -5.718  -3.243 130.410  0.00  0.00    +0.000 OA
BRANCH  20  29
ATOM     29  C   UNL     1      -3.402  -2.595 130.901  0.00  0.00    +0.000 C 
BRANCH  29  33
ATOM     30  C   UNL     1      -2.650  -0.187 133.743  0.00  0.00    +0.000 C 
ATOM     31  C   UNL     1      -2.704  -1.481 132.968  0.00  0.00    +0.000 C 
ATOM     32  O   UNL     1      -2.232  -2.521 133.419  0.00  0.00    +0.000 OA
ATOM     33  N   UNL     1      -3.320  -1.413 131.738  0.00  0.00    +0.000 N 
ATOM     34  H   UNL     1      -3.665  -0.535 131.374  0.00  0.00    +0.000 HD
ENDBRANCH  29  33
ENDBRANCH  20  29
ENDBRANCH   1  24
TORSDOF 4
ENDMDL
