MODEL 1
REMARK VINA RESULT:     -12.1      0.000      0.000
REMARK  Name = CHEMBL32404
REMARK  7 active torsions:
REMARK  status: ('A' for Active; 'I' for Inactive)
REMARK    1  A    between atoms: C_2  and  C_3
REMARK    2  A    between atoms: C_3  and  N_4
REMARK    3  A    between atoms: C_7  and  C_8
REMARK    4  A    between atoms: N_15  and  C_16
REMARK    5  A    between atoms: C_16  and  C_17
REMARK    6  A    between atoms: C_21  and  C_22
REMARK    7  A    between atoms: C_27  and  N_28
REMARK                            x       y       z     vdW  Elec       q    Type
REMARK                         _______ _______ _______ _____ _____    ______ ____
ROOT
ATOM      1  C   UNL     1      -5.660   2.916 130.314  0.00  0.00    +0.000 A 
ATOM      2  C   UNL     1      -4.662   3.877 130.406  0.00  0.00    +0.000 A 
ATOM      3  C   UNL     1      -4.423   4.246 129.065  0.00  0.00    +0.000 A 
ATOM      4  C   UNL     1      -5.281   4.695 128.021  0.00  0.00    +0.000 A 
ATOM      5  C   UNL     1      -4.972   4.623 126.653  0.00  0.00    +0.000 A 
ATOM      6  C   UNL     1      -3.734   4.108 126.328  0.00  0.00    +0.000 A 
ATOM      7  C   UNL     1      -3.102   3.314 127.327  0.00  0.00    +0.000 A 
ATOM      8  C   UNL     1      -3.799   3.097 128.594  0.00  0.00    +0.000 A 
ATOM      9  O   UNL     1      -5.116   2.206 129.055  0.00  0.00    +0.000 OA
ENDROOT
BRANCH   5  10
ATOM     10  C   UNL     1      -5.999   4.888 125.598  0.00  0.00    +0.000 C 
ATOM     11  O   UNL     1      -6.041   6.000 125.075  0.00  0.00    +0.000 OA
ATOM     12  N   UNL     1      -6.729   3.787 125.110  0.00  0.00    +0.000 N 
ATOM     13  C   UNL     1      -6.487   3.348 123.739  0.00  0.00    +0.000 C 
ATOM     14  C   UNL     1      -7.775   2.982 123.033  0.00  0.00    +0.000 C 
ATOM     15  C   UNL     1      -8.341   1.494 123.714  0.00  0.00    +0.000 C 
ATOM     16  C   UNL     1      -8.710   2.330 125.218  0.00  0.00    +0.000 C 
ATOM     17  C   UNL     1      -7.479   2.835 125.938  0.00  0.00    +0.000 C 
BRANCH  15  18
ATOM     18  N   UNL     1      -7.496  -0.006 123.006  0.00  0.00    +0.000 N 
ATOM     19  C   UNL     1      -8.779  -0.601 123.361  0.00  0.00    +0.000 C 
ATOM     20  O   UNL     1      -9.935  -0.240 123.009  0.00  0.00    +0.000 OA
ATOM     21  O   UNL     1      -8.751  -1.515 124.323  0.00  0.00    +0.000 OA
ATOM     22  C   UNL     1      -8.667  -2.612 123.494  0.00  0.00    +0.000 C 
ATOM     23  C   UNL     1      -7.225  -2.663 123.642  0.00  0.00    +0.000 A 
ATOM     24  C   UNL     1      -6.490  -3.380 124.620  0.00  0.00    +0.000 A 
ATOM     25  C   UNL     1      -5.165  -3.784 124.471  0.00  0.00    +0.000 A 
ATOM     26  C   UNL     1      -4.703  -3.628 123.201  0.00  0.00    +0.000 A 
ATOM     27  C   UNL     1      -5.459  -2.555 122.388  0.00  0.00    +0.000 A 
ATOM     28  C   UNL     1      -6.587  -1.628 123.037  0.00  0.00    +0.000 A 
ENDBRANCH  15  18
ENDBRANCH   5  10
BRANCH   1  29
ATOM     29  C   UNL     1      -6.465   2.419 131.593  0.00  0.00    +0.000 C 
BRANCH  29  32
ATOM     30  O   UNL     1     -10.113   2.329 131.964  0.00  0.00    +0.000 OA
ATOM     31  C   UNL     1      -8.994   2.849 131.903  0.00  0.00    +0.000 C 
ATOM     32  N   UNL     1      -7.880   2.025 131.661  0.00  0.00    +0.000 N 
ATOM     33  H   UNL     1      -8.138   1.047 131.587  0.00  0.00    +0.000 HD
BRANCH  31  34
ATOM     34  C   UNL     1      -8.847   4.396 132.063  0.00  0.00    +0.000 C 
BRANCH  34  35
ATOM     35  N   UNL     1      -9.531   5.179 131.001  0.00  0.00    +0.000 N 
ATOM     36  C   UNL     1      -9.185   5.071 129.675  0.00  0.00    +0.000 A 
ATOM     37  N   UNL     1      -9.528   5.895 128.735  0.00  0.00    +0.000 NA
ATOM     38  C   UNL     1     -10.395   6.921 129.071  0.00  0.00    +0.000 A 
ATOM     39  C   UNL     1     -10.946   7.008 130.290  0.00  0.00    +0.000 A 
ATOM     40  C   UNL     1     -10.383   6.192 131.379  0.00  0.00    +0.000 A 
ATOM     41  O   UNL     1     -10.643   6.493 132.540  0.00  0.00    +0.000 OA
BRANCH  38  42
ATOM     42  C   UNL     1     -10.746   7.964 128.014  0.00  0.00    +0.000 C 
ATOM     43  F   UNL     1     -12.060   8.315 128.061  0.00  0.00    +0.000 F 
ATOM     44  F   UNL     1     -10.023   9.105 128.141  0.00  0.00    +0.000 F 
ATOM     45  F   UNL     1     -10.527   7.509 126.748  0.00  0.00    +0.000 F 
ENDBRANCH  38  42
ENDBRANCH  34  35
ENDBRANCH  31  34
ENDBRANCH  29  32
ENDBRANCH   1  29
TORSDOF 7
ENDMDL
MODEL 2
REMARK VINA RESULT:     -12.0      3.660      9.337
REMARK  Name = CHEMBL32404
REMARK  7 active torsions:
REMARK  status: ('A' for Active; 'I' for Inactive)
REMARK    1  A    between atoms: C_2  and  C_3
REMARK    2  A    between atoms: C_3  and  N_4
REMARK    3  A    between atoms: C_7  and  C_8
REMARK    4  A    between atoms: N_15  and  C_16
REMARK    5  A    between atoms: C_16  and  C_17
REMARK    6  A    between atoms: C_21  and  C_22
REMARK    7  A    between atoms: C_27  and  N_28
REMARK                            x       y       z     vdW  Elec       q    Type
REMARK                         _______ _______ _______ _____ _____    ______ ____
ROOT
ATOM      1  C   UNL     1      -4.749   4.284 126.683  0.00  0.00    +0.000 A 
ATOM      2  C   UNL     1      -3.439   3.833 126.771  0.00  0.00    +0.000 A 
ATOM      3  C   UNL     1      -2.989   4.334 128.010  0.00  0.00    +0.000 A 
ATOM      4  C   UNL     1      -3.508   4.242 129.333  0.00  0.00    +0.000 A 
ATOM      5  C   UNL     1      -3.186   5.125 130.377  0.00  0.00    +0.000 A 
ATOM      6  C   UNL     1      -2.280   6.122 130.080  0.00  0.00    +0.000 A 
ATOM      7  C   UNL     1      -2.112   6.429 128.700  0.00  0.00    +0.000 A 
ATOM      8  C   UNL     1      -2.903   5.690 127.717  0.00  0.00    +0.000 A 
ATOM      9  O   UNL     1      -4.500   5.687 127.279  0.00  0.00    +0.000 OA
ENDROOT
BRANCH   5  10
ATOM     10  C   UNL     1      -3.936   5.122 131.671  0.00  0.00    +0.000 C 
ATOM     11  O   UNL     1      -3.314   5.288 132.718  0.00  0.00    +0.000 OA
ATOM     12  N   UNL     1      -5.344   5.139 131.608  0.00  0.00    +0.000 N 
ATOM     13  C   UNL     1      -6.042   6.345 132.040  0.00  0.00    +0.000 C 
ATOM     14  C   UNL     1      -7.281   6.016 132.844  0.00  0.00    +0.000 C 
ATOM     15  C   UNL     1      -8.462   5.378 131.749  0.00  0.00    +0.000 C 
ATOM     16  C   UNL     1      -7.485   3.927 131.550  0.00  0.00    +0.000 C 
ATOM     17  C   UNL     1      -6.167   4.186 130.854  0.00  0.00    +0.000 C 
BRANCH  15  18
ATOM     18  N   UNL     1      -9.387   6.697 130.816  0.00  0.00    +0.000 N 
ATOM     19  C   UNL     1     -10.406   6.340 131.794  0.00  0.00    +0.000 C 
ATOM     20  O   UNL     1     -10.317   6.332 133.052  0.00  0.00    +0.000 OA
ATOM     21  O   UNL     1     -11.503   5.770 131.311  0.00  0.00    +0.000 OA
ATOM     22  C   UNL     1     -12.248   6.925 131.212  0.00  0.00    +0.000 C 
ATOM     23  C   UNL     1     -11.913   7.068 129.808  0.00  0.00    +0.000 A 
ATOM     24  C   UNL     1     -12.627   6.545 128.700  0.00  0.00    +0.000 A 
ATOM     25  C   UNL     1     -12.565   7.061 127.408  0.00  0.00    +0.000 A 
ATOM     26  C   UNL     1     -11.930   8.263 127.347  0.00  0.00    +0.000 A 
ATOM     27  C   UNL     1     -10.944   8.508 128.508  0.00  0.00    +0.000 A 
ATOM     28  C   UNL     1     -10.610   7.388 129.598  0.00  0.00    +0.000 A 
ENDBRANCH  15  18
ENDBRANCH   5  10
BRANCH   1  29
ATOM     29  C   UNL     1      -5.759   3.719 125.591  0.00  0.00    +0.000 C 
BRANCH  29  32
ATOM     30  O   UNL     1      -9.288   2.845 125.113  0.00  0.00    +0.000 OA
ATOM     31  C   UNL     1      -8.081   2.859 124.854  0.00  0.00    +0.000 C 
ATOM     32  N   UNL     1      -7.212   3.539 125.726  0.00  0.00    +0.000 N 
ATOM     33  H   UNL     1      -7.709   3.984 126.490  0.00  0.00    +0.000 HD
BRANCH  31  34
ATOM     34  C   UNL     1      -7.548   2.100 123.597  0.00  0.00    +0.000 C 
BRANCH  34  35
ATOM     35  N   UNL     1      -7.866   0.648 123.589  0.00  0.00    +0.000 N 
ATOM     36  C   UNL     1      -9.054   0.162 123.096  0.00  0.00    +0.000 A 
ATOM     37  N   UNL     1      -9.522  -1.029 123.294  0.00  0.00    +0.000 NA
ATOM     38  C   UNL     1      -8.720  -1.925 123.980  0.00  0.00    +0.000 A 
ATOM     39  C   UNL     1      -7.465  -1.616 124.339  0.00  0.00    +0.000 A 
ATOM     40  C   UNL     1      -7.043  -0.207 124.287  0.00  0.00    +0.000 A 
ATOM     41  O   UNL     1      -6.041   0.136 124.907  0.00  0.00    +0.000 OA
BRANCH  38  42
ATOM     42  C   UNL     1      -9.276  -3.306 124.313  0.00  0.00    +0.000 C 
ATOM     43  F   UNL     1     -10.115  -3.765 123.346  0.00  0.00    +0.000 F 
ATOM     44  F   UNL     1      -8.304  -4.239 124.475  0.00  0.00    +0.000 F 
ATOM     45  F   UNL     1     -10.003  -3.305 125.467  0.00  0.00    +0.000 F 
ENDBRANCH  38  42
ENDBRANCH  34  35
ENDBRANCH  31  34
ENDBRANCH  29  32
ENDBRANCH   1  29
TORSDOF 7
ENDMDL
MODEL 3
REMARK VINA RESULT:     -11.9      3.235      8.574
REMARK  Name = CHEMBL32404
REMARK  7 active torsions:
REMARK  status: ('A' for Active; 'I' for Inactive)
REMARK    1  A    between atoms: C_2  and  C_3
REMARK    2  A    between atoms: C_3  and  N_4
REMARK    3  A    between atoms: C_7  and  C_8
REMARK    4  A    between atoms: N_15  and  C_16
REMARK    5  A    between atoms: C_16  and  C_17
REMARK    6  A    between atoms: C_21  and  C_22
REMARK    7  A    between atoms: C_27  and  N_28
REMARK                            x       y       z     vdW  Elec       q    Type
REMARK                         _______ _______ _______ _____ _____    ______ ____
ROOT
ATOM      1  C   UNL     1      -6.283   0.510 126.986  0.00  0.00    +0.000 A 
ATOM      2  C   UNL     1      -5.122   0.563 126.227  0.00  0.00    +0.000 A 
ATOM      3  C   UNL     1      -4.553   1.810 126.564  0.00  0.00    +0.000 A 
ATOM      4  C   UNL     1      -4.215   2.410 127.811  0.00  0.00    +0.000 A 
ATOM      5  C   UNL     1      -4.050   3.790 128.009  0.00  0.00    +0.000 A 
ATOM      6  C   UNL     1      -4.201   4.594 126.898  0.00  0.00    +0.000 A 
ATOM      7  C   UNL     1      -4.923   4.029 125.808  0.00  0.00    +0.000 A 
ATOM      8  C   UNL     1      -5.450   2.672 125.945  0.00  0.00    +0.000 A 
ATOM      9  O   UNL     1      -6.687   1.990 126.808  0.00  0.00    +0.000 OA
ENDROOT
BRANCH   5  10
ATOM     10  C   UNL     1      -3.929   4.380 129.378  0.00  0.00    +0.000 C 
ATOM     11  O   UNL     1      -2.816   4.698 129.793  0.00  0.00    +0.000 OA
ATOM     12  N   UNL     1      -5.120   4.735 130.042  0.00  0.00    +0.000 N 
ATOM     13  C   UNL     1      -5.404   6.152 130.245  0.00  0.00    +0.000 C 
ATOM     14  C   UNL     1      -5.976   6.416 131.621  0.00  0.00    +0.000 C 
ATOM     15  C   UNL     1      -7.592   5.795 131.644  0.00  0.00    +0.000 C 
ATOM     16  C   UNL     1      -6.957   4.155 131.574  0.00  0.00    +0.000 C 
ATOM     17  C   UNL     1      -6.261   3.840 130.269  0.00  0.00    +0.000 C 
BRANCH  15  18
ATOM     18  N   UNL     1      -8.835   6.950 130.877  0.00  0.00    +0.000 N 
ATOM     19  C   UNL     1      -9.661   6.382 131.936  0.00  0.00    +0.000 C 
ATOM     20  O   UNL     1      -9.433   6.352 133.177  0.00  0.00    +0.000 OA
ATOM     21  O   UNL     1     -10.684   5.636 131.541  0.00  0.00    +0.000 OA
ATOM     22  C   UNL     1     -11.630   6.637 131.577  0.00  0.00    +0.000 C 
ATOM     23  C   UNL     1     -11.482   6.881 130.155  0.00  0.00    +0.000 A 
ATOM     24  C   UNL     1     -12.209   6.270 129.101  0.00  0.00    +0.000 A 
ATOM     25  C   UNL     1     -12.383   6.828 127.837  0.00  0.00    +0.000 A 
ATOM     26  C   UNL     1     -11.985   8.127 127.771  0.00  0.00    +0.000 A 
ATOM     27  C   UNL     1     -10.936   8.513 128.835  0.00  0.00    +0.000 A 
ATOM     28  C   UNL     1     -10.289   7.441 129.828  0.00  0.00    +0.000 A 
ENDBRANCH  15  18
ENDBRANCH   5  10
BRANCH   1  29
ATOM     29  C   UNL     1      -7.108  -0.839 127.163  0.00  0.00    +0.000 C 
BRANCH  29  32
ATOM     30  O   UNL     1      -9.420  -1.826 124.494  0.00  0.00    +0.000 OA
ATOM     31  C   UNL     1      -8.857  -1.051 125.273  0.00  0.00    +0.000 C 
ATOM     32  N   UNL     1      -7.869  -1.563 126.134  0.00  0.00    +0.000 N 
ATOM     33  H   UNL     1      -7.748  -2.563 126.025  0.00  0.00    +0.000 HD
BRANCH  31  34
ATOM     34  C   UNL     1      -9.227   0.466 125.264  0.00  0.00    +0.000 C 
BRANCH  34  35
ATOM     35  N   UNL     1      -8.552   1.245 124.192  0.00  0.00    +0.000 N 
ATOM     36  C   UNL     1      -7.628   0.676 123.348  0.00  0.00    +0.000 A 
ATOM     37  N   UNL     1      -6.806   1.323 122.583  0.00  0.00    +0.000 NA
ATOM     38  C   UNL     1      -6.928   2.701 122.535  0.00  0.00    +0.000 A 
ATOM     39  C   UNL     1      -7.919   3.343 123.170  0.00  0.00    +0.000 A 
ATOM     40  C   UNL     1      -8.698   2.613 124.185  0.00  0.00    +0.000 A 
ATOM     41  O   UNL     1      -9.367   3.251 124.992  0.00  0.00    +0.000 OA
BRANCH  38  42
ATOM     42  C   UNL     1      -5.918   3.502 121.720  0.00  0.00    +0.000 C 
ATOM     43  F   UNL     1      -5.121   2.699 120.964  0.00  0.00    +0.000 F 
ATOM     44  F   UNL     1      -6.507   4.387 120.876  0.00  0.00    +0.000 F 
ATOM     45  F   UNL     1      -5.076   4.227 122.509  0.00  0.00    +0.000 F 
ENDBRANCH  38  42
ENDBRANCH  34  35
ENDBRANCH  31  34
ENDBRANCH  29  32
ENDBRANCH   1  29
TORSDOF 7
ENDMDL
MODEL 4
REMARK VINA RESULT:     -11.8      3.815      9.369
REMARK  Name = CHEMBL32404
REMARK  7 active torsions:
REMARK  status: ('A' for Active; 'I' for Inactive)
REMARK    1  A    between atoms: C_2  and  C_3
REMARK    2  A    between atoms: C_3  and  N_4
REMARK    3  A    between atoms: C_7  and  C_8
REMARK    4  A    between atoms: N_15  and  C_16
REMARK    5  A    between atoms: C_16  and  C_17
REMARK    6  A    between atoms: C_21  and  C_22
REMARK    7  A    between atoms: C_27  and  N_28
REMARK                            x       y       z     vdW  Elec       q    Type
REMARK                         _______ _______ _______ _____ _____    ______ ____
ROOT
ATOM      1  C   UNL     1      -6.546   3.666 125.796  0.00  0.00    +0.000 A 
ATOM      2  C   UNL     1      -5.741   2.540 125.682  0.00  0.00    +0.000 A 
ATOM      3  C   UNL     1      -4.753   2.728 126.671  0.00  0.00    +0.000 A 
ATOM      4  C   UNL     1      -4.824   2.999 128.067  0.00  0.00    +0.000 A 
ATOM      5  C   UNL     1      -3.784   3.565 128.822  0.00  0.00    +0.000 A 
ATOM      6  C   UNL     1      -2.613   3.839 128.145  0.00  0.00    +0.000 A 
ATOM      7  C   UNL     1      -2.715   3.945 126.729  0.00  0.00    +0.000 A 
ATOM      8  C   UNL     1      -4.027   3.770 126.107  0.00  0.00    +0.000 A 
ATOM      9  O   UNL     1      -5.407   4.681 126.037  0.00  0.00    +0.000 OA
ENDROOT
BRANCH   5  10
ATOM     10  C   UNL     1      -3.996   4.042 130.223  0.00  0.00    +0.000 C 
ATOM     11  O   UNL     1      -3.015   4.266 130.930  0.00  0.00    +0.000 OA
ATOM     12  N   UNL     1      -5.304   4.411 130.595  0.00  0.00    +0.000 N 
ATOM     13  C   UNL     1      -5.582   5.822 130.843  0.00  0.00    +0.000 C 
ATOM     14  C   UNL     1      -6.476   6.012 132.049  0.00  0.00    +0.000 C 
ATOM     15  C   UNL     1      -8.065   5.480 131.611  0.00  0.00    +0.000 C 
ATOM     16  C   UNL     1      -7.489   3.818 131.561  0.00  0.00    +0.000 C 
ATOM     17  C   UNL     1      -6.494   3.565 130.450  0.00  0.00    +0.000 C 
BRANCH  15  18
ATOM     18  N   UNL     1      -9.032   6.757 130.661  0.00  0.00    +0.000 N 
ATOM     19  C   UNL     1     -10.021   6.417 131.676  0.00  0.00    +0.000 C 
ATOM     20  O   UNL     1      -9.900   6.450 132.931  0.00  0.00    +0.000 OA
ATOM     21  O   UNL     1     -11.122   5.818 131.240  0.00  0.00    +0.000 OA
ATOM     22  C   UNL     1     -11.885   6.959 131.124  0.00  0.00    +0.000 C 
ATOM     23  C   UNL     1     -11.588   7.061 129.708  0.00  0.00    +0.000 A 
ATOM     24  C   UNL     1     -12.322   6.494 128.636  0.00  0.00    +0.000 A 
ATOM     25  C   UNL     1     -12.301   6.969 127.327  0.00  0.00    +0.000 A 
ATOM     26  C   UNL     1     -11.685   8.177 127.212  0.00  0.00    +0.000 A 
ATOM     27  C   UNL     1     -10.673   8.472 128.339  0.00  0.00    +0.000 A 
ATOM     28  C   UNL     1     -10.296   7.391 129.454  0.00  0.00    +0.000 A 
ENDBRANCH  15  18
ENDBRANCH   5  10
BRANCH   1  29
ATOM     29  C   UNL     1      -7.965   3.757 125.084  0.00  0.00    +0.000 C 
BRANCH  29  32
ATOM     30  O   UNL     1      -8.997   2.710 121.724  0.00  0.00    +0.000 OA
ATOM     31  C   UNL     1      -8.878   2.621 122.950  0.00  0.00    +0.000 C 
ATOM     32  N   UNL     1      -8.250   3.671 123.644  0.00  0.00    +0.000 N 
ATOM     33  H   UNL     1      -7.929   4.403 123.019  0.00  0.00    +0.000 HD
BRANCH  31  34
ATOM     34  C   UNL     1      -9.450   1.375 123.698  0.00  0.00    +0.000 C 
BRANCH  34  35
ATOM     35  N   UNL     1      -8.436   0.330 123.993  0.00  0.00    +0.000 N 
ATOM     36  C   UNL     1      -7.309   0.167 123.222  0.00  0.00    +0.000 A 
ATOM     37  N   UNL     1      -6.527  -0.866 123.237  0.00  0.00    +0.000 NA
ATOM     38  C   UNL     1      -6.789  -1.852 124.173  0.00  0.00    +0.000 A 
ATOM     39  C   UNL     1      -7.746  -1.707 125.101  0.00  0.00    +0.000 A 
ATOM     40  C   UNL     1      -8.739  -0.633 124.929  0.00  0.00    +0.000 A 
ATOM     41  O   UNL     1      -9.787  -0.687 125.564  0.00  0.00    +0.000 OA
BRANCH  38  42
ATOM     42  C   UNL     1      -5.948  -3.125 124.157  0.00  0.00    +0.000 C 
ATOM     43  F   UNL     1      -6.720  -4.245 124.112  0.00  0.00    +0.000 F 
ATOM     44  F   UNL     1      -5.100  -3.181 123.100  0.00  0.00    +0.000 F 
ATOM     45  F   UNL     1      -5.178  -3.248 125.275  0.00  0.00    +0.000 F 
ENDBRANCH  38  42
ENDBRANCH  34  35
ENDBRANCH  31  34
ENDBRANCH  29  32
ENDBRANCH   1  29
TORSDOF 7
ENDMDL
MODEL 5
REMARK VINA RESULT:     -11.3      3.969      9.184
REMARK  Name = CHEMBL32404
REMARK  7 active torsions:
REMARK  status: ('A' for Active; 'I' for Inactive)
REMARK    1  A    between atoms: C_2  and  C_3
REMARK    2  A    between atoms: C_3  and  N_4
REMARK    3  A    between atoms: C_7  and  C_8
REMARK    4  A    between atoms: N_15  and  C_16
REMARK    5  A    between atoms: C_16  and  C_17
REMARK    6  A    between atoms: C_21  and  C_22
REMARK    7  A    between atoms: C_27  and  N_28
REMARK                            x       y       z     vdW  Elec       q    Type
REMARK                         _______ _______ _______ _____ _____    ______ ____
ROOT
ATOM      1  C   UNL     1      -4.479   4.462 126.942  0.00  0.00    +0.000 A 
ATOM      2  C   UNL     1      -3.188   3.964 127.065  0.00  0.00    +0.000 A 
ATOM      3  C   UNL     1      -2.773   4.406 128.338  0.00  0.00    +0.000 A 
ATOM      4  C   UNL     1      -3.347   4.284 129.636  0.00  0.00    +0.000 A 
ATOM      5  C   UNL     1      -3.040   5.118 130.723  0.00  0.00    +0.000 A 
ATOM      6  C   UNL     1      -2.091   6.095 130.499  0.00  0.00    +0.000 A 
ATOM      7  C   UNL     1      -1.859   6.445 129.139  0.00  0.00    +0.000 A 
ATOM      8  C   UNL     1      -2.632   5.768 128.099  0.00  0.00    +0.000 A 
ATOM      9  O   UNL     1      -4.209   5.833 127.599  0.00  0.00    +0.000 OA
ENDROOT
BRANCH   5  10
ATOM     10  C   UNL     1      -3.841   5.094 131.986  0.00  0.00    +0.000 C 
ATOM     11  O   UNL     1      -3.261   5.242 133.060  0.00  0.00    +0.000 OA
ATOM     12  N   UNL     1      -5.245   5.113 131.867  0.00  0.00    +0.000 N 
ATOM     13  C   UNL     1      -5.959   6.313 132.292  0.00  0.00    +0.000 C 
ATOM     14  C   UNL     1      -7.230   5.972 133.040  0.00  0.00    +0.000 C 
ATOM     15  C   UNL     1      -8.366   5.354 131.888  0.00  0.00    +0.000 C 
ATOM     16  C   UNL     1      -7.383   3.906 131.703  0.00  0.00    +0.000 C 
ATOM     17  C   UNL     1      -6.038   4.175 131.065  0.00  0.00    +0.000 C 
BRANCH  15  18
ATOM     18  N   UNL     1      -9.252   6.690 130.941  0.00  0.00    +0.000 N 
ATOM     19  C   UNL     1     -10.325   6.286 131.841  0.00  0.00    +0.000 C 
ATOM     20  O   UNL     1     -10.314   6.238 133.102  0.00  0.00    +0.000 OA
ATOM     21  O   UNL     1     -11.380   5.717 131.272  0.00  0.00    +0.000 OA
ATOM     22  C   UNL     1     -12.136   6.864 131.164  0.00  0.00    +0.000 C 
ATOM     23  C   UNL     1     -11.716   7.057 129.789  0.00  0.00    +0.000 A 
ATOM     24  C   UNL     1     -12.351   6.561 128.622  0.00  0.00    +0.000 A 
ATOM     25  C   UNL     1     -12.217   7.121 127.353  0.00  0.00    +0.000 A 
ATOM     26  C   UNL     1     -11.600   8.333 127.371  0.00  0.00    +0.000 A 
ATOM     27  C   UNL     1     -10.692   8.553 128.600  0.00  0.00    +0.000 A 
ATOM     28  C   UNL     1     -10.409   7.403 129.671  0.00  0.00    +0.000 A 
ENDBRANCH  15  18
ENDBRANCH   5  10
BRANCH   1  29
ATOM     29  C   UNL     1      -5.461   3.970 125.792  0.00  0.00    +0.000 C 
BRANCH  29  32
ATOM     30  O   UNL     1      -9.013   3.882 124.884  0.00  0.00    +0.000 OA
ATOM     31  C   UNL     1      -7.822   3.561 124.825  0.00  0.00    +0.000 C 
ATOM     32  N   UNL     1      -6.917   4.167 125.714  0.00  0.00    +0.000 N 
ATOM     33  H   UNL     1      -7.368   4.851 126.312  0.00  0.00    +0.000 HD
BRANCH  31  34
ATOM     34  C   UNL     1      -7.360   2.477 123.799  0.00  0.00    +0.000 C 
BRANCH  34  35
ATOM     35  N   UNL     1      -6.925   3.032 122.491  0.00  0.00    +0.000 N 
ATOM     36  C   UNL     1      -5.660   3.535 122.294  0.00  0.00    +0.000 A 
ATOM     37  N   UNL     1      -5.288   4.271 121.296  0.00  0.00    +0.000 NA
ATOM     38  C   UNL     1      -6.211   4.497 120.288  0.00  0.00    +0.000 A 
ATOM     39  C   UNL     1      -7.411   3.898 120.285  0.00  0.00    +0.000 A 
ATOM     40  C   UNL     1      -7.877   3.243 121.519  0.00  0.00    +0.000 A 
ATOM     41  O   UNL     1      -9.071   2.988 121.641  0.00  0.00    +0.000 OA
BRANCH  38  42
ATOM     42  C   UNL     1      -5.839   5.435 119.145  0.00  0.00    +0.000 C 
ATOM     43  F   UNL     1      -5.343   6.619 119.598  0.00  0.00    +0.000 F 
ATOM     44  F   UNL     1      -4.909   4.905 118.311  0.00  0.00    +0.000 F 
ATOM     45  F   UNL     1      -6.914   5.755 118.369  0.00  0.00    +0.000 F 
ENDBRANCH  38  42
ENDBRANCH  34  35
ENDBRANCH  31  34
ENDBRANCH  29  32
ENDBRANCH   1  29
TORSDOF 7
ENDMDL
MODEL 6
REMARK VINA RESULT:     -11.2      3.630      4.662
REMARK  Name = CHEMBL32404
REMARK  7 active torsions:
REMARK  status: ('A' for Active; 'I' for Inactive)
REMARK    1  A    between atoms: C_2  and  C_3
REMARK    2  A    between atoms: C_3  and  N_4
REMARK    3  A    between atoms: C_7  and  C_8
REMARK    4  A    between atoms: N_15  and  C_16
REMARK    5  A    between atoms: C_16  and  C_17
REMARK    6  A    between atoms: C_21  and  C_22
REMARK    7  A    between atoms: C_27  and  N_28
REMARK                            x       y       z     vdW  Elec       q    Type
REMARK                         _______ _______ _______ _____ _____    ______ ____
ROOT
ATOM      1  C   UNL     1      -4.592   3.562 130.852  0.00  0.00    +0.000 A 
ATOM      2  C   UNL     1      -3.538   4.422 130.572  0.00  0.00    +0.000 A 
ATOM      3  C   UNL     1      -3.573   4.556 129.169  0.00  0.00    +0.000 A 
ATOM      4  C   UNL     1      -4.607   4.922 128.260  0.00  0.00    +0.000 A 
ATOM      5  C   UNL     1      -4.609   4.611 126.891  0.00  0.00    +0.000 A 
ATOM      6  C   UNL     1      -3.507   3.931 126.413  0.00  0.00    +0.000 A 
ATOM      7  C   UNL     1      -2.725   3.241 127.383  0.00  0.00    +0.000 A 
ATOM      8  C   UNL     1      -3.143   3.292 128.784  0.00  0.00    +0.000 A 
ATOM      9  O   UNL     1      -4.382   2.617 129.649  0.00  0.00    +0.000 OA
ENDROOT
BRANCH   5  10
ATOM     10  C   UNL     1      -5.821   4.811 126.038  0.00  0.00    +0.000 C 
ATOM     11  O   UNL     1      -6.054   5.933 125.590  0.00  0.00    +0.000 OA
ATOM     12  N   UNL     1      -6.521   3.662 125.621  0.00  0.00    +0.000 N 
ATOM     13  C   UNL     1      -6.478   3.300 124.208  0.00  0.00    +0.000 C 
ATOM     14  C   UNL     1      -7.829   2.835 123.709  0.00  0.00    +0.000 C 
ATOM     15  C   UNL     1      -8.132   1.275 124.395  0.00  0.00    +0.000 C 
ATOM     16  C   UNL     1      -8.312   2.013 125.982  0.00  0.00    +0.000 C 
ATOM     17  C   UNL     1      -7.027   2.611 126.511  0.00  0.00    +0.000 C 
BRANCH  15  18
ATOM     18  N   UNL     1      -7.288  -0.108 123.477  0.00  0.00    +0.000 N 
ATOM     19  C   UNL     1      -8.614  -0.696 123.625  0.00  0.00    +0.000 C 
ATOM     20  O   UNL     1      -9.727  -0.221 123.268  0.00  0.00    +0.000 OA
ATOM     21  O   UNL     1      -8.692  -1.772 124.397  0.00  0.00    +0.000 OA
ATOM     22  C   UNL     1      -8.582  -2.700 123.384  0.00  0.00    +0.000 C 
ATOM     23  C   UNL     1      -7.159  -2.846 123.619  0.00  0.00    +0.000 A 
ATOM     24  C   UNL     1      -6.525  -3.766 124.492  0.00  0.00    +0.000 A 
ATOM     25  C   UNL     1      -5.207  -4.199 124.361  0.00  0.00    +0.000 A 
ATOM     26  C   UNL     1      -4.645  -3.833 123.177  0.00  0.00    +0.000 A 
ATOM     27  C   UNL     1      -5.299  -2.593 122.532  0.00  0.00    +0.000 A 
ATOM     28  C   UNL     1      -6.441  -1.749 123.265  0.00  0.00    +0.000 A 
ENDBRANCH  15  18
ENDBRANCH   5  10
BRANCH   1  29
ATOM     29  C   UNL     1      -5.130   3.350 132.334  0.00  0.00    +0.000 C 
BRANCH  29  32
ATOM     30  O   UNL     1      -8.479   2.204 133.293  0.00  0.00    +0.000 OA
ATOM     31  C   UNL     1      -7.297   2.087 132.956  0.00  0.00    +0.000 C 
ATOM     32  N   UNL     1      -6.531   3.252 132.771  0.00  0.00    +0.000 N 
ATOM     33  H   UNL     1      -7.075   4.095 132.919  0.00  0.00    +0.000 HD
BRANCH  31  34
ATOM     34  C   UNL     1      -6.678   0.664 132.778  0.00  0.00    +0.000 C 
BRANCH  34  35
ATOM     35  N   UNL     1      -6.491   0.262 131.359  0.00  0.00    +0.000 N 
ATOM     36  C   UNL     1      -7.368   0.640 130.370  0.00  0.00    +0.000 A 
ATOM     37  N   UNL     1      -7.438   0.123 129.185  0.00  0.00    +0.000 NA
ATOM     38  C   UNL     1      -6.489  -0.827 128.845  0.00  0.00    +0.000 A 
ATOM     39  C   UNL     1      -5.473  -1.132 129.665  0.00  0.00    +0.000 A 
ATOM     40  C   UNL     1      -5.539  -0.689 131.067  0.00  0.00    +0.000 A 
ATOM     41  O   UNL     1      -4.806  -1.223 131.894  0.00  0.00    +0.000 OA
BRANCH  38  42
ATOM     42  C   UNL     1      -6.597  -1.525 127.493  0.00  0.00    +0.000 C 
ATOM     43  F   UNL     1      -6.296  -0.689 126.463  0.00  0.00    +0.000 F 
ATOM     44  F   UNL     1      -5.776  -2.600 127.390  0.00  0.00    +0.000 F 
ATOM     45  F   UNL     1      -7.859  -1.980 127.247  0.00  0.00    +0.000 F 
ENDBRANCH  38  42
ENDBRANCH  34  35
ENDBRANCH  31  34
ENDBRANCH  29  32
ENDBRANCH   1  29
TORSDOF 7
ENDMDL
MODEL 7
REMARK VINA RESULT:     -11.2      3.115      8.831
REMARK  Name = CHEMBL32404
REMARK  7 active torsions:
REMARK  status: ('A' for Active; 'I' for Inactive)
REMARK    1  A    between atoms: C_2  and  C_3
REMARK    2  A    between atoms: C_3  and  N_4
REMARK    3  A    between atoms: C_7  and  C_8
REMARK    4  A    between atoms: N_15  and  C_16
REMARK    5  A    between atoms: C_16  and  C_17
REMARK    6  A    between atoms: C_21  and  C_22
REMARK    7  A    between atoms: C_27  and  N_28
REMARK                            x       y       z     vdW  Elec       q    Type
REMARK                         _______ _______ _______ _____ _____    ______ ____
ROOT
ATOM      1  C   UNL     1      -7.716   1.471 125.126  0.00  0.00    +0.000 A 
ATOM      2  C   UNL     1      -8.879   0.773 125.422  0.00  0.00    +0.000 A 
ATOM      3  C   UNL     1      -8.659   0.283 126.726  0.00  0.00    +0.000 A 
ATOM      4  C   UNL     1      -8.282   0.919 127.944  0.00  0.00    +0.000 A 
ATOM      5  C   UNL     1      -7.705   0.258 129.040  0.00  0.00    +0.000 A 
ATOM      6  C   UNL     1      -7.530  -1.105 128.913  0.00  0.00    +0.000 A 
ATOM      7  C   UNL     1      -7.525  -1.617 127.585  0.00  0.00    +0.000 A 
ATOM      8  C   UNL     1      -7.692  -0.682 126.473  0.00  0.00    +0.000 A 
ATOM      9  O   UNL     1      -6.733   0.475 125.777  0.00  0.00    +0.000 OA
ENDROOT
BRANCH   5  10
ATOM     10  C   UNL     1      -7.117   1.008 130.193  0.00  0.00    +0.000 C 
ATOM     11  O   UNL     1      -5.973   0.738 130.555  0.00  0.00    +0.000 OA
ATOM     12  N   UNL     1      -7.824   2.128 130.670  0.00  0.00    +0.000 N 
ATOM     13  C   UNL     1      -7.252   3.453 130.453  0.00  0.00    +0.000 C 
ATOM     14  C   UNL     1      -7.414   4.339 131.669  0.00  0.00    +0.000 C 
ATOM     15  C   UNL     1      -9.088   4.766 131.785  0.00  0.00    +0.000 C 
ATOM     16  C   UNL     1      -9.478   3.103 132.211  0.00  0.00    +0.000 C 
ATOM     17  C   UNL     1      -9.233   2.126 131.082  0.00  0.00    +0.000 C 
BRANCH  15  18
ATOM     18  N   UNL     1      -9.567   6.174 130.665  0.00  0.00    +0.000 N 
ATOM     19  C   UNL     1     -10.612   6.307 131.673  0.00  0.00    +0.000 C 
ATOM     20  O   UNL     1     -10.484   6.443 132.921  0.00  0.00    +0.000 OA
ATOM     21  O   UNL     1     -11.851   6.067 131.265  0.00  0.00    +0.000 OA
ATOM     22  C   UNL     1     -12.183   7.377 130.995  0.00  0.00    +0.000 C 
ATOM     23  C   UNL     1     -11.871   7.208 129.589  0.00  0.00    +0.000 A 
ATOM     24  C   UNL     1     -12.756   6.800 128.559  0.00  0.00    +0.000 A 
ATOM     25  C   UNL     1     -12.577   7.086 127.207  0.00  0.00    +0.000 A 
ATOM     26  C   UNL     1     -11.589   7.993 126.983  0.00  0.00    +0.000 A 
ATOM     27  C   UNL     1     -10.535   8.059 128.108  0.00  0.00    +0.000 A 
ATOM     28  C   UNL     1     -10.544   7.052 129.349  0.00  0.00    +0.000 A 
ENDBRANCH  15  18
ENDBRANCH   5  10
BRANCH   1  29
ATOM     29  C   UNL     1      -7.621   2.448 123.874  0.00  0.00    +0.000 C 
BRANCH  29  32
ATOM     30  O   UNL     1      -5.820   5.604 124.371  0.00  0.00    +0.000 OA
ATOM     31  C   UNL     1      -6.011   4.387 124.449  0.00  0.00    +0.000 C 
ATOM     32  N   UNL     1      -7.173   3.849 123.865  0.00  0.00    +0.000 N 
ATOM     33  H   UNL     1      -7.759   4.566 123.452  0.00  0.00    +0.000 HD
BRANCH  31  34
ATOM     34  C   UNL     1      -4.955   3.478 125.154  0.00  0.00    +0.000 C 
BRANCH  34  35
ATOM     35  N   UNL     1      -4.456   4.023 126.444  0.00  0.00    +0.000 N 
ATOM     36  C   UNL     1      -5.263   4.742 127.294  0.00  0.00    +0.000 A 
ATOM     37  N   UNL     1      -4.855   5.473 128.283  0.00  0.00    +0.000 NA
ATOM     38  C   UNL     1      -3.501   5.456 128.574  0.00  0.00    +0.000 A 
ATOM     39  C   UNL     1      -2.652   4.642 127.931  0.00  0.00    +0.000 A 
ATOM     40  C   UNL     1      -3.103   3.989 126.690  0.00  0.00    +0.000 A 
ATOM     41  O   UNL     1      -2.263   3.520 125.928  0.00  0.00    +0.000 OA
BRANCH  38  42
ATOM     42  C   UNL     1      -2.972   6.376 129.670  0.00  0.00    +0.000 C 
ATOM     43  F   UNL     1      -3.325   5.944 130.912  0.00  0.00    +0.000 F 
ATOM     44  F   UNL     1      -1.620   6.488 129.656  0.00  0.00    +0.000 F 
ATOM     45  F   UNL     1      -3.464   7.643 129.563  0.00  0.00    +0.000 F 
ENDBRANCH  38  42
ENDBRANCH  34  35
ENDBRANCH  31  34
ENDBRANCH  29  32
ENDBRANCH   1  29
TORSDOF 7
ENDMDL
MODEL 8
REMARK VINA RESULT:     -11.0      4.426      8.330
REMARK  Name = CHEMBL32404
REMARK  7 active torsions:
REMARK  status: ('A' for Active; 'I' for Inactive)
REMARK    1  A    between atoms: C_2  and  C_3
REMARK    2  A    between atoms: C_3  and  N_4
REMARK    3  A    between atoms: C_7  and  C_8
REMARK    4  A    between atoms: N_15  and  C_16
REMARK    5  A    between atoms: C_16  and  C_17
REMARK    6  A    between atoms: C_21  and  C_22
REMARK    7  A    between atoms: C_27  and  N_28
REMARK                            x       y       z     vdW  Elec       q    Type
REMARK                         _______ _______ _______ _____ _____    ______ ____
ROOT
ATOM      1  C   UNL     1      -4.623   4.264 126.862  0.00  0.00    +0.000 A 
ATOM      2  C   UNL     1      -3.294   3.870 126.931  0.00  0.00    +0.000 A 
ATOM      3  C   UNL     1      -2.853   4.379 128.171  0.00  0.00    +0.000 A 
ATOM      4  C   UNL     1      -3.353   4.251 129.498  0.00  0.00    +0.000 A 
ATOM      5  C   UNL     1      -3.059   5.136 130.547  0.00  0.00    +0.000 A 
ATOM      6  C   UNL     1      -2.201   6.176 130.252  0.00  0.00    +0.000 A 
ATOM      7  C   UNL     1      -2.063   6.504 128.873  0.00  0.00    +0.000 A 
ATOM      8  C   UNL     1      -2.830   5.739 127.891  0.00  0.00    +0.000 A 
ATOM      9  O   UNL     1      -4.430   5.670 127.469  0.00  0.00    +0.000 OA
ENDROOT
BRANCH   5  10
ATOM     10  C   UNL     1      -3.794   5.088 131.849  0.00  0.00    +0.000 C 
ATOM     11  O   UNL     1      -4.126   6.145 132.384  0.00  0.00    +0.000 OA
ATOM     12  N   UNL     1      -4.252   3.832 132.292  0.00  0.00    +0.000 N 
ATOM     13  C   UNL     1      -5.690   3.583 132.301  0.00  0.00    +0.000 C 
ATOM     14  C   UNL     1      -6.121   2.835 133.544  0.00  0.00    +0.000 C 
ATOM     15  C   UNL     1      -5.549   1.206 133.399  0.00  0.00    +0.000 C 
ATOM     16  C   UNL     1      -3.895   1.775 133.596  0.00  0.00    +0.000 C 
ATOM     17  C   UNL     1      -3.419   2.634 132.446  0.00  0.00    +0.000 C 
BRANCH  15  18
ATOM     18  N   UNL     1      -6.645   0.134 132.343  0.00  0.00    +0.000 N 
ATOM     19  C   UNL     1      -6.461  -0.760 133.480  0.00  0.00    +0.000 C 
ATOM     20  O   UNL     1      -6.697  -0.538 134.699  0.00  0.00    +0.000 OA
ATOM     21  O   UNL     1      -5.788  -1.878 133.240  0.00  0.00    +0.000 OA
ATOM     22  C   UNL     1      -6.886  -2.676 133.008  0.00  0.00    +0.000 C 
ATOM     23  C   UNL     1      -6.763  -2.498 131.574  0.00  0.00    +0.000 A 
ATOM     24  C   UNL     1      -6.023  -3.304 130.672  0.00  0.00    +0.000 A 
ATOM     25  C   UNL     1      -6.282  -3.401 129.307  0.00  0.00    +0.000 A 
ATOM     26  C   UNL     1      -7.463  -2.827 128.950  0.00  0.00    +0.000 A 
ATOM     27  C   UNL     1      -7.946  -1.733 129.926  0.00  0.00    +0.000 A 
ATOM     28  C   UNL     1      -7.063  -1.240 131.163  0.00  0.00    +0.000 A 
ENDBRANCH  15  18
ENDBRANCH   5  10
BRANCH   1  29
ATOM     29  C   UNL     1      -5.619   3.665 125.775  0.00  0.00    +0.000 C 
BRANCH  29  32
ATOM     30  O   UNL     1      -9.172   2.968 125.192  0.00  0.00    +0.000 OA
ATOM     31  C   UNL     1      -7.958   2.922 124.968  0.00  0.00    +0.000 C 
ATOM     32  N   UNL     1      -7.083   3.557 125.867  0.00  0.00    +0.000 N 
ATOM     33  H   UNL     1      -7.579   4.023 126.618  0.00  0.00    +0.000 HD
BRANCH  31  34
ATOM     34  C   UNL     1      -7.428   2.141 123.723  0.00  0.00    +0.000 C 
BRANCH  34  35
ATOM     35  N   UNL     1      -7.757   0.692 123.735  0.00  0.00    +0.000 N 
ATOM     36  C   UNL     1      -8.915   0.201 123.182  0.00  0.00    +0.000 A 
ATOM     37  N   UNL     1      -9.406  -0.981 123.382  0.00  0.00    +0.000 NA
ATOM     38  C   UNL     1      -8.656  -1.864 124.141  0.00  0.00    +0.000 A 
ATOM     39  C   UNL     1      -7.424  -1.553 124.569  0.00  0.00    +0.000 A 
ATOM     40  C   UNL     1      -6.987  -0.149 124.506  0.00  0.00    +0.000 A 
ATOM     41  O   UNL     1      -6.023   0.203 125.178  0.00  0.00    +0.000 OA
BRANCH  38  42
ATOM     42  C   UNL     1      -9.244  -3.231 124.476  0.00  0.00    +0.000 C 
ATOM     43  F   UNL     1     -10.006  -3.195 125.602  0.00  0.00    +0.000 F 
ATOM     44  F   UNL     1     -10.023  -3.726 123.481  0.00  0.00    +0.000 F 
ATOM     45  F   UNL     1      -8.279  -4.164 124.709  0.00  0.00    +0.000 F 
ENDBRANCH  38  42
ENDBRANCH  34  35
ENDBRANCH  31  34
ENDBRANCH  29  32
ENDBRANCH   1  29
TORSDOF 7
ENDMDL
MODEL 9
REMARK VINA RESULT:     -10.7      4.533      8.089
REMARK  Name = CHEMBL32404
REMARK  7 active torsions:
REMARK  status: ('A' for Active; 'I' for Inactive)
REMARK    1  A    between atoms: C_2  and  C_3
REMARK    2  A    between atoms: C_3  and  N_4
REMARK    3  A    between atoms: C_7  and  C_8
REMARK    4  A    between atoms: N_15  and  C_16
REMARK    5  A    between atoms: C_16  and  C_17
REMARK    6  A    between atoms: C_21  and  C_22
REMARK    7  A    between atoms: C_27  and  N_28
REMARK                            x       y       z     vdW  Elec       q    Type
REMARK                         _______ _______ _______ _____ _____    ______ ____
ROOT
ATOM      1  C   UNL     1      -4.323   4.610 126.798  0.00  0.00    +0.000 A 
ATOM      2  C   UNL     1      -3.061   4.090 127.053  0.00  0.00    +0.000 A 
ATOM      3  C   UNL     1      -2.788   4.494 128.376  0.00  0.00    +0.000 A 
ATOM      4  C   UNL     1      -3.508   4.348 129.597  0.00  0.00    +0.000 A 
ATOM      5  C   UNL     1      -3.316   5.150 130.733  0.00  0.00    +0.000 A 
ATOM      6  C   UNL     1      -2.336   6.118 130.644  0.00  0.00    +0.000 A 
ATOM      7  C   UNL     1      -1.945   6.498 129.329  0.00  0.00    +0.000 A 
ATOM      8  C   UNL     1      -2.604   5.858 128.190  0.00  0.00    +0.000 A 
ATOM      9  O   UNL     1      -4.112   5.960 127.516  0.00  0.00    +0.000 OA
ENDROOT
BRANCH   5  10
ATOM     10  C   UNL     1      -4.256   5.108 131.896  0.00  0.00    +0.000 C 
ATOM     11  O   UNL     1      -4.713   6.165 132.329  0.00  0.00    +0.000 OA
ATOM     12  N   UNL     1      -4.732   3.846 132.303  0.00  0.00    +0.000 N 
ATOM     13  C   UNL     1      -6.140   3.534 132.082  0.00  0.00    +0.000 C 
ATOM     14  C   UNL     1      -6.743   2.804 133.263  0.00  0.00    +0.000 C 
ATOM     15  C   UNL     1      -6.092   1.200 133.275  0.00  0.00    +0.000 C 
ATOM     16  C   UNL     1      -4.518   1.848 133.723  0.00  0.00    +0.000 C 
ATOM     17  C   UNL     1      -3.890   2.692 132.636  0.00  0.00    +0.000 C 
BRANCH  15  18
ATOM     18  N   UNL     1      -6.953   0.049 132.092  0.00  0.00    +0.000 N 
ATOM     19  C   UNL     1      -6.564  -0.912 133.117  0.00  0.00    +0.000 C 
ATOM     20  O   UNL     1      -6.820  -0.888 134.352  0.00  0.00    +0.000 OA
ATOM     21  O   UNL     1      -5.672  -1.824 132.752  0.00  0.00    +0.000 OA
ATOM     22  C   UNL     1      -6.580  -2.806 132.421  0.00  0.00    +0.000 C 
ATOM     23  C   UNL     1      -6.523  -2.441 131.019  0.00  0.00    +0.000 A 
ATOM     24  C   UNL     1      -5.644  -2.959 130.034  0.00  0.00    +0.000 A 
ATOM     25  C   UNL     1      -5.901  -2.950 128.664  0.00  0.00    +0.000 A 
ATOM     26  C   UNL     1      -7.182  -2.603 128.368  0.00  0.00    +0.000 A 
ATOM     27  C   UNL     1      -7.870  -1.759 129.462  0.00  0.00    +0.000 A 
ATOM     28  C   UNL     1      -7.091  -1.236 130.755  0.00  0.00    +0.000 A 
ENDBRANCH  15  18
ENDBRANCH   5  10
BRANCH   1  29
ATOM     29  C   UNL     1      -5.174   4.162 125.531  0.00  0.00    +0.000 C 
BRANCH  29  32
ATOM     30  O   UNL     1      -8.827   4.020 125.244  0.00  0.00    +0.000 OA
ATOM     31  C   UNL     1      -7.704   3.638 125.585  0.00  0.00    +0.000 C 
ATOM     32  N   UNL     1      -6.594   4.439 125.264  0.00  0.00    +0.000 N 
ATOM     33  H   UNL     1      -6.858   5.266 124.740  0.00  0.00    +0.000 HD
BRANCH  31  34
ATOM     34  C   UNL     1      -7.546   2.306 126.386  0.00  0.00    +0.000 C 
BRANCH  34  35
ATOM     35  N   UNL     1      -6.909   1.209 125.612  0.00  0.00    +0.000 N 
ATOM     36  C   UNL     1      -7.306   0.888 124.336  0.00  0.00    +0.000 A 
ATOM     37  N   UNL     1      -7.005  -0.201 123.703  0.00  0.00    +0.000 NA
ATOM     38  C   UNL     1      -6.131  -1.079 124.322  0.00  0.00    +0.000 A 
ATOM     39  C   UNL     1      -5.534  -0.776 125.484  0.00  0.00    +0.000 A 
ATOM     40  C   UNL     1      -6.049   0.358 126.269  0.00  0.00    +0.000 A 
ATOM     41  O   UNL     1      -5.746   0.445 127.454  0.00  0.00    +0.000 OA
BRANCH  38  42
ATOM     42  C   UNL     1      -5.828  -2.414 123.649  0.00  0.00    +0.000 C 
ATOM     43  F   UNL     1      -6.790  -3.342 123.901  0.00  0.00    +0.000 F 
ATOM     44  F   UNL     1      -5.717  -2.310 122.300  0.00  0.00    +0.000 F 
ATOM     45  F   UNL     1      -4.659  -2.960 124.089  0.00  0.00    +0.000 F 
ENDBRANCH  38  42
ENDBRANCH  34  35
ENDBRANCH  31  34
ENDBRANCH  29  32
ENDBRANCH   1  29
TORSDOF 7
ENDMDL
