MODEL 1
REMARK VINA RESULT:      -9.9      0.000      0.000
REMARK  Name = CHEMBL371223
REMARK  12 active torsions:
REMARK  status: ('A' for Active; 'I' for Inactive)
REMARK    1  A    between atoms: C_1  and  O_2
REMARK    2  A    between atoms: O_2  and  C_3
REMARK    3  A    between atoms: C_6  and  S_7
REMARK    4  A    between atoms: S_7  and  N_10
REMARK    5  A    between atoms: N_10  and  C_11
REMARK    6  A    between atoms: N_10  and  C_26
REMARK    7  A    between atoms: C_11  and  C_12
REMARK    8  A    between atoms: C_12  and  N_14
REMARK    9  A    between atoms: N_15  and  C_16
REMARK   10  A    between atoms: C_17  and  O_18
REMARK   11  A    between atoms: C_34  and  O_35
REMARK   12  A    between atoms: O_35  and  C_36
REMARK                            x       y       z     vdW  Elec       q    Type
REMARK                         _______ _______ _______ _____ _____    ______ ____
ROOT
ATOM      1  N   UNL     1      -8.711   2.520 123.374  0.00  0.00    +0.000 N 
ENDROOT
BRANCH   1   2
ATOM      2  C   UNL     1      -8.023   3.162 122.145  0.00  0.00    +0.000 A 
ATOM      3  C   UNL     1      -8.785   3.594 121.045  0.00  0.00    +0.000 A 
ATOM      4  C   UNL     1      -8.203   4.150 119.871  0.00  0.00    +0.000 A 
ATOM      5  C   UNL     1      -6.833   4.376 119.797  0.00  0.00    +0.000 A 
ATOM      6 CL   UNL     1      -6.156   5.197 118.440  0.00  0.00    +0.000 Cl
ATOM      7  C   UNL     1      -6.032   3.965 120.853  0.00  0.00    +0.000 A 
ATOM      8  C   UNL     1      -6.619   3.353 122.001  0.00  0.00    +0.000 A 
ENDBRANCH   1   2
BRANCH   1   9
ATOM      9  S   UNL     1      -8.134   3.158 124.941  0.00  0.00    +0.000 S 
ATOM     10  O   UNL     1      -8.819   2.414 125.951  0.00  0.00    +0.000 OA
ATOM     11  O   UNL     1      -8.350   4.625 124.898  0.00  0.00    +0.000 OA
BRANCH   9  15
ATOM     12  C   UNL     1      -3.926   3.053 126.858  0.00  0.00    +0.000 A 
ATOM     13  C   UNL     1      -4.485   1.857 126.436  0.00  0.00    +0.000 A 
ATOM     14  C   UNL     1      -5.773   1.827 125.793  0.00  0.00    +0.000 A 
ATOM     15  C   UNL     1      -6.374   3.003 125.337  0.00  0.00    +0.000 A 
ATOM     16  C   UNL     1      -5.521   4.050 125.342  0.00  0.00    +0.000 A 
ATOM     17  C   UNL     1      -4.619   4.151 126.424  0.00  0.00    +0.000 A 
BRANCH  12  19
ATOM     18  C   UNL     1      -1.491   3.000 126.503  0.00  0.00    +0.000 C 
ATOM     19  O   UNL     1      -2.647   3.106 127.352  0.00  0.00    +0.000 OA
ENDBRANCH  12  19
BRANCH  17  20
ATOM     20  O   UNL     1      -5.013   5.017 127.474  0.00  0.00    +0.000 OA
ATOM     21  C   UNL     1      -4.049   5.973 127.731  0.00  0.00    +0.000 C 
ENDBRANCH  17  20
ENDBRANCH   9  15
ENDBRANCH   1   9
BRANCH   1  22
ATOM     22  C   UNL     1      -9.812   1.292 123.116  0.00  0.00    +0.000 C 
BRANCH  22  23
ATOM     23  C   UNL     1      -9.539  -0.276 123.604  0.00  0.00    +0.000 C 
ATOM     24  O   UNL     1      -9.968  -0.848 122.556  0.00  0.00    +0.000 OA
BRANCH  23  25
ATOM     25  N   UNL     1      -9.105  -1.093 125.048  0.00  0.00    +0.000 NA
ATOM     26  N   UNL     1      -8.020  -0.780 126.116  0.00  0.00    +0.000 NA
BRANCH  26  27
ATOM     27  C   UNL     1      -7.050  -1.940 127.076  0.00  0.00    +0.000 A 
ATOM     28  C   UNL     1      -6.479  -1.113 128.036  0.00  0.00    +0.000 A 
ATOM     29  N   UNL     1      -5.164  -1.530 127.692  0.00  0.00    +0.000 N 
ATOM     30  C   UNL     1      -5.033  -2.608 128.509  0.00  0.00    +0.000 A 
ATOM     31  C   UNL     1      -3.857  -2.950 129.231  0.00  0.00    +0.000 A 
ATOM     32  C   UNL     1      -3.928  -3.626 130.419  0.00  0.00    +0.000 A 
ATOM     33  C   UNL     1      -5.208  -3.681 130.937  0.00  0.00    +0.000 A 
ATOM     34  C   UNL     1      -6.448  -3.281 130.102  0.00  0.00    +0.000 A 
ATOM     35  C   UNL     1      -6.428  -2.921 128.546  0.00  0.00    +0.000 A 
ATOM     36  H   UNL     1      -4.891  -1.796 126.768  0.00  0.00    +0.000 HD
BRANCH  28  37
ATOM     37  O   UNL     1      -6.998  -0.676 129.188  0.00  0.00    +0.000 OA
ATOM     38  H   UNL     1      -6.269  -0.470 129.825  0.00  0.00    +0.000 HD
ENDBRANCH  28  37
ENDBRANCH  26  27
ENDBRANCH  23  25
ENDBRANCH  22  23
ENDBRANCH   1  22
TORSDOF 10
ENDMDL
MODEL 2
REMARK VINA RESULT:      -9.7      5.960      9.570
REMARK  Name = CHEMBL371223
REMARK  12 active torsions:
REMARK  status: ('A' for Active; 'I' for Inactive)
REMARK    1  A    between atoms: C_1  and  O_2
REMARK    2  A    between atoms: O_2  and  C_3
REMARK    3  A    between atoms: C_6  and  S_7
REMARK    4  A    between atoms: S_7  and  N_10
REMARK    5  A    between atoms: N_10  and  C_11
REMARK    6  A    between atoms: N_10  and  C_26
REMARK    7  A    between atoms: C_11  and  C_12
REMARK    8  A    between atoms: C_12  and  N_14
REMARK    9  A    between atoms: N_15  and  C_16
REMARK   10  A    between atoms: C_17  and  O_18
REMARK   11  A    between atoms: C_34  and  O_35
REMARK   12  A    between atoms: O_35  and  C_36
REMARK                            x       y       z     vdW  Elec       q    Type
REMARK                         _______ _______ _______ _____ _____    ______ ____
ROOT
ATOM      1  N   UNL     1      -7.499   3.415 130.637  0.00  0.00    +0.000 N 
ENDROOT
BRANCH   1   2
ATOM      2  C   UNL     1      -7.599   4.022 132.058  0.00  0.00    +0.000 A 
ATOM      3  C   UNL     1      -6.743   5.067 132.449  0.00  0.00    +0.000 A 
ATOM      4  C   UNL     1      -6.760   5.633 133.754  0.00  0.00    +0.000 A 
ATOM      5  C   UNL     1      -7.703   5.227 134.691  0.00  0.00    +0.000 A 
ATOM      6 CL   UNL     1      -7.822   6.029 136.214  0.00  0.00    +0.000 Cl
ATOM      7  C   UNL     1      -8.570   4.196 134.361  0.00  0.00    +0.000 A 
ATOM      8  C   UNL     1      -8.506   3.593 133.069  0.00  0.00    +0.000 A 
ENDBRANCH   1   2
BRANCH   1   9
ATOM      9  S   UNL     1      -8.646   4.127 129.464  0.00  0.00    +0.000 S 
ATOM     10  O   UNL     1      -9.500   3.061 129.045  0.00  0.00    +0.000 OA
ATOM     11  O   UNL     1      -7.820   4.798 128.431  0.00  0.00    +0.000 OA
BRANCH   9  15
ATOM     12  C   UNL     1     -11.622   7.634 129.949  0.00  0.00    +0.000 A 
ATOM     13  C   UNL     1     -12.008   6.379 130.394  0.00  0.00    +0.000 A 
ATOM     14  C   UNL     1     -11.111   5.255 130.310  0.00  0.00    +0.000 A 
ATOM     15  C   UNL     1      -9.755   5.439 130.035  0.00  0.00    +0.000 A 
ATOM     16  C   UNL     1      -9.385   6.736 130.119  0.00  0.00    +0.000 A 
ATOM     17  C   UNL     1     -10.292   7.705 129.635  0.00  0.00    +0.000 A 
BRANCH  12  19
ATOM     18  C   UNL     1     -13.129   9.368 129.066  0.00  0.00    +0.000 C 
ATOM     19  O   UNL     1     -12.418   8.734 130.143  0.00  0.00    +0.000 OA
ENDBRANCH  12  19
BRANCH  17  20
ATOM     20  O   UNL     1     -10.050   8.167 128.317  0.00  0.00    +0.000 OA
ATOM     21  C   UNL     1     -10.648   7.349 127.376  0.00  0.00    +0.000 C 
ENDBRANCH  17  20
ENDBRANCH   9  15
ENDBRANCH   1   9
BRANCH   1  22
ATOM     22  C   UNL     1      -6.436   2.154 130.385  0.00  0.00    +0.000 C 
BRANCH  22  23
ATOM     23  C   UNL     1      -6.449   1.229 129.000  0.00  0.00    +0.000 C 
ATOM     24  O   UNL     1      -6.729   0.120 129.550  0.00  0.00    +0.000 OA
BRANCH  23  25
ATOM     25  N   UNL     1      -6.009   1.414 127.354  0.00  0.00    +0.000 NA
ATOM     26  N   UNL     1      -6.189   2.605 126.372  0.00  0.00    +0.000 NA
BRANCH  26  27
ATOM     27  C   UNL     1      -6.501   2.545 124.609  0.00  0.00    +0.000 A 
ATOM     28  C   UNL     1      -6.920   3.843 124.346  0.00  0.00    +0.000 A 
ATOM     29  N   UNL     1      -8.137   3.391 123.766  0.00  0.00    +0.000 N 
ATOM     30  C   UNL     1      -7.743   3.232 122.475  0.00  0.00    +0.000 A 
ATOM     31  C   UNL     1      -8.514   3.585 121.334  0.00  0.00    +0.000 A 
ATOM     32  C   UNL     1      -7.913   3.958 120.163  0.00  0.00    +0.000 A 
ATOM     33  C   UNL     1      -6.560   4.206 120.301  0.00  0.00    +0.000 A 
ATOM     34  C   UNL     1      -5.780   3.810 121.577  0.00  0.00    +0.000 A 
ATOM     35  C   UNL     1      -6.375   2.951 122.785  0.00  0.00    +0.000 A 
ATOM     36  H   UNL     1      -8.615   2.563 124.057  0.00  0.00    +0.000 HD
BRANCH  28  37
ATOM     37  O   UNL     1      -6.184   4.937 124.124  0.00  0.00    +0.000 OA
ATOM     38  H   UNL     1      -5.253   4.676 123.914  0.00  0.00    +0.000 HD
ENDBRANCH  28  37
ENDBRANCH  26  27
ENDBRANCH  23  25
ENDBRANCH  22  23
ENDBRANCH   1  22
TORSDOF 10
ENDMDL
MODEL 3
REMARK VINA RESULT:      -9.6      5.247      8.200
REMARK  Name = CHEMBL371223
REMARK  12 active torsions:
REMARK  status: ('A' for Active; 'I' for Inactive)
REMARK    1  A    between atoms: C_1  and  O_2
REMARK    2  A    between atoms: O_2  and  C_3
REMARK    3  A    between atoms: C_6  and  S_7
REMARK    4  A    between atoms: S_7  and  N_10
REMARK    5  A    between atoms: N_10  and  C_11
REMARK    6  A    between atoms: N_10  and  C_26
REMARK    7  A    between atoms: C_11  and  C_12
REMARK    8  A    between atoms: C_12  and  N_14
REMARK    9  A    between atoms: N_15  and  C_16
REMARK   10  A    between atoms: C_17  and  O_18
REMARK   11  A    between atoms: C_34  and  O_35
REMARK   12  A    between atoms: O_35  and  C_36
REMARK                            x       y       z     vdW  Elec       q    Type
REMARK                         _______ _______ _______ _____ _____    ______ ____
ROOT
ATOM      1  N   UNL     1      -9.645   4.686 131.238  0.00  0.00    +0.000 N 
ENDROOT
BRANCH   1   2
ATOM      2  C   UNL     1     -10.443   5.900 130.704  0.00  0.00    +0.000 A 
ATOM      3  C   UNL     1     -11.752   6.147 131.156  0.00  0.00    +0.000 A 
ATOM      4  C   UNL     1     -12.548   7.221 130.667  0.00  0.00    +0.000 A 
ATOM      5  C   UNL     1     -12.023   8.142 129.769  0.00  0.00    +0.000 A 
ATOM      6 CL   UNL     1     -12.938   9.529 129.306  0.00  0.00    +0.000 Cl
ATOM      7  C   UNL     1     -10.738   7.944 129.286  0.00  0.00    +0.000 A 
ATOM      8  C   UNL     1      -9.967   6.830 129.736  0.00  0.00    +0.000 A 
ENDBRANCH   1   2
BRANCH   1   9
ATOM      9  S   UNL     1      -8.444   5.107 132.495  0.00  0.00    +0.000 S 
ATOM     10  O   UNL     1      -8.267   3.930 133.286  0.00  0.00    +0.000 OA
ATOM     11  O   UNL     1      -8.958   6.323 133.170  0.00  0.00    +0.000 OA
BRANCH   9  15
ATOM     12  C   UNL     1      -4.489   5.985 130.264  0.00  0.00    +0.000 A 
ATOM     13  C   UNL     1      -5.234   7.058 130.726  0.00  0.00    +0.000 A 
ATOM     14  C   UNL     1      -6.453   6.851 131.465  0.00  0.00    +0.000 A 
ATOM     15  C   UNL     1      -6.781   5.590 131.967  0.00  0.00    +0.000 A 
ATOM     16  C   UNL     1      -5.745   4.725 131.898  0.00  0.00    +0.000 A 
ATOM     17  C   UNL     1      -4.924   4.782 130.750  0.00  0.00    +0.000 A 
BRANCH  12  19
ATOM     18  C   UNL     1      -3.108   6.301 128.251  0.00  0.00    +0.000 C 
ATOM     19  O   UNL     1      -3.264   6.170 129.675  0.00  0.00    +0.000 OA
ENDBRANCH  12  19
BRANCH  17  20
ATOM     20  O   UNL     1      -5.222   3.840 129.734  0.00  0.00    +0.000 OA
ATOM     21  C   UNL     1      -4.258   2.852 129.662  0.00  0.00    +0.000 C 
ENDBRANCH  17  20
ENDBRANCH   9  15
ENDBRANCH   1   9
BRANCH   1  22
ATOM     22  C   UNL     1      -9.919   3.190 130.552  0.00  0.00    +0.000 C 
BRANCH  22  23
ATOM     23  C   UNL     1      -8.996   2.591 129.302  0.00  0.00    +0.000 C 
ATOM     24  O   UNL     1      -8.413   1.674 129.957  0.00  0.00    +0.000 OA
BRANCH  23  25
ATOM     25  N   UNL     1      -8.593   3.045 127.699  0.00  0.00    +0.000 NA
ATOM     26  N   UNL     1      -8.601   2.236 126.372  0.00  0.00    +0.000 NA
BRANCH  26  27
ATOM     27  C   UNL     1      -7.487   2.391 124.978  0.00  0.00    +0.000 A 
ATOM     28  C   UNL     1      -7.960   3.541 124.357  0.00  0.00    +0.000 A 
ATOM     29  N   UNL     1      -8.134   2.865 123.118  0.00  0.00    +0.000 N 
ATOM     30  C   UNL     1      -6.904   3.047 122.570  0.00  0.00    +0.000 A 
ATOM     31  C   UNL     1      -6.653   3.354 121.205  0.00  0.00    +0.000 A 
ATOM     32  C   UNL     1      -5.552   4.077 120.834  0.00  0.00    +0.000 A 
ATOM     33  C   UNL     1      -4.909   4.675 121.901  0.00  0.00    +0.000 A 
ATOM     34  C   UNL     1      -5.239   4.307 123.368  0.00  0.00    +0.000 A 
ATOM     35  C   UNL     1      -6.209   3.121 123.819  0.00  0.00    +0.000 A 
ATOM     36  H   UNL     1      -8.375   1.898 123.044  0.00  0.00    +0.000 HD
BRANCH  28  37
ATOM     37  O   UNL     1      -7.697   4.820 124.640  0.00  0.00    +0.000 OA
ATOM     38  H   UNL     1      -7.887   4.997 125.595  0.00  0.00    +0.000 HD
ENDBRANCH  28  37
ENDBRANCH  26  27
ENDBRANCH  23  25
ENDBRANCH  22  23
ENDBRANCH   1  22
TORSDOF 10
ENDMDL
MODEL 4
REMARK VINA RESULT:      -9.5      3.376      6.840
REMARK  Name = CHEMBL371223
REMARK  12 active torsions:
REMARK  status: ('A' for Active; 'I' for Inactive)
REMARK    1  A    between atoms: C_1  and  O_2
REMARK    2  A    between atoms: O_2  and  C_3
REMARK    3  A    between atoms: C_6  and  S_7
REMARK    4  A    between atoms: S_7  and  N_10
REMARK    5  A    between atoms: N_10  and  C_11
REMARK    6  A    between atoms: N_10  and  C_26
REMARK    7  A    between atoms: C_11  and  C_12
REMARK    8  A    between atoms: C_12  and  N_14
REMARK    9  A    between atoms: N_15  and  C_16
REMARK   10  A    between atoms: C_17  and  O_18
REMARK   11  A    between atoms: C_34  and  O_35
REMARK   12  A    between atoms: O_35  and  C_36
REMARK                            x       y       z     vdW  Elec       q    Type
REMARK                         _______ _______ _______ _____ _____    ______ ____
ROOT
ATOM      1  N   UNL     1      -8.458   2.410 123.841  0.00  0.00    +0.000 N 
ENDROOT
BRANCH   1   2
ATOM      2  C   UNL     1      -7.943   3.004 122.507  0.00  0.00    +0.000 A 
ATOM      3  C   UNL     1      -8.848   3.419 121.514  0.00  0.00    +0.000 A 
ATOM      4  C   UNL     1      -8.431   3.930 120.253  0.00  0.00    +0.000 A 
ATOM      5  C   UNL     1      -7.083   4.128 119.978  0.00  0.00    +0.000 A 
ATOM      6 CL   UNL     1      -6.595   4.898 118.514  0.00  0.00    +0.000 Cl
ATOM      7  C   UNL     1      -6.145   3.733 120.921  0.00  0.00    +0.000 A 
ATOM      8  C   UNL     1      -6.571   3.165 122.159  0.00  0.00    +0.000 A 
ENDBRANCH   1   2
BRANCH   1   9
ATOM      9  S   UNL     1      -8.930   0.689 123.731  0.00  0.00    +0.000 S 
ATOM     10  O   UNL     1      -9.459   0.505 122.416  0.00  0.00    +0.000 OA
ATOM     11  O   UNL     1      -9.831   0.431 124.881  0.00  0.00    +0.000 OA
BRANCH   9  15
ATOM     12  C   UNL     1      -6.361  -3.152 123.929  0.00  0.00    +0.000 A 
ATOM     13  C   UNL     1      -6.041  -2.196 122.977  0.00  0.00    +0.000 A 
ATOM     14  C   UNL     1      -6.775  -0.960 122.892  0.00  0.00    +0.000 A 
ATOM     15  C   UNL     1      -7.642  -0.569 123.915  0.00  0.00    +0.000 A 
ATOM     16  C   UNL     1      -7.497  -1.324 125.026  0.00  0.00    +0.000 A 
ATOM     17  C   UNL     1      -7.270  -2.707 124.850  0.00  0.00    +0.000 A 
BRANCH  12  19
ATOM     18  C   UNL     1      -4.246  -4.365 123.591  0.00  0.00    +0.000 C 
ATOM     19  O   UNL     1      -5.587  -4.271 124.102  0.00  0.00    +0.000 OA
ENDBRANCH  12  19
BRANCH  17  20
ATOM     20  O   UNL     1      -8.415  -3.535 124.955  0.00  0.00    +0.000 OA
ATOM     21  C   UNL     1      -9.322  -3.031 125.868  0.00  0.00    +0.000 C 
ENDBRANCH  17  20
ENDBRANCH   9  15
ENDBRANCH   1   9
BRANCH   1  22
ATOM     22  C   UNL     1      -8.592   3.421 125.161  0.00  0.00    +0.000 C 
BRANCH  22  23
ATOM     23  C   UNL     1      -7.572   3.326 126.474  0.00  0.00    +0.000 C 
ATOM     24  O   UNL     1      -7.778   2.105 126.750  0.00  0.00    +0.000 OA
BRANCH  23  25
ATOM     25  N   UNL     1      -6.675   4.407 127.457  0.00  0.00    +0.000 NA
ATOM     26  N   UNL     1      -5.151   4.505 127.745  0.00  0.00    +0.000 NA
BRANCH  26  27
ATOM     27  C   UNL     1      -4.344   5.001 129.265  0.00  0.00    +0.000 A 
ATOM     28  C   UNL     1      -3.654   6.140 128.868  0.00  0.00    +0.000 A 
ATOM     29  N   UNL     1      -2.413   5.613 129.321  0.00  0.00    +0.000 N 
ATOM     30  C   UNL     1      -2.427   6.042 130.610  0.00  0.00    +0.000 A 
ATOM     31  C   UNL     1      -1.303   6.557 131.313  0.00  0.00    +0.000 A 
ATOM     32  C   UNL     1      -1.458   7.475 132.316  0.00  0.00    +0.000 A 
ATOM     33  C   UNL     1      -2.728   8.016 132.367  0.00  0.00    +0.000 A 
ATOM     34  C   UNL     1      -3.908   7.416 131.564  0.00  0.00    +0.000 A 
ATOM     35  C   UNL     1      -3.852   6.054 130.734  0.00  0.00    +0.000 A 
ATOM     36  H   UNL     1      -2.189   4.639 129.312  0.00  0.00    +0.000 HD
BRANCH  28  37
ATOM     37  O   UNL     1      -4.096   7.397 128.757  0.00  0.00    +0.000 OA
ATOM     38  H   UNL     1      -5.035   7.393 128.444  0.00  0.00    +0.000 HD
ENDBRANCH  28  37
ENDBRANCH  26  27
ENDBRANCH  23  25
ENDBRANCH  22  23
ENDBRANCH   1  22
TORSDOF 10
ENDMDL
MODEL 5
REMARK VINA RESULT:      -9.3      5.232      8.473
REMARK  Name = CHEMBL371223
REMARK  12 active torsions:
REMARK  status: ('A' for Active; 'I' for Inactive)
REMARK    1  A    between atoms: C_1  and  O_2
REMARK    2  A    between atoms: O_2  and  C_3
REMARK    3  A    between atoms: C_6  and  S_7
REMARK    4  A    between atoms: S_7  and  N_10
REMARK    5  A    between atoms: N_10  and  C_11
REMARK    6  A    between atoms: N_10  and  C_26
REMARK    7  A    between atoms: C_11  and  C_12
REMARK    8  A    between atoms: C_12  and  N_14
REMARK    9  A    between atoms: N_15  and  C_16
REMARK   10  A    between atoms: C_17  and  O_18
REMARK   11  A    between atoms: C_34  and  O_35
REMARK   12  A    between atoms: O_35  and  C_36
REMARK                            x       y       z     vdW  Elec       q    Type
REMARK                         _______ _______ _______ _____ _____    ______ ____
ROOT
ATOM      1  N   UNL     1      -6.673   2.238 127.689  0.00  0.00    +0.000 N 
ENDROOT
BRANCH   1   2
ATOM      2  C   UNL     1      -6.837   0.829 127.069  0.00  0.00    +0.000 A 
ATOM      3  C   UNL     1      -8.116   0.279 126.876  0.00  0.00    +0.000 A 
ATOM      4  C   UNL     1      -8.324  -1.028 126.351  0.00  0.00    +0.000 A 
ATOM      5  C   UNL     1      -7.252  -1.797 125.917  0.00  0.00    +0.000 A 
ATOM      6 CL   UNL     1      -7.524  -3.311 125.135  0.00  0.00    +0.000 Cl
ATOM      7  C   UNL     1      -5.966  -1.305 126.087  0.00  0.00    +0.000 A 
ATOM      8  C   UNL     1      -5.763  -0.018 126.669  0.00  0.00    +0.000 A 
ENDBRANCH   1   2
BRANCH   1   9
ATOM      9  S   UNL     1      -6.980   3.574 126.541  0.00  0.00    +0.000 S 
ATOM     10  O   UNL     1      -6.256   4.701 127.038  0.00  0.00    +0.000 OA
ATOM     11  O   UNL     1      -8.454   3.695 126.429  0.00  0.00    +0.000 OA
BRANCH   9  15
ATOM     12  C   UNL     1      -6.449   3.546 121.947  0.00  0.00    +0.000 A 
ATOM     13  C   UNL     1      -5.542   4.267 122.708  0.00  0.00    +0.000 A 
ATOM     14  C   UNL     1      -5.627   4.281 124.145  0.00  0.00    +0.000 A 
ATOM     15  C   UNL     1      -6.443   3.372 124.824  0.00  0.00    +0.000 A 
ATOM     16  C   UNL     1      -6.892   2.385 124.019  0.00  0.00    +0.000 A 
ATOM     17  C   UNL     1      -7.255   2.735 122.699  0.00  0.00    +0.000 A 
BRANCH  12  19
ATOM     18  C   UNL     1      -7.041   4.226 119.656  0.00  0.00    +0.000 C 
ATOM     19  O   UNL     1      -6.298   3.422 120.589  0.00  0.00    +0.000 OA
ENDBRANCH  12  19
BRANCH  17  20
ATOM     20  O   UNL     1      -8.638   2.959 122.481  0.00  0.00    +0.000 OA
ATOM     21  C   UNL     1      -9.413   2.059 123.189  0.00  0.00    +0.000 C 
ENDBRANCH  17  20
ENDBRANCH   9  15
ENDBRANCH   1   9
BRANCH   1  22
ATOM     22  C   UNL     1      -6.166   2.354 129.275  0.00  0.00    +0.000 C 
BRANCH  22  23
ATOM     23  C   UNL     1      -6.891   3.367 130.379  0.00  0.00    +0.000 C 
ATOM     24  O   UNL     1      -5.899   3.492 131.160  0.00  0.00    +0.000 OA
BRANCH  23  25
ATOM     25  N   UNL     1      -8.469   3.951 130.713  0.00  0.00    +0.000 NA
ATOM     26  N   UNL     1      -9.781   3.888 129.883  0.00  0.00    +0.000 NA
BRANCH  26  27
ATOM     27  C   UNL     1     -11.095   5.102 129.802  0.00  0.00    +0.000 A 
ATOM     28  C   UNL     1     -10.427   6.218 129.312  0.00  0.00    +0.000 A 
ATOM     29  N   UNL     1     -10.844   7.018 130.412  0.00  0.00    +0.000 N 
ATOM     30  C   UNL     1     -12.026   7.486 129.934  0.00  0.00    +0.000 A 
ATOM     31  C   UNL     1     -12.506   8.815 130.097  0.00  0.00    +0.000 A 
ATOM     32  C   UNL     1     -13.333   9.386 129.168  0.00  0.00    +0.000 A 
ATOM     33  C   UNL     1     -13.409   8.665 127.992  0.00  0.00    +0.000 A 
ATOM     34  C   UNL     1     -12.853   7.225 127.875  0.00  0.00    +0.000 A 
ATOM     35  C   UNL     1     -12.288   6.360 129.092  0.00  0.00    +0.000 A 
ATOM     36  H   UNL     1     -10.993   6.658 131.333  0.00  0.00    +0.000 HD
BRANCH  28  37
ATOM     37  O   UNL     1     -10.131   6.535 128.048  0.00  0.00    +0.000 OA
ATOM     38  H   UNL     1      -9.792   7.464 128.008  0.00  0.00    +0.000 HD
ENDBRANCH  28  37
ENDBRANCH  26  27
ENDBRANCH  23  25
ENDBRANCH  22  23
ENDBRANCH   1  22
TORSDOF 10
ENDMDL
MODEL 6
REMARK VINA RESULT:      -9.1      6.020      8.319
REMARK  Name = CHEMBL371223
REMARK  12 active torsions:
REMARK  status: ('A' for Active; 'I' for Inactive)
REMARK    1  A    between atoms: C_1  and  O_2
REMARK    2  A    between atoms: O_2  and  C_3
REMARK    3  A    between atoms: C_6  and  S_7
REMARK    4  A    between atoms: S_7  and  N_10
REMARK    5  A    between atoms: N_10  and  C_11
REMARK    6  A    between atoms: N_10  and  C_26
REMARK    7  A    between atoms: C_11  and  C_12
REMARK    8  A    between atoms: C_12  and  N_14
REMARK    9  A    between atoms: N_15  and  C_16
REMARK   10  A    between atoms: C_17  and  O_18
REMARK   11  A    between atoms: C_34  and  O_35
REMARK   12  A    between atoms: O_35  and  C_36
REMARK                            x       y       z     vdW  Elec       q    Type
REMARK                         _______ _______ _______ _____ _____    ______ ____
ROOT
ATOM      1  N   UNL     1      -8.692   4.866 131.261  0.00  0.00    +0.000 N 
ENDROOT
BRANCH   1   2
ATOM      2  C   UNL     1      -7.226   5.303 131.021  0.00  0.00    +0.000 A 
ATOM      3  C   UNL     1      -6.860   6.658 131.118  0.00  0.00    +0.000 A 
ATOM      4  C   UNL     1      -5.539   7.121 130.864  0.00  0.00    +0.000 A 
ATOM      5  C   UNL     1      -4.513   6.225 130.589  0.00  0.00    +0.000 A 
ATOM      6 CL   UNL     1      -2.886   6.779 130.443  0.00  0.00    +0.000 Cl
ATOM      7  C   UNL     1      -4.818   4.876 130.477  0.00  0.00    +0.000 A 
ATOM      8  C   UNL     1      -6.158   4.427 130.674  0.00  0.00    +0.000 A 
ENDBRANCH   1   2
BRANCH   1   9
ATOM      9  S   UNL     1      -9.734   5.004 129.815  0.00  0.00    +0.000 S 
ATOM     10  O   UNL     1     -10.518   3.810 129.774  0.00  0.00    +0.000 OA
ATOM     11  O   UNL     1      -8.826   5.275 128.673  0.00  0.00    +0.000 OA
BRANCH   9  15
ATOM     12  C   UNL     1     -12.657   8.390 128.638  0.00  0.00    +0.000 A 
ATOM     13  C   UNL     1     -13.172   7.267 129.266  0.00  0.00    +0.000 A 
ATOM     14  C   UNL     1     -12.309   6.197 129.696  0.00  0.00    +0.000 A 
ATOM     15  C   UNL     1     -10.923   6.367 129.739  0.00  0.00    +0.000 A 
ATOM     16  C   UNL     1     -10.560   7.659 129.591  0.00  0.00    +0.000 A 
ATOM     17  C   UNL     1     -11.289   8.439 128.666  0.00  0.00    +0.000 A 
BRANCH  12  19
ATOM     18  C   UNL     1     -13.607  10.578 129.245  0.00  0.00    +0.000 C 
ATOM     19  O   UNL     1     -13.452   9.468 128.343  0.00  0.00    +0.000 OA
ENDBRANCH  12  19
BRANCH  17  20
ATOM     20  O   UNL     1     -10.705   8.574 127.382  0.00  0.00    +0.000 OA
ATOM     21  C   UNL     1     -11.130   7.575 126.526  0.00  0.00    +0.000 C 
ENDBRANCH  17  20
ENDBRANCH   9  15
ENDBRANCH   1   9
BRANCH   1  22
ATOM     22  C   UNL     1      -9.143   4.413 132.803  0.00  0.00    +0.000 C 
BRANCH  22  23
ATOM     23  C   UNL     1      -8.279   3.312 133.705  0.00  0.00    +0.000 C 
ATOM     24  O   UNL     1      -8.123   4.035 134.736  0.00  0.00    +0.000 OA
BRANCH  23  25
ATOM     25  N   UNL     1      -7.516   1.797 133.456  0.00  0.00    +0.000 NA
ATOM     26  N   UNL     1      -7.229   0.995 132.156  0.00  0.00    +0.000 NA
BRANCH  26  27
ATOM     27  C   UNL     1      -7.221  -0.782 131.935  0.00  0.00    +0.000 A 
ATOM     28  C   UNL     1      -5.874  -1.038 131.709  0.00  0.00    +0.000 A 
ATOM     29  N   UNL     1      -6.149  -1.690 130.475  0.00  0.00    +0.000 N 
ATOM     30  C   UNL     1      -6.341  -2.962 130.912  0.00  0.00    +0.000 A 
ATOM     31  C   UNL     1      -5.871  -4.133 130.258  0.00  0.00    +0.000 A 
ATOM     32  C   UNL     1      -5.566  -5.264 130.966  0.00  0.00    +0.000 A 
ATOM     33  C   UNL     1      -5.504  -5.051 132.330  0.00  0.00    +0.000 A 
ATOM     34  C   UNL     1      -6.021  -3.745 132.981  0.00  0.00    +0.000 A 
ATOM     35  C   UNL     1      -6.809  -2.589 132.212  0.00  0.00    +0.000 A 
ATOM     36  H   UNL     1      -6.909  -1.441 129.874  0.00  0.00    +0.000 HD
BRANCH  28  37
ATOM     37  O   UNL     1      -4.886  -1.199 132.595  0.00  0.00    +0.000 OA
ATOM     38  H   UNL     1      -4.132  -1.678 132.171  0.00  0.00    +0.000 HD
ENDBRANCH  28  37
ENDBRANCH  26  27
ENDBRANCH  23  25
ENDBRANCH  22  23
ENDBRANCH   1  22
TORSDOF 10
ENDMDL
MODEL 7
REMARK VINA RESULT:      -9.1      2.762      6.233
REMARK  Name = CHEMBL371223
REMARK  12 active torsions:
REMARK  status: ('A' for Active; 'I' for Inactive)
REMARK    1  A    between atoms: C_1  and  O_2
REMARK    2  A    between atoms: O_2  and  C_3
REMARK    3  A    between atoms: C_6  and  S_7
REMARK    4  A    between atoms: S_7  and  N_10
REMARK    5  A    between atoms: N_10  and  C_11
REMARK    6  A    between atoms: N_10  and  C_26
REMARK    7  A    between atoms: C_11  and  C_12
REMARK    8  A    between atoms: C_12  and  N_14
REMARK    9  A    between atoms: N_15  and  C_16
REMARK   10  A    between atoms: C_17  and  O_18
REMARK   11  A    between atoms: C_34  and  O_35
REMARK   12  A    between atoms: O_35  and  C_36
REMARK                            x       y       z     vdW  Elec       q    Type
REMARK                         _______ _______ _______ _____ _____    ______ ____
ROOT
ATOM      1  N   UNL     1      -8.121   1.374 124.213  0.00  0.00    +0.000 N 
ENDROOT
BRANCH   1   2
ATOM      2  C   UNL     1      -7.744   2.234 122.982  0.00  0.00    +0.000 A 
ATOM      3  C   UNL     1      -8.747   2.785 122.164  0.00  0.00    +0.000 A 
ATOM      4  C   UNL     1      -8.459   3.547 120.996  0.00  0.00    +0.000 A 
ATOM      5  C   UNL     1      -7.148   3.857 120.657  0.00  0.00    +0.000 A 
ATOM      6 CL   UNL     1      -6.815   4.914 119.334  0.00  0.00    +0.000 Cl
ATOM      7  C   UNL     1      -6.118   3.336 121.427  0.00  0.00    +0.000 A 
ATOM      8  C   UNL     1      -6.414   2.524 122.562  0.00  0.00    +0.000 A 
ENDBRANCH   1   2
BRANCH   1   9
ATOM      9  S   UNL     1      -8.259  -0.374 123.859  0.00  0.00    +0.000 S 
ATOM     10  O   UNL     1      -7.207  -0.678 122.941  0.00  0.00    +0.000 OA
ATOM     11  O   UNL     1      -9.655  -0.596 123.408  0.00  0.00    +0.000 OA
BRANCH   9  15
ATOM     12  C   UNL     1      -8.268  -2.683 127.865  0.00  0.00    +0.000 A 
ATOM     13  C   UNL     1      -8.966  -3.222 126.795  0.00  0.00    +0.000 A 
ATOM     14  C   UNL     1      -8.967  -2.574 125.510  0.00  0.00    +0.000 A 
ATOM     15  C   UNL     1      -8.066  -1.546 125.224  0.00  0.00    +0.000 A 
ATOM     16  C   UNL     1      -7.095  -1.442 126.158  0.00  0.00    +0.000 A 
ATOM     17  C   UNL     1      -7.464  -1.636 127.507  0.00  0.00    +0.000 A 
BRANCH  12  19
ATOM     18  C   UNL     1      -6.907  -3.469 129.759  0.00  0.00    +0.000 C 
ATOM     19  O   UNL     1      -8.155  -3.359 129.053  0.00  0.00    +0.000 OA
ENDBRANCH  12  19
BRANCH  17  20
ATOM     20  O   UNL     1      -7.713  -0.456 128.252  0.00  0.00    +0.000 OA
ATOM     21  C   UNL     1      -6.550   0.259 128.469  0.00  0.00    +0.000 C 
ENDBRANCH  17  20
ENDBRANCH   9  15
ENDBRANCH   1   9
BRANCH   1  22
ATOM     22  C   UNL     1      -8.427   2.148 125.659  0.00  0.00    +0.000 C 
BRANCH  22  23
ATOM     23  C   UNL     1      -7.966   3.720 125.953  0.00  0.00    +0.000 C 
ATOM     24  O   UNL     1      -8.813   4.281 125.193  0.00  0.00    +0.000 OA
BRANCH  23  25
ATOM     25  N   UNL     1      -6.675   4.533 126.735  0.00  0.00    +0.000 NA
ATOM     26  N   UNL     1      -5.455   3.991 127.531  0.00  0.00    +0.000 NA
BRANCH  26  27
ATOM     27  C   UNL     1      -4.645   4.729 128.947  0.00  0.00    +0.000 A 
ATOM     28  C   UNL     1      -3.417   4.078 128.949  0.00  0.00    +0.000 A 
ATOM     29  N   UNL     1      -3.592   3.635 130.289  0.00  0.00    +0.000 N 
ATOM     30  C   UNL     1      -3.060   4.689 130.961  0.00  0.00    +0.000 A 
ATOM     31  C   UNL     1      -2.232   4.591 132.113  0.00  0.00    +0.000 A 
ATOM     32  C   UNL     1      -1.288   5.543 132.387  0.00  0.00    +0.000 A 
ATOM     33  C   UNL     1      -1.059   6.402 131.328  0.00  0.00    +0.000 A 
ATOM     34  C   UNL     1      -1.991   6.449 130.094  0.00  0.00    +0.000 A 
ATOM     35  C   UNL     1      -3.374   5.661 129.960  0.00  0.00    +0.000 A 
ATOM     36  H   UNL     1      -4.483   3.419 130.689  0.00  0.00    +0.000 HD
BRANCH  28  37
ATOM     37  O   UNL     1      -2.316   4.354 128.243  0.00  0.00    +0.000 OA
ATOM     38  H   UNL     1      -2.266   5.327 128.070  0.00  0.00    +0.000 HD
ENDBRANCH  28  37
ENDBRANCH  26  27
ENDBRANCH  23  25
ENDBRANCH  22  23
ENDBRANCH   1  22
TORSDOF 10
ENDMDL
MODEL 8
REMARK VINA RESULT:      -9.0      4.042      6.793
REMARK  Name = CHEMBL371223
REMARK  12 active torsions:
REMARK  status: ('A' for Active; 'I' for Inactive)
REMARK    1  A    between atoms: C_1  and  O_2
REMARK    2  A    between atoms: O_2  and  C_3
REMARK    3  A    between atoms: C_6  and  S_7
REMARK    4  A    between atoms: S_7  and  N_10
REMARK    5  A    between atoms: N_10  and  C_11
REMARK    6  A    between atoms: N_10  and  C_26
REMARK    7  A    between atoms: C_11  and  C_12
REMARK    8  A    between atoms: C_12  and  N_14
REMARK    9  A    between atoms: N_15  and  C_16
REMARK   10  A    between atoms: C_17  and  O_18
REMARK   11  A    between atoms: C_34  and  O_35
REMARK   12  A    between atoms: O_35  and  C_36
REMARK                            x       y       z     vdW  Elec       q    Type
REMARK                         _______ _______ _______ _____ _____    ______ ____
ROOT
ATOM      1  N   UNL     1      -7.098   1.521 124.641  0.00  0.00    +0.000 N 
ENDROOT
BRANCH   1   2
ATOM      2  C   UNL     1      -6.579   0.086 124.379  0.00  0.00    +0.000 A 
ATOM      3  C   UNL     1      -5.870  -0.609 125.376  0.00  0.00    +0.000 A 
ATOM      4  C   UNL     1      -5.332  -1.911 125.175  0.00  0.00    +0.000 A 
ATOM      5  C   UNL     1      -5.565  -2.601 123.991  0.00  0.00    +0.000 A 
ATOM      6 CL   UNL     1      -5.048  -4.237 123.819  0.00  0.00    +0.000 Cl
ATOM      7  C   UNL     1      -6.255  -1.961 122.972  0.00  0.00    +0.000 A 
ATOM      8  C   UNL     1      -6.739  -0.632 123.159  0.00  0.00    +0.000 A 
ENDBRANCH   1   2
BRANCH   1   9
ATOM      9  S   UNL     1      -8.447   1.600 125.812  0.00  0.00    +0.000 S 
ATOM     10  O   UNL     1      -9.204   0.402 125.627  0.00  0.00    +0.000 OA
ATOM     11  O   UNL     1      -9.130   2.894 125.572  0.00  0.00    +0.000 OA
BRANCH   9  15
ATOM     12  C   UNL     1      -8.412   1.881 130.429  0.00  0.00    +0.000 A 
ATOM     13  C   UNL     1      -8.068   0.673 129.842  0.00  0.00    +0.000 A 
ATOM     14  C   UNL     1      -8.018   0.533 128.409  0.00  0.00    +0.000 A 
ATOM     15  C   UNL     1      -8.050   1.654 127.577  0.00  0.00    +0.000 A 
ATOM     16  C   UNL     1      -7.875   2.806 128.262  0.00  0.00    +0.000 A 
ATOM     17  C   UNL     1      -8.488   2.910 129.530  0.00  0.00    +0.000 A 
BRANCH  12  19
ATOM     18  C   UNL     1      -9.504   2.248 132.604  0.00  0.00    +0.000 C 
ATOM     19  O   UNL     1      -8.335   2.060 131.786  0.00  0.00    +0.000 OA
ENDBRANCH  12  19
BRANCH  17  20
ATOM     20  O   UNL     1      -9.734   3.586 129.554  0.00  0.00    +0.000 OA
ATOM     21  C   UNL     1      -9.587   4.904 129.942  0.00  0.00    +0.000 C 
ENDBRANCH  17  20
ENDBRANCH   9  15
ENDBRANCH   1   9
BRANCH   1  22
ATOM     22  C   UNL     1      -6.428   2.779 123.773  0.00  0.00    +0.000 C 
BRANCH  22  23
ATOM     23  C   UNL     1      -6.055   4.248 124.461  0.00  0.00    +0.000 C 
ATOM     24  O   UNL     1      -5.607   4.808 123.415  0.00  0.00    +0.000 OA
BRANCH  23  25
ATOM     25  N   UNL     1      -5.958   4.917 126.037  0.00  0.00    +0.000 NA
ATOM     26  N   UNL     1      -4.836   5.733 126.737  0.00  0.00    +0.000 NA
BRANCH  26  27
ATOM     27  C   UNL     1      -4.369   5.710 128.466  0.00  0.00    +0.000 A 
ATOM     28  C   UNL     1      -3.173   5.002 128.432  0.00  0.00    +0.000 A 
ATOM     29  N   UNL     1      -3.647   4.048 129.375  0.00  0.00    +0.000 N 
ATOM     30  C   UNL     1      -3.283   4.655 130.534  0.00  0.00    +0.000 A 
ATOM     31  C   UNL     1      -2.737   3.993 131.668  0.00  0.00    +0.000 A 
ATOM     32  C   UNL     1      -1.880   4.638 132.518  0.00  0.00    +0.000 A 
ATOM     33  C   UNL     1      -1.418   5.839 132.016  0.00  0.00    +0.000 A 
ATOM     34  C   UNL     1      -2.047   6.502 130.767  0.00  0.00    +0.000 A 
ATOM     35  C   UNL     1      -3.362   5.988 130.021  0.00  0.00    +0.000 A 
ATOM     36  H   UNL     1      -4.605   3.771 129.447  0.00  0.00    +0.000 HD
BRANCH  28  37
ATOM     37  O   UNL     1      -1.941   5.444 128.161  0.00  0.00    +0.000 OA
ATOM     38  H   UNL     1      -1.630   5.058 127.305  0.00  0.00    +0.000 HD
ENDBRANCH  28  37
ENDBRANCH  26  27
ENDBRANCH  23  25
ENDBRANCH  22  23
ENDBRANCH   1  22
TORSDOF 10
ENDMDL
MODEL 9
REMARK VINA RESULT:      -9.0      5.603      8.113
REMARK  Name = CHEMBL371223
REMARK  12 active torsions:
REMARK  status: ('A' for Active; 'I' for Inactive)
REMARK    1  A    between atoms: C_1  and  O_2
REMARK    2  A    between atoms: O_2  and  C_3
REMARK    3  A    between atoms: C_6  and  S_7
REMARK    4  A    between atoms: S_7  and  N_10
REMARK    5  A    between atoms: N_10  and  C_11
REMARK    6  A    between atoms: N_10  and  C_26
REMARK    7  A    between atoms: C_11  and  C_12
REMARK    8  A    between atoms: C_12  and  N_14
REMARK    9  A    between atoms: N_15  and  C_16
REMARK   10  A    between atoms: C_17  and  O_18
REMARK   11  A    between atoms: C_34  and  O_35
REMARK   12  A    between atoms: O_35  and  C_36
REMARK                            x       y       z     vdW  Elec       q    Type
REMARK                         _______ _______ _______ _____ _____    ______ ____
ROOT
ATOM      1  N   UNL     1      -7.987   3.843 131.193  0.00  0.00    +0.000 N 
ENDROOT
BRANCH   1   2
ATOM      2  C   UNL     1      -6.895   4.906 130.915  0.00  0.00    +0.000 A 
ATOM      3  C   UNL     1      -7.065   6.233 131.350  0.00  0.00    +0.000 A 
ATOM      4  C   UNL     1      -6.116   7.260 131.084  0.00  0.00    +0.000 A 
ATOM      5  C   UNL     1      -4.915   6.970 130.446  0.00  0.00    +0.000 A 
ATOM      6 CL   UNL     1      -3.703   8.185 130.273  0.00  0.00    +0.000 Cl
ATOM      7  C   UNL     1      -4.697   5.677 129.992  0.00  0.00    +0.000 A 
ATOM      8  C   UNL     1      -5.681   4.666 130.210  0.00  0.00    +0.000 A 
ENDBRANCH   1   2
BRANCH   1   9
ATOM      9  S   UNL     1      -9.463   4.048 130.206  0.00  0.00    +0.000 S 
ATOM     10  O   UNL     1     -10.374   3.035 130.637  0.00  0.00    +0.000 OA
ATOM     11  O   UNL     1      -9.023   4.024 128.790  0.00  0.00    +0.000 OA
BRANCH   9  15
ATOM     12  C   UNL     1     -12.499   7.534 130.043  0.00  0.00    +0.000 A 
ATOM     13  C   UNL     1     -12.182   6.996 131.281  0.00  0.00    +0.000 A 
ATOM     14  C   UNL     1     -11.213   5.939 131.403  0.00  0.00    +0.000 A 
ATOM     15  C   UNL     1     -10.375   5.607 130.336  0.00  0.00    +0.000 A 
ATOM     16  C   UNL     1     -10.417   6.526 129.347  0.00  0.00    +0.000 A 
ATOM     17  C   UNL     1     -11.670   7.101 129.043  0.00  0.00    +0.000 A 
BRANCH  12  19
ATOM     18  C   UNL     1     -12.965   9.780 129.148  0.00  0.00    +0.000 C 
ATOM     19  O   UNL     1     -13.321   8.626 129.931  0.00  0.00    +0.000 OA
ENDBRANCH  12  19
BRANCH  17  20
ATOM     20  O   UNL     1     -12.364   6.521 127.952  0.00  0.00    +0.000 OA
ATOM     21  C   UNL     1     -12.022   7.126 126.757  0.00  0.00    +0.000 C 
ENDBRANCH  17  20
ENDBRANCH   9  15
ENDBRANCH   1   9
BRANCH   1  22
ATOM     22  C   UNL     1      -7.712   2.719 132.395  0.00  0.00    +0.000 C 
BRANCH  22  23
ATOM     23  C   UNL     1      -7.910   1.083 132.157  0.00  0.00    +0.000 C 
ATOM     24  O   UNL     1      -7.626   0.713 133.337  0.00  0.00    +0.000 OA
BRANCH  23  25
ATOM     25  N   UNL     1      -8.138   0.017 130.834  0.00  0.00    +0.000 NA
ATOM     26  N   UNL     1      -7.148  -0.501 129.753  0.00  0.00    +0.000 NA
BRANCH  26  27
ATOM     27  C   UNL     1      -7.488  -0.881 128.036  0.00  0.00    +0.000 A 
ATOM     28  C   UNL     1      -7.352  -2.263 128.014  0.00  0.00    +0.000 A 
ATOM     29  N   UNL     1      -6.381  -2.206 126.976  0.00  0.00    +0.000 N 
ATOM     30  C   UNL     1      -7.191  -2.244 125.887  0.00  0.00    +0.000 A 
ATOM     31  C   UNL     1      -6.932  -2.982 124.699  0.00  0.00    +0.000 A 
ATOM     32  C   UNL     1      -7.955  -3.461 123.927  0.00  0.00    +0.000 A 
ATOM     33  C   UNL     1      -9.186  -3.390 124.551  0.00  0.00    +0.000 A 
ATOM     34  C   UNL     1      -9.400  -2.580 125.852  0.00  0.00    +0.000 A 
ATOM     35  C   UNL     1      -8.311  -1.628 126.528  0.00  0.00    +0.000 A 
ATOM     36  H   UNL     1      -5.734  -1.452 126.865  0.00  0.00    +0.000 HD
BRANCH  28  37
ATOM     37  O   UNL     1      -8.245  -3.203 128.342  0.00  0.00    +0.000 OA
ATOM     38  H   UNL     1      -8.709  -2.945 129.176  0.00  0.00    +0.000 HD
ENDBRANCH  28  37
ENDBRANCH  26  27
ENDBRANCH  23  25
ENDBRANCH  22  23
ENDBRANCH   1  22
TORSDOF 10
ENDMDL
