MODEL 1
REMARK VINA RESULT:     -10.0      0.000      0.000
REMARK  Name = CHEMBL105960
REMARK  8 active torsions:
REMARK  status: ('A' for Active; 'I' for Inactive)
REMARK    1  A    between atoms: C_1  and  O_2
REMARK    2  A    between atoms: O_2  and  C_3
REMARK    3  A    between atoms: C_5  and  O_6
REMARK    4  A    between atoms: O_6  and  C_7
REMARK    5  A    between atoms: C_7  and  C_8
REMARK    6  A    between atoms: C_7  and  C_9
REMARK    7  A    between atoms: C_17  and  C_18
REMARK    8  A    between atoms: C_23  and  N_24
REMARK                            x       y       z     vdW  Elec       q    Type
REMARK                         _______ _______ _______ _____ _____    ______ ____
ROOT
ATOM      1  C   UNL     1      -4.940   2.917 128.626  0.00  0.00    +0.000 C 
ATOM      2  O   UNL     1      -3.712   2.998 128.756  0.00  0.00    +0.000 OA
ATOM      3  N   UNL     1      -5.772   3.518 129.606  0.00  0.00    +0.000 N 
ATOM      4  C   UNL     1      -5.685   4.996 129.614  0.00  0.00    +0.000 C 
ATOM      5  C   UNL     1      -6.023   5.578 130.951  0.00  0.00    +0.000 C 
ATOM      6  C   UNL     1      -7.746   5.356 131.350  0.00  0.00    +0.000 C 
ATOM      7  C   UNL     1      -7.481   3.642 131.488  0.00  0.00    +0.000 C 
ATOM      8  C   UNL     1      -6.986   2.892 130.236  0.00  0.00    +0.000 C 
ENDROOT
BRANCH   6   9
ATOM      9  N   UNL     1      -8.879   6.655 130.715  0.00  0.00    +0.000 N 
ATOM     10  C   UNL     1      -9.744   6.216 131.763  0.00  0.00    +0.000 C 
ATOM     11  O   UNL     1      -9.516   6.082 133.006  0.00  0.00    +0.000 OA
ATOM     12  O   UNL     1     -10.871   5.667 131.384  0.00  0.00    +0.000 OA
ATOM     13  C   UNL     1     -11.645   6.780 131.588  0.00  0.00    +0.000 C 
ATOM     14  C   UNL     1     -11.600   7.157 130.182  0.00  0.00    +0.000 A 
ATOM     15  C   UNL     1     -13.003   7.475 129.749  0.00  0.00    +0.000 A 
ATOM     16  C   UNL     1     -13.326   8.109 128.600  0.00  0.00    +0.000 A 
ATOM     17  C   UNL     1     -12.177   8.647 128.063  0.00  0.00    +0.000 A 
ATOM     18  C   UNL     1     -10.657   8.283 128.576  0.00  0.00    +0.000 A 
ATOM     19  C   UNL     1     -10.253   7.254 129.628  0.00  0.00    +0.000 A 
ENDBRANCH   6   9
BRANCH   1  25
ATOM     20  C   UNL     1      -5.994   3.138 126.206  0.00  0.00    +0.000 A 
ATOM     21  C   UNL     1      -6.401   2.475 125.042  0.00  0.00    +0.000 A 
ATOM     22  C   UNL     1      -6.290   1.098 124.917  0.00  0.00    +0.000 A 
ATOM     23  C   UNL     1      -5.593   0.393 125.869  0.00  0.00    +0.000 A 
ATOM     24  C   UNL     1      -5.241   1.021 127.063  0.00  0.00    +0.000 A 
ATOM     25  C   UNL     1      -5.451   2.414 127.285  0.00  0.00    +0.000 A 
BRANCH  20  27
ATOM     26  C   UNL     1      -7.666   4.681 125.791  0.00  0.00    +0.000 C 
ATOM     27  O   UNL     1      -6.310   4.469 126.107  0.00  0.00    +0.000 OA
ENDBRANCH  20  27
BRANCH  22  28
ATOM     28  O   UNL     1      -6.973   0.538 123.894  0.00  0.00    +0.000 OA
BRANCH  28  29
ATOM     29  C   UNL     1      -8.127  -0.278 124.115  0.00  0.00    +0.000 C 
ATOM     30  C   UNL     1      -9.438   0.494 123.934  0.00  0.00    +0.000 C 
BRANCH  29  31
ATOM     31  C   UNL     1      -8.115  -1.444 123.078  0.00  0.00    +0.000 C 
ATOM     32  C   UNL     1      -9.155  -2.516 123.440  0.00  0.00    +0.000 C 
ATOM     33  C   UNL     1      -8.715  -3.323 124.656  0.00  0.00    +0.000 C 
ATOM     34  N   UNL     1      -7.428  -3.982 124.411  0.00  0.00    +0.000 NA
ATOM     35  C   UNL     1      -6.380  -2.992 124.150  0.00  0.00    +0.000 C 
ATOM     36  C   UNL     1      -6.730  -2.109 122.941  0.00  0.00    +0.000 C 
ATOM     37  H   UNL     1      -7.511  -4.581 123.591  0.00  0.00    +0.000 HD
ENDBRANCH  29  31
ENDBRANCH  28  29
ENDBRANCH  22  28
ENDBRANCH   1  25
TORSDOF 6
ENDMDL
MODEL 2
REMARK VINA RESULT:      -9.9      2.671      9.239
REMARK  Name = CHEMBL105960
REMARK  8 active torsions:
REMARK  status: ('A' for Active; 'I' for Inactive)
REMARK    1  A    between atoms: C_1  and  O_2
REMARK    2  A    between atoms: O_2  and  C_3
REMARK    3  A    between atoms: C_5  and  O_6
REMARK    4  A    between atoms: O_6  and  C_7
REMARK    5  A    between atoms: C_7  and  C_8
REMARK    6  A    between atoms: C_7  and  C_9
REMARK    7  A    between atoms: C_17  and  C_18
REMARK    8  A    between atoms: C_23  and  N_24
REMARK                            x       y       z     vdW  Elec       q    Type
REMARK                         _______ _______ _______ _____ _____    ______ ____
ROOT
ATOM      1  C   UNL     1      -8.013   2.214 132.195  0.00  0.00    +0.000 C 
ATOM      2  O   UNL     1      -8.258   1.930 133.375  0.00  0.00    +0.000 OA
ATOM      3  N   UNL     1      -7.272   1.294 131.410  0.00  0.00    +0.000 N 
ATOM      4  C   UNL     1      -8.003   0.034 131.148  0.00  0.00    +0.000 C 
ATOM      5  C   UNL     1      -7.079  -1.118 130.897  0.00  0.00    +0.000 C 
ATOM      6  C   UNL     1      -6.198  -0.932 129.359  0.00  0.00    +0.000 C 
ATOM      7  C   UNL     1      -5.320   0.408 130.038  0.00  0.00    +0.000 C 
ATOM      8  C   UNL     1      -6.131   1.638 130.491  0.00  0.00    +0.000 C 
ENDROOT
BRANCH   6   9
ATOM      9  N   UNL     1      -7.069  -1.558 127.867  0.00  0.00    +0.000 N 
ATOM     10  C   UNL     1      -5.771  -1.997 127.465  0.00  0.00    +0.000 C 
ATOM     11  O   UNL     1      -4.923  -2.711 128.089  0.00  0.00    +0.000 OA
ATOM     12  O   UNL     1      -5.276  -1.425 126.397  0.00  0.00    +0.000 OA
ATOM     13  C   UNL     1      -5.585  -2.445 125.535  0.00  0.00    +0.000 C 
ATOM     14  C   UNL     1      -6.796  -1.781 125.071  0.00  0.00    +0.000 A 
ATOM     15  C   UNL     1      -6.801  -1.836 123.570  0.00  0.00    +0.000 A 
ATOM     16  C   UNL     1      -7.875  -1.563 122.797  0.00  0.00    +0.000 A 
ATOM     17  C   UNL     1      -8.991  -1.516 123.603  0.00  0.00    +0.000 A 
ATOM     18  C   UNL     1      -8.943  -1.472 125.247  0.00  0.00    +0.000 A 
ATOM     19  C   UNL     1      -7.709  -1.381 126.139  0.00  0.00    +0.000 A 
ENDBRANCH   6   9
BRANCH   1  25
ATOM     20  C   UNL     1      -9.262   3.594 130.311  0.00  0.00    +0.000 A 
ATOM     21  C   UNL     1      -9.938   4.775 129.978  0.00  0.00    +0.000 A 
ATOM     22  C   UNL     1     -10.129   5.786 130.908  0.00  0.00    +0.000 A 
ATOM     23  C   UNL     1      -9.822   5.550 132.227  0.00  0.00    +0.000 A 
ATOM     24  C   UNL     1      -9.089   4.413 132.565  0.00  0.00    +0.000 A 
ATOM     25  C   UNL     1      -8.761   3.403 131.613  0.00  0.00    +0.000 A 
BRANCH  20  27
ATOM     26  C   UNL     1      -8.211   3.363 128.263  0.00  0.00    +0.000 C 
ATOM     27  O   UNL     1      -9.123   2.818 129.189  0.00  0.00    +0.000 OA
ENDBRANCH  20  27
BRANCH  22  28
ATOM     28  O   UNL     1     -10.520   6.981 130.413  0.00  0.00    +0.000 OA
BRANCH  28  29
ATOM     29  C   UNL     1     -11.858   7.209 129.961  0.00  0.00    +0.000 C 
ATOM     30  C   UNL     1     -12.784   7.695 131.082  0.00  0.00    +0.000 C 
BRANCH  29  31
ATOM     31  C   UNL     1     -11.827   8.313 128.858  0.00  0.00    +0.000 C 
ATOM     32  C   UNL     1     -13.052   8.207 127.936  0.00  0.00    +0.000 C 
ATOM     33  C   UNL     1     -12.944   6.998 127.014  0.00  0.00    +0.000 C 
ATOM     34  N   UNL     1     -11.737   7.076 126.184  0.00  0.00    +0.000 NA
ATOM     35  C   UNL     1     -10.534   7.088 127.019  0.00  0.00    +0.000 C 
ATOM     36  C   UNL     1     -10.544   8.270 128.003  0.00  0.00    +0.000 C 
ATOM     37  H   UNL     1     -11.759   7.941 125.646  0.00  0.00    +0.000 HD
ENDBRANCH  29  31
ENDBRANCH  28  29
ENDBRANCH  22  28
ENDBRANCH   1  25
TORSDOF 6
ENDMDL
MODEL 3
REMARK VINA RESULT:      -9.5      1.685      2.332
REMARK  Name = CHEMBL105960
REMARK  8 active torsions:
REMARK  status: ('A' for Active; 'I' for Inactive)
REMARK    1  A    between atoms: C_1  and  O_2
REMARK    2  A    between atoms: O_2  and  C_3
REMARK    3  A    between atoms: C_5  and  O_6
REMARK    4  A    between atoms: O_6  and  C_7
REMARK    5  A    between atoms: C_7  and  C_8
REMARK    6  A    between atoms: C_7  and  C_9
REMARK    7  A    between atoms: C_17  and  C_18
REMARK    8  A    between atoms: C_23  and  N_24
REMARK                            x       y       z     vdW  Elec       q    Type
REMARK                         _______ _______ _______ _____ _____    ______ ____
ROOT
ATOM      1  C   UNL     1      -4.562   3.136 129.483  0.00  0.00    +0.000 C 
ATOM      2  O   UNL     1      -3.352   3.396 129.523  0.00  0.00    +0.000 OA
ATOM      3  N   UNL     1      -5.456   3.916 130.261  0.00  0.00    +0.000 N 
ATOM      4  C   UNL     1      -5.553   5.319 129.799  0.00  0.00    +0.000 C 
ATOM      5  C   UNL     1      -5.952   6.253 130.900  0.00  0.00    +0.000 C 
ATOM      6  C   UNL     1      -7.631   5.970 131.427  0.00  0.00    +0.000 C 
ATOM      7  C   UNL     1      -7.153   4.432 132.085  0.00  0.00    +0.000 C 
ATOM      8  C   UNL     1      -6.577   3.385 131.111  0.00  0.00    +0.000 C 
ENDROOT
BRANCH   6   9
ATOM      9  N   UNL     1      -8.922   6.859 130.469  0.00  0.00    +0.000 N 
ATOM     10  C   UNL     1      -9.805   6.390 131.490  0.00  0.00    +0.000 C 
ATOM     11  O   UNL     1      -9.720   6.500 132.754  0.00  0.00    +0.000 OA
ATOM     12  O   UNL     1     -10.726   5.543 131.107  0.00  0.00    +0.000 OA
ATOM     13  C   UNL     1     -11.741   6.462 131.038  0.00  0.00    +0.000 C 
ATOM     14  C   UNL     1     -11.592   6.625 129.598  0.00  0.00    +0.000 A 
ATOM     15  C   UNL     1     -12.960   6.538 128.984  0.00  0.00    +0.000 A 
ATOM     16  C   UNL     1     -13.255   6.902 127.716  0.00  0.00    +0.000 A 
ATOM     17  C   UNL     1     -12.188   7.608 127.206  0.00  0.00    +0.000 A 
ATOM     18  C   UNL     1     -10.708   7.689 127.918  0.00  0.00    +0.000 A 
ATOM     19  C   UNL     1     -10.235   6.952 129.167  0.00  0.00    +0.000 A 
ENDBRANCH   6   9
BRANCH   1  25
ATOM     20  C   UNL     1      -5.158   2.398 127.010  0.00  0.00    +0.000 A 
ATOM     21  C   UNL     1      -5.587   1.365 126.167  0.00  0.00    +0.000 A 
ATOM     22  C   UNL     1      -5.887   0.104 126.664  0.00  0.00    +0.000 A 
ATOM     23  C   UNL     1      -5.576  -0.193 127.969  0.00  0.00    +0.000 A 
ATOM     24  C   UNL     1      -5.215   0.837 128.837  0.00  0.00    +0.000 A 
ATOM     25  C   UNL     1      -5.015   2.177 128.393  0.00  0.00    +0.000 A 
BRANCH  20  27
ATOM     26  C   UNL     1      -6.238   4.283 126.217  0.00  0.00    +0.000 C 
ATOM     27  O   UNL     1      -5.034   3.555 126.283  0.00  0.00    +0.000 OA
ENDBRANCH  20  27
BRANCH  22  28
ATOM     28  O   UNL     1      -6.564  -0.716 125.830  0.00  0.00    +0.000 OA
BRANCH  28  29
ATOM     29  C   UNL     1      -6.979  -0.293 124.529  0.00  0.00    +0.000 C 
ATOM     30  C   UNL     1      -6.443  -1.199 123.415  0.00  0.00    +0.000 C 
BRANCH  29  31
ATOM     31  C   UNL     1      -8.539  -0.336 124.467  0.00  0.00    +0.000 C 
ATOM     32  C   UNL     1      -9.065   0.433 123.246  0.00  0.00    +0.000 C 
ATOM     33  C   UNL     1      -8.914   1.938 123.435  0.00  0.00    +0.000 C 
ATOM     34  N   UNL     1      -9.640   2.393 124.625  0.00  0.00    +0.000 NA
ATOM     35  C   UNL     1      -9.110   1.753 125.831  0.00  0.00    +0.000 C 
ATOM     36  C   UNL     1      -9.204   0.221 125.742  0.00  0.00    +0.000 C 
ATOM     37  H   UNL     1     -10.622   2.138 124.534  0.00  0.00    +0.000 HD
ENDBRANCH  29  31
ENDBRANCH  28  29
ENDBRANCH  22  28
ENDBRANCH   1  25
TORSDOF 6
ENDMDL
MODEL 4
REMARK VINA RESULT:      -9.4      1.623      2.274
REMARK  Name = CHEMBL105960
REMARK  8 active torsions:
REMARK  status: ('A' for Active; 'I' for Inactive)
REMARK    1  A    between atoms: C_1  and  O_2
REMARK    2  A    between atoms: O_2  and  C_3
REMARK    3  A    between atoms: C_5  and  O_6
REMARK    4  A    between atoms: O_6  and  C_7
REMARK    5  A    between atoms: C_7  and  C_8
REMARK    6  A    between atoms: C_7  and  C_9
REMARK    7  A    between atoms: C_17  and  C_18
REMARK    8  A    between atoms: C_23  and  N_24
REMARK                            x       y       z     vdW  Elec       q    Type
REMARK                         _______ _______ _______ _____ _____    ______ ____
ROOT
ATOM      1  C   UNL     1      -5.287   2.654 129.936  0.00  0.00    +0.000 C 
ATOM      2  O   UNL     1      -4.061   2.740 129.784  0.00  0.00    +0.000 OA
ATOM      3  N   UNL     1      -5.959   3.672 130.661  0.00  0.00    +0.000 N 
ATOM      4  C   UNL     1      -5.950   4.980 129.968  0.00  0.00    +0.000 C 
ATOM      5  C   UNL     1      -6.072   6.129 130.921  0.00  0.00    +0.000 C 
ATOM      6  C   UNL     1      -7.680   6.181 131.687  0.00  0.00    +0.000 C 
ATOM      7  C   UNL     1      -7.303   4.719 132.551  0.00  0.00    +0.000 C 
ATOM      8  C   UNL     1      -7.004   3.455 131.721  0.00  0.00    +0.000 C 
ENDROOT
BRANCH   6   9
ATOM      9  N   UNL     1      -8.977   7.079 130.745  0.00  0.00    +0.000 N 
ATOM     10  C   UNL     1      -9.879   6.443 131.651  0.00  0.00    +0.000 C 
ATOM     11  O   UNL     1      -9.875   6.421 132.923  0.00  0.00    +0.000 OA
ATOM     12  O   UNL     1     -10.711   5.582 131.124  0.00  0.00    +0.000 OA
ATOM     13  C   UNL     1     -11.786   6.432 131.084  0.00  0.00    +0.000 C 
ATOM     14  C   UNL     1     -11.567   6.759 129.682  0.00  0.00    +0.000 A 
ATOM     15  C   UNL     1     -12.887   6.646 128.974  0.00  0.00    +0.000 A 
ATOM     16  C   UNL     1     -13.136   7.123 127.735  0.00  0.00    +0.000 A 
ATOM     17  C   UNL     1     -12.097   7.952 127.371  0.00  0.00    +0.000 A 
ATOM     18  C   UNL     1     -10.670   8.056 128.183  0.00  0.00    +0.000 A 
ATOM     19  C   UNL     1     -10.217   7.222 129.377  0.00  0.00    +0.000 A 
ENDBRANCH   6   9
BRANCH   1  25
ATOM     20  C   UNL     1      -5.906   1.342 127.720  0.00  0.00    +0.000 A 
ATOM     21  C   UNL     1      -6.657   0.311 127.141  0.00  0.00    +0.000 A 
ATOM     22  C   UNL     1      -7.516  -0.471 127.898  0.00  0.00    +0.000 A 
ATOM     23  C   UNL     1      -7.489  -0.363 129.268  0.00  0.00    +0.000 A 
ATOM     24  C   UNL     1      -6.803   0.699 129.856  0.00  0.00    +0.000 A 
ATOM     25  C   UNL     1      -6.004   1.606 129.100  0.00  0.00    +0.000 A 
BRANCH  20  27
ATOM     26  C   UNL     1      -5.959   2.106 125.538  0.00  0.00    +0.000 C 
ATOM     27  O   UNL     1      -5.228   2.018 126.738  0.00  0.00    +0.000 OA
ENDBRANCH  20  27
BRANCH  22  28
ATOM     28  O   UNL     1      -8.398  -1.225 127.205  0.00  0.00    +0.000 OA
BRANCH  28  29
ATOM     29  C   UNL     1      -8.111  -2.576 126.838  0.00  0.00    +0.000 C 
ATOM     30  C   UNL     1      -8.668  -3.591 127.843  0.00  0.00    +0.000 C 
BRANCH  29  31
ATOM     31  C   UNL     1      -8.774  -2.866 125.454  0.00  0.00    +0.000 C 
ATOM     32  C   UNL     1      -8.023  -3.977 124.704  0.00  0.00    +0.000 C 
ATOM     33  C   UNL     1      -6.680  -3.478 124.184  0.00  0.00    +0.000 C 
ATOM     34  N   UNL     1      -6.857  -2.338 123.278  0.00  0.00    +0.000 NA
ATOM     35  C   UNL     1      -7.490  -1.217 123.977  0.00  0.00    +0.000 C 
ATOM     36  C   UNL     1      -8.857  -1.615 124.557  0.00  0.00    +0.000 C 
ATOM     37  H   UNL     1      -7.463  -2.616 122.508  0.00  0.00    +0.000 HD
ENDBRANCH  29  31
ENDBRANCH  28  29
ENDBRANCH  22  28
ENDBRANCH   1  25
TORSDOF 6
ENDMDL
MODEL 5
REMARK VINA RESULT:      -9.3      3.530      9.985
REMARK  Name = CHEMBL105960
REMARK  8 active torsions:
REMARK  status: ('A' for Active; 'I' for Inactive)
REMARK    1  A    between atoms: C_1  and  O_2
REMARK    2  A    between atoms: O_2  and  C_3
REMARK    3  A    between atoms: C_5  and  O_6
REMARK    4  A    between atoms: O_6  and  C_7
REMARK    5  A    between atoms: C_7  and  C_8
REMARK    6  A    between atoms: C_7  and  C_9
REMARK    7  A    between atoms: C_17  and  C_18
REMARK    8  A    between atoms: C_23  and  N_24
REMARK                            x       y       z     vdW  Elec       q    Type
REMARK                         _______ _______ _______ _____ _____    ______ ____
ROOT
ATOM      1  C   UNL     1      -6.577   4.818 125.489  0.00  0.00    +0.000 C 
ATOM      2  O   UNL     1      -6.437   5.921 124.943  0.00  0.00    +0.000 OA
ATOM      3  N   UNL     1      -7.332   3.817 124.825  0.00  0.00    +0.000 N 
ATOM      4  C   UNL     1      -6.684   3.328 123.586  0.00  0.00    +0.000 C 
ATOM      5  C   UNL     1      -7.675   2.790 122.601  0.00  0.00    +0.000 C 
ATOM      6  C   UNL     1      -8.431   1.285 123.184  0.00  0.00    +0.000 C 
ATOM      7  C   UNL     1      -9.247   2.190 124.426  0.00  0.00    +0.000 C 
ATOM      8  C   UNL     1      -8.376   2.937 125.455  0.00  0.00    +0.000 C 
ENDROOT
BRANCH   6   9
ATOM      9  N   UNL     1      -7.511  -0.261 122.809  0.00  0.00    +0.000 N 
ATOM     10  C   UNL     1      -8.683  -0.912 123.299  0.00  0.00    +0.000 C 
ATOM     11  O   UNL     1      -9.900  -0.764 122.960  0.00  0.00    +0.000 OA
ATOM     12  O   UNL     1      -8.536  -1.611 124.396  0.00  0.00    +0.000 OA
ATOM     13  C   UNL     1      -8.453  -2.831 123.775  0.00  0.00    +0.000 C 
ATOM     14  C   UNL     1      -6.997  -2.838 123.826  0.00  0.00    +0.000 A 
ATOM     15  C   UNL     1      -6.564  -4.180 124.344  0.00  0.00    +0.000 A 
ATOM     16  C   UNL     1      -5.300  -4.654 124.283  0.00  0.00    +0.000 A 
ATOM     17  C   UNL     1      -4.573  -3.846 123.435  0.00  0.00    +0.000 A 
ATOM     18  C   UNL     1      -5.091  -2.387 122.879  0.00  0.00    +0.000 A 
ATOM     19  C   UNL     1      -6.370  -1.648 123.258  0.00  0.00    +0.000 A 
ENDBRANCH   6   9
BRANCH   1  25
ATOM     20  C   UNL     1      -6.048   4.500 128.064  0.00  0.00    +0.000 A 
ATOM     21  C   UNL     1      -5.078   4.218 129.034  0.00  0.00    +0.000 A 
ATOM     22  C   UNL     1      -3.756   3.981 128.687  0.00  0.00    +0.000 A 
ATOM     23  C   UNL     1      -3.428   3.829 127.361  0.00  0.00    +0.000 A 
ATOM     24  C   UNL     1      -4.361   4.172 126.383  0.00  0.00    +0.000 A 
ATOM     25  C   UNL     1      -5.701   4.544 126.700  0.00  0.00    +0.000 A 
BRANCH  20  27
ATOM     26  C   UNL     1      -7.241   4.440 130.045  0.00  0.00    +0.000 C 
ATOM     27  O   UNL     1      -7.237   4.795 128.682  0.00  0.00    +0.000 OA
ENDBRANCH  20  27
BRANCH  22  28
ATOM     28  O   UNL     1      -2.862   4.014 129.700  0.00  0.00    +0.000 OA
BRANCH  28  29
ATOM     29  C   UNL     1      -3.079   4.803 130.872  0.00  0.00    +0.000 C 
ATOM     30  C   UNL     1      -2.731   4.052 132.162  0.00  0.00    +0.000 C 
BRANCH  29  31
ATOM     31  C   UNL     1      -2.164   6.066 130.797  0.00  0.00    +0.000 C 
ATOM     32  C   UNL     1      -2.699   7.191 131.696  0.00  0.00    +0.000 C 
ATOM     33  C   UNL     1      -3.957   7.818 131.104  0.00  0.00    +0.000 C 
ATOM     34  N   UNL     1      -3.690   8.369 129.770  0.00  0.00    +0.000 NA
ATOM     35  C   UNL     1      -3.263   7.313 128.850  0.00  0.00    +0.000 C 
ATOM     36  C   UNL     1      -1.999   6.600 129.360  0.00  0.00    +0.000 C 
ATOM     37  H   UNL     1      -2.942   9.055 129.837  0.00  0.00    +0.000 HD
ENDBRANCH  29  31
ENDBRANCH  28  29
ENDBRANCH  22  28
ENDBRANCH   1  25
TORSDOF 6
ENDMDL
MODEL 6
REMARK VINA RESULT:      -9.3      1.559      1.863
REMARK  Name = CHEMBL105960
REMARK  8 active torsions:
REMARK  status: ('A' for Active; 'I' for Inactive)
REMARK    1  A    between atoms: C_1  and  O_2
REMARK    2  A    between atoms: O_2  and  C_3
REMARK    3  A    between atoms: C_5  and  O_6
REMARK    4  A    between atoms: O_6  and  C_7
REMARK    5  A    between atoms: C_7  and  C_8
REMARK    6  A    between atoms: C_7  and  C_9
REMARK    7  A    between atoms: C_17  and  C_18
REMARK    8  A    between atoms: C_23  and  N_24
REMARK                            x       y       z     vdW  Elec       q    Type
REMARK                         _______ _______ _______ _____ _____    ______ ____
ROOT
ATOM      1  C   UNL     1      -5.247   1.674 130.168  0.00  0.00    +0.000 C 
ATOM      2  O   UNL     1      -4.166   1.673 130.771  0.00  0.00    +0.000 OA
ATOM      3  N   UNL     1      -6.343   2.378 130.730  0.00  0.00    +0.000 N 
ATOM      4  C   UNL     1      -6.142   3.845 130.748  0.00  0.00    +0.000 C 
ATOM      5  C   UNL     1      -6.928   4.513 131.833  0.00  0.00    +0.000 C 
ATOM      6  C   UNL     1      -8.681   4.432 131.523  0.00  0.00    +0.000 C 
ATOM      7  C   UNL     1      -8.636   2.712 131.783  0.00  0.00    +0.000 C 
ATOM      8  C   UNL     1      -7.755   1.870 130.840  0.00  0.00    +0.000 C 
ENDROOT
BRANCH   6   9
ATOM      9  N   UNL     1      -9.362   5.776 130.471  0.00  0.00    +0.000 N 
ATOM     10  C   UNL     1     -10.281   5.963 131.548  0.00  0.00    +0.000 C 
ATOM     11  O   UNL     1     -10.060   6.136 132.788  0.00  0.00    +0.000 OA
ATOM     12  O   UNL     1     -11.538   5.714 131.279  0.00  0.00    +0.000 OA
ATOM     13  C   UNL     1     -11.906   7.023 131.104  0.00  0.00    +0.000 C 
ATOM     14  C   UNL     1     -11.797   6.934 129.654  0.00  0.00    +0.000 A 
ATOM     15  C   UNL     1     -13.040   7.538 129.065  0.00  0.00    +0.000 A 
ATOM     16  C   UNL     1     -13.186   7.874 127.764  0.00  0.00    +0.000 A 
ATOM     17  C   UNL     1     -11.947   7.837 127.163  0.00  0.00    +0.000 A 
ATOM     18  C   UNL     1     -10.606   7.177 127.850  0.00  0.00    +0.000 A 
ATOM     19  C   UNL     1     -10.512   6.432 129.177  0.00  0.00    +0.000 A 
ENDBRANCH   6   9
BRANCH   1  25
ATOM     20  C   UNL     1      -4.887   1.803 127.548  0.00  0.00    +0.000 A 
ATOM     21  C   UNL     1      -4.932   1.122 126.324  0.00  0.00    +0.000 A 
ATOM     22  C   UNL     1      -5.319  -0.208 126.251  0.00  0.00    +0.000 A 
ATOM     23  C   UNL     1      -5.476  -0.925 127.412  0.00  0.00    +0.000 A 
ATOM     24  C   UNL     1      -5.502  -0.252 128.633  0.00  0.00    +0.000 A 
ATOM     25  C   UNL     1      -5.231   1.144 128.743  0.00  0.00    +0.000 A 
BRANCH  20  27
ATOM     26  C   UNL     1      -3.347   3.282 126.657  0.00  0.00    +0.000 C 
ATOM     27  O   UNL     1      -4.577   3.121 127.324  0.00  0.00    +0.000 OA
ENDBRANCH  20  27
BRANCH  22  28
ATOM     28  O   UNL     1      -5.610  -0.673 125.016  0.00  0.00    +0.000 OA
BRANCH  28  29
ATOM     29  C   UNL     1      -6.959  -0.810 124.560  0.00  0.00    +0.000 C 
ATOM     30  C   UNL     1      -7.395   0.347 123.655  0.00  0.00    +0.000 C 
BRANCH  29  31
ATOM     31  C   UNL     1      -7.071  -2.129 123.732  0.00  0.00    +0.000 C 
ATOM     32  C   UNL     1      -8.133  -2.000 122.629  0.00  0.00    +0.000 C 
ATOM     33  C   UNL     1      -9.540  -2.010 123.216  0.00  0.00    +0.000 C 
ATOM     34  N   UNL     1      -9.788  -3.247 123.964  0.00  0.00    +0.000 NA
ATOM     35  C   UNL     1      -8.854  -3.369 125.086  0.00  0.00    +0.000 C 
ATOM     36  C   UNL     1      -7.394  -3.358 124.606  0.00  0.00    +0.000 C 
ATOM     37  H   UNL     1      -9.648  -4.044 123.346  0.00  0.00    +0.000 HD
ENDBRANCH  29  31
ENDBRANCH  28  29
ENDBRANCH  22  28
ENDBRANCH   1  25
TORSDOF 6
ENDMDL
MODEL 7
REMARK VINA RESULT:      -9.2      2.354      8.610
REMARK  Name = CHEMBL105960
REMARK  8 active torsions:
REMARK  status: ('A' for Active; 'I' for Inactive)
REMARK    1  A    between atoms: C_1  and  O_2
REMARK    2  A    between atoms: O_2  and  C_3
REMARK    3  A    between atoms: C_5  and  O_6
REMARK    4  A    between atoms: O_6  and  C_7
REMARK    5  A    between atoms: C_7  and  C_8
REMARK    6  A    between atoms: C_7  and  C_9
REMARK    7  A    between atoms: C_17  and  C_18
REMARK    8  A    between atoms: C_23  and  N_24
REMARK                            x       y       z     vdW  Elec       q    Type
REMARK                         _______ _______ _______ _____ _____    ______ ____
ROOT
ATOM      1  C   UNL     1      -7.963   2.635 132.194  0.00  0.00    +0.000 C 
ATOM      2  O   UNL     1      -8.624   2.002 133.029  0.00  0.00    +0.000 OA
ATOM      3  N   UNL     1      -6.904   1.976 131.519  0.00  0.00    +0.000 N 
ATOM      4  C   UNL     1      -7.374   0.906 130.609  0.00  0.00    +0.000 C 
ATOM      5  C   UNL     1      -6.336  -0.153 130.394  0.00  0.00    +0.000 C 
ATOM      6  C   UNL     1      -4.944   0.467 129.470  0.00  0.00    +0.000 C 
ATOM      7  C   UNL     1      -4.509   1.471 130.822  0.00  0.00    +0.000 C 
ATOM      8  C   UNL     1      -5.527   2.533 131.282  0.00  0.00    +0.000 C 
ENDROOT
BRANCH   6   9
ATOM      9  N   UNL     1      -5.113   0.398 127.642  0.00  0.00    +0.000 N 
ATOM     10  C   UNL     1      -4.751   1.779 127.696  0.00  0.00    +0.000 C 
ATOM     11  O   UNL     1      -3.754   2.338 128.251  0.00  0.00    +0.000 OA
ATOM     12  O   UNL     1      -5.669   2.628 127.309  0.00  0.00    +0.000 OA
ATOM     13  C   UNL     1      -5.155   2.828 126.054  0.00  0.00    +0.000 C 
ATOM     14  C   UNL     1      -6.078   1.879 125.447  0.00  0.00    +0.000 A 
ATOM     15  C   UNL     1      -6.672   2.532 124.232  0.00  0.00    +0.000 A 
ATOM     16  C   UNL     1      -7.362   1.879 123.271  0.00  0.00    +0.000 A 
ATOM     17  C   UNL     1      -7.179   0.525 123.448  0.00  0.00    +0.000 A 
ATOM     18  C   UNL     1      -6.511  -0.150 124.791  0.00  0.00    +0.000 A 
ATOM     19  C   UNL     1      -6.079   0.558 126.070  0.00  0.00    +0.000 A 
ENDBRANCH   6   9
BRANCH   1  25
ATOM     20  C   UNL     1      -8.104   5.279 132.141  0.00  0.00    +0.000 A 
ATOM     21  C   UNL     1      -8.753   6.407 131.623  0.00  0.00    +0.000 A 
ATOM     22  C   UNL     1      -9.818   6.287 130.741  0.00  0.00    +0.000 A 
ATOM     23  C   UNL     1     -10.118   5.053 130.216  0.00  0.00    +0.000 A 
ATOM     24  C   UNL     1      -9.531   3.915 130.768  0.00  0.00    +0.000 A 
ATOM     25  C   UNL     1      -8.518   3.985 131.770  0.00  0.00    +0.000 A 
BRANCH  20  27
ATOM     26  C   UNL     1      -5.929   5.992 132.470  0.00  0.00    +0.000 C 
ATOM     27  O   UNL     1      -7.167   5.676 133.061  0.00  0.00    +0.000 OA
ENDBRANCH  20  27
BRANCH  22  28
ATOM     28  O   UNL     1     -10.549   7.405 130.539  0.00  0.00    +0.000 OA
BRANCH  28  29
ATOM     29  C   UNL     1     -11.862   7.356 129.976  0.00  0.00    +0.000 C 
ATOM     30  C   UNL     1     -12.953   7.711 130.993  0.00  0.00    +0.000 C 
BRANCH  29  31
ATOM     31  C   UNL     1     -11.942   8.394 128.813  0.00  0.00    +0.000 C 
ATOM     32  C   UNL     1     -13.172   8.139 127.928  0.00  0.00    +0.000 C 
ATOM     33  C   UNL     1     -12.986   6.891 127.073  0.00  0.00    +0.000 C 
ATOM     34  N   UNL     1     -11.806   7.016 126.210  0.00  0.00    +0.000 NA
ATOM     35  C   UNL     1     -10.592   7.171 127.015  0.00  0.00    +0.000 C 
ATOM     36  C   UNL     1     -10.677   8.403 127.931  0.00  0.00    +0.000 C 
ATOM     37  H   UNL     1     -11.908   7.844 125.625  0.00  0.00    +0.000 HD
ENDBRANCH  29  31
ENDBRANCH  28  29
ENDBRANCH  22  28
ENDBRANCH   1  25
TORSDOF 6
ENDMDL
MODEL 8
REMARK VINA RESULT:      -8.8      4.285     10.006
REMARK  Name = CHEMBL105960
REMARK  8 active torsions:
REMARK  status: ('A' for Active; 'I' for Inactive)
REMARK    1  A    between atoms: C_1  and  O_2
REMARK    2  A    between atoms: O_2  and  C_3
REMARK    3  A    between atoms: C_5  and  O_6
REMARK    4  A    between atoms: O_6  and  C_7
REMARK    5  A    between atoms: C_7  and  C_8
REMARK    6  A    between atoms: C_7  and  C_9
REMARK    7  A    between atoms: C_17  and  C_18
REMARK    8  A    between atoms: C_23  and  N_24
REMARK                            x       y       z     vdW  Elec       q    Type
REMARK                         _______ _______ _______ _____ _____    ______ ____
ROOT
ATOM      1  C   UNL     1      -6.163   4.761 125.750  0.00  0.00    +0.000 C 
ATOM      2  O   UNL     1      -6.025   5.872 125.221  0.00  0.00    +0.000 OA
ATOM      3  N   UNL     1      -6.958   3.786 125.094  0.00  0.00    +0.000 N 
ATOM      4  C   UNL     1      -6.363   3.312 123.823  0.00  0.00    +0.000 C 
ATOM      5  C   UNL     1      -7.397   2.809 122.865  0.00  0.00    +0.000 C 
ATOM      6  C   UNL     1      -8.156   1.304 123.445  0.00  0.00    +0.000 C 
ATOM      7  C   UNL     1      -8.912   2.196 124.733  0.00  0.00    +0.000 C 
ATOM      8  C   UNL     1      -7.993   2.909 125.744  0.00  0.00    +0.000 C 
ENDROOT
BRANCH   6   9
ATOM      9  N   UNL     1      -7.275  -0.247 123.006  0.00  0.00    +0.000 N 
ATOM     10  C   UNL     1      -8.486  -0.885 123.413  0.00  0.00    +0.000 C 
ATOM     11  O   UNL     1      -9.684  -0.672 123.042  0.00  0.00    +0.000 OA
ATOM     12  O   UNL     1      -8.404  -1.655 124.468  0.00  0.00    +0.000 OA
ATOM     13  C   UNL     1      -8.339  -2.836 123.776  0.00  0.00    +0.000 C 
ATOM     14  C   UNL     1      -6.887  -2.899 123.877  0.00  0.00    +0.000 A 
ATOM     15  C   UNL     1      -6.519  -4.285 124.325  0.00  0.00    +0.000 A 
ATOM     16  C   UNL     1      -5.271  -4.799 124.278  0.00  0.00    +0.000 A 
ATOM     17  C   UNL     1      -4.486  -3.968 123.509  0.00  0.00    +0.000 A 
ATOM     18  C   UNL     1      -4.933  -2.460 123.027  0.00  0.00    +0.000 A 
ATOM     19  C   UNL     1      -6.199  -1.700 123.407  0.00  0.00    +0.000 A 
ENDBRANCH   6   9
BRANCH   1  25
ATOM     20  C   UNL     1      -3.882   4.106 126.926  0.00  0.00    +0.000 A 
ATOM     21  C   UNL     1      -3.215   3.862 128.133  0.00  0.00    +0.000 A 
ATOM     22  C   UNL     1      -3.873   3.943 129.352  0.00  0.00    +0.000 A 
ATOM     23  C   UNL     1      -5.147   4.457 129.393  0.00  0.00    +0.000 A 
ATOM     24  C   UNL     1      -5.849   4.640 128.202  0.00  0.00    +0.000 A 
ATOM     25  C   UNL     1      -5.248   4.448 126.923  0.00  0.00    +0.000 A 
BRANCH  20  27
ATOM     26  C   UNL     1      -1.863   3.181 126.278  0.00  0.00    +0.000 C 
ATOM     27  O   UNL     1      -3.033   3.857 125.878  0.00  0.00    +0.000 OA
ENDBRANCH  20  27
BRANCH  22  28
ATOM     28  O   UNL     1      -3.226   3.407 130.411  0.00  0.00    +0.000 OA
BRANCH  28  29
ATOM     29  C   UNL     1      -3.863   3.248 131.681  0.00  0.00    +0.000 C 
ATOM     30  C   UNL     1      -4.546   1.885 131.832  0.00  0.00    +0.000 C 
BRANCH  29  31
ATOM     31  C   UNL     1      -2.777   3.362 132.798  0.00  0.00    +0.000 C 
ATOM     32  C   UNL     1      -3.423   3.495 134.185  0.00  0.00    +0.000 C 
ATOM     33  C   UNL     1      -4.048   4.873 134.371  0.00  0.00    +0.000 C 
ATOM     34  N   UNL     1      -3.043   5.931 134.218  0.00  0.00    +0.000 NA
ATOM     35  C   UNL     1      -2.462   5.901 132.874  0.00  0.00    +0.000 C 
ATOM     36  C   UNL     1      -1.809   4.542 132.573  0.00  0.00    +0.000 C 
ATOM     37  H   UNL     1      -2.295   5.779 134.892  0.00  0.00    +0.000 HD
ENDBRANCH  29  31
ENDBRANCH  28  29
ENDBRANCH  22  28
ENDBRANCH   1  25
TORSDOF 6
ENDMDL
MODEL 9
REMARK VINA RESULT:      -8.6      4.818      7.971
REMARK  Name = CHEMBL105960
REMARK  8 active torsions:
REMARK  status: ('A' for Active; 'I' for Inactive)
REMARK    1  A    between atoms: C_1  and  O_2
REMARK    2  A    between atoms: O_2  and  C_3
REMARK    3  A    between atoms: C_5  and  O_6
REMARK    4  A    between atoms: O_6  and  C_7
REMARK    5  A    between atoms: C_7  and  C_8
REMARK    6  A    between atoms: C_7  and  C_9
REMARK    7  A    between atoms: C_17  and  C_18
REMARK    8  A    between atoms: C_23  and  N_24
REMARK                            x       y       z     vdW  Elec       q    Type
REMARK                         _______ _______ _______ _____ _____    ______ ____
ROOT
ATOM      1  C   UNL     1      -7.860   0.529 127.281  0.00  0.00    +0.000 C 
ATOM      2  O   UNL     1      -8.959   0.648 126.723  0.00  0.00    +0.000 OA
ATOM      3  N   UNL     1      -6.917   1.583 127.165  0.00  0.00    +0.000 N 
ATOM      4  C   UNL     1      -7.343   2.821 127.858  0.00  0.00    +0.000 C 
ATOM      5  C   UNL     1      -6.728   4.047 127.257  0.00  0.00    +0.000 C 
ATOM      6  C   UNL     1      -4.969   4.109 127.541  0.00  0.00    +0.000 C 
ATOM      7  C   UNL     1      -4.763   2.749 126.476  0.00  0.00    +0.000 C 
ATOM      8  C   UNL     1      -5.452   1.426 126.863  0.00  0.00    +0.000 C 
ENDROOT
BRANCH   6   9
ATOM      9  N   UNL     1      -4.450   4.864 129.133  0.00  0.00    +0.000 N 
ATOM     10  C   UNL     1      -3.717   5.767 128.304  0.00  0.00    +0.000 C 
ATOM     11  O   UNL     1      -4.111   6.479 127.327  0.00  0.00    +0.000 OA
ATOM     12  O   UNL     1      -2.413   5.713 128.409  0.00  0.00    +0.000 OA
ATOM     13  C   UNL     1      -2.293   6.805 129.230  0.00  0.00    +0.000 C 
ATOM     14  C   UNL     1      -2.212   5.983 130.430  0.00  0.00    +0.000 A 
ATOM     15  C   UNL     1      -1.054   6.479 131.247  0.00  0.00    +0.000 A 
ATOM     16  C   UNL     1      -0.826   6.145 132.536  0.00  0.00    +0.000 A 
ATOM     17  C   UNL     1      -1.955   5.530 133.032  0.00  0.00    +0.000 A 
ATOM     18  C   UNL     1      -3.210   5.014 132.103  0.00  0.00    +0.000 A 
ATOM     19  C   UNL     1      -3.309   5.031 130.582  0.00  0.00    +0.000 A 
ENDBRANCH   6   9
BRANCH   1  25
ATOM     20  C   UNL     1      -7.601  -2.001 128.021  0.00  0.00    +0.000 A 
ATOM     21  C   UNL     1      -7.471  -2.902 129.085  0.00  0.00    +0.000 A 
ATOM     22  C   UNL     1      -7.460  -2.468 130.403  0.00  0.00    +0.000 A 
ATOM     23  C   UNL     1      -7.382  -1.121 130.665  0.00  0.00    +0.000 A 
ATOM     24  C   UNL     1      -7.578  -0.211 129.626  0.00  0.00    +0.000 A 
ATOM     25  C   UNL     1      -7.719  -0.619 128.267  0.00  0.00    +0.000 A 
BRANCH  20  27
ATOM     26  C   UNL     1      -8.979  -3.213 126.613  0.00  0.00    +0.000 C 
ATOM     27  O   UNL     1      -7.688  -2.697 126.843  0.00  0.00    +0.000 OA
ENDBRANCH  20  27
BRANCH  22  28
ATOM     28  O   UNL     1      -7.629  -3.424 131.343  0.00  0.00    +0.000 OA
BRANCH  28  29
ATOM     29  C   UNL     1      -6.992  -3.346 132.621  0.00  0.00    +0.000 C 
ATOM     30  C   UNL     1      -7.994  -3.361 133.781  0.00  0.00    +0.000 C 
BRANCH  29  31
ATOM     31  C   UNL     1      -6.056  -4.584 132.786  0.00  0.00    +0.000 C 
ATOM     32  C   UNL     1      -5.088  -4.392 133.963  0.00  0.00    +0.000 C 
ATOM     33  C   UNL     1      -4.010  -3.368 133.628  0.00  0.00    +0.000 C 
ATOM     34  N   UNL     1      -3.239  -3.782 132.451  0.00  0.00    +0.000 NA
ATOM     35  C   UNL     1      -4.108  -3.890 131.276  0.00  0.00    +0.000 C 
ATOM     36  C   UNL     1      -5.247  -4.896 131.510  0.00  0.00    +0.000 C 
ATOM     37  H   UNL     1      -2.827  -4.696 132.627  0.00  0.00    +0.000 HD
ENDBRANCH  29  31
ENDBRANCH  28  29
ENDBRANCH  22  28
ENDBRANCH   1  25
TORSDOF 6
ENDMDL
