MODEL 1
REMARK VINA RESULT:      -9.2      0.000      0.000
REMARK  Name = CHEMBL2369839
REMARK  19 active torsions:
REMARK  status: ('A' for Active; 'I' for Inactive)
REMARK    1  A    between atoms: C_2  and  C_4
REMARK    2  A    between atoms: C_4  and  N_5
REMARK    3  A    between atoms: C_6  and  C_8
REMARK    4  A    between atoms: C_8  and  C_9
REMARK    5  A    between atoms: C_8  and  N_16
REMARK    6  A    between atoms: C_9  and  C_10
REMARK    7  A    between atoms: C_10  and  C_11
REMARK    8  A    between atoms: C_11  and  N_12
REMARK    9  A    between atoms: C_17  and  C_19
REMARK   10  A    between atoms: C_24  and  C_26
REMARK   11  A    between atoms: C_35  and  C_36
REMARK   12  A    between atoms: C_36  and  C_37
REMARK   13  A    between atoms: C_40  and  O_41
REMARK   14  A    between atoms: C_47  and  C_48
REMARK   15  A    between atoms: C_48  and  C_49
REMARK   16  A    between atoms: C_58  and  C_59
REMARK   17  A    between atoms: C_59  and  C_60
REMARK   18  A    between atoms: C_66  and  C_67
REMARK   19  A    between atoms: C_67  and  C_68
REMARK                            x       y       z     vdW  Elec       q    Type
REMARK                         _______ _______ _______ _____ _____    ______ ____
ROOT
ATOM      1  C   UNL     1      -6.823  -2.342 133.059  0.00  0.00    +0.000 C 
ATOM      2  C   UNL     1      -7.927  -2.664 130.678  0.00  0.00    +0.000 C 
ATOM      3  S   UNL     1      -8.250  -2.632 127.968  0.00  0.00    +0.000 S 
ATOM      4  S   UNL     1      -8.760  -1.940 125.223  0.00  0.00    +0.000 S 
ATOM      5  C   UNL     1      -7.688  -0.454 124.440  0.00  0.00    +0.000 C 
ATOM      6  C   UNL     1      -7.766   0.804 123.599  0.00  0.00    +0.000 C 
ATOM      7  C   UNL     1      -6.777   1.949 123.923  0.00  0.00    +0.000 C 
ATOM      8  O   UNL     1      -6.683   2.922 123.179  0.00  0.00    +0.000 OA
ATOM      9  N   UNL     1      -6.028   1.878 125.054  0.00  0.00    +0.000 N 
ATOM     10  C   UNL     1      -6.136   0.795 125.910  0.00  0.00    +0.000 C 
ATOM     11  C   UNL     1      -7.635   0.816 126.650  0.00  0.00    +0.000 C 
ATOM     12  O   UNL     1      -8.749   0.822 126.080  0.00  0.00    +0.000 OA
ATOM     13  N   UNL     1      -7.875   0.675 127.863  0.00  0.00    +0.000 N 
ATOM     14  C   UNL     1      -7.017   0.625 128.796  0.00  0.00    +0.000 C 
ATOM     15  C   UNL     1      -5.890  -0.986 128.616  0.00  0.00    +0.000 C 
ATOM     16  O   UNL     1      -5.028  -1.297 127.714  0.00  0.00    +0.000 OA
ATOM     17  N   UNL     1      -5.645  -1.696 129.758  0.00  0.00    +0.000 N 
ATOM     18  C   UNL     1      -5.799  -1.159 131.048  0.00  0.00    +0.000 C 
ATOM     19  C   UNL     1      -4.971   0.595 131.680  0.00  0.00    +0.000 C 
ATOM     20  O   UNL     1      -4.731   1.814 131.354  0.00  0.00    +0.000 OA
ATOM     21  N   UNL     1      -4.628   0.448 132.800  0.00  0.00    +0.000 N 
ATOM     22  C   UNL     1      -4.420  -0.566 133.644  0.00  0.00    +0.000 C 
ATOM     23  C   UNL     1      -6.096  -0.740 133.560  0.00  0.00    +0.000 C 
ATOM     24  O   UNL     1      -7.086  -0.818 132.810  0.00  0.00    +0.000 OA
ATOM     25  N   UNL     1      -6.604  -1.884 134.725  0.00  0.00    +0.000 N 
ATOM     26  H   UNL     1      -5.334   2.598 125.307  0.00  0.00    +0.000 HD
ATOM     27  H   UNL     1      -8.779   0.633 128.241  0.00  0.00    +0.000 HD
ATOM     28  H   UNL     1      -4.681  -1.998 129.798  0.00  0.00    +0.000 HD
ATOM     29  H   UNL     1      -4.641   1.446 133.173  0.00  0.00    +0.000 HD
ATOM     30  H   UNL     1      -7.124  -1.980 135.800  0.00  0.00    +0.000 HD
ENDROOT
BRANCH   1  36
ATOM     31  C   UNL     1      -4.670  -2.577 138.202  0.00  0.00    +0.000 C 
ATOM     32  C   UNL     1      -5.707  -2.729 139.492  0.00  0.00    +0.000 C 
ATOM     33  C   UNL     1      -5.119  -1.883 140.531  0.00  0.00    +0.000 C 
ATOM     34  C   UNL     1      -4.506  -0.707 139.093  0.00  0.00    +0.000 C 
ATOM     35  N   UNL     1      -4.660  -1.194 136.986  0.00  0.00    +0.000 N 
ATOM     36  C   UNL     1      -5.639  -1.377 134.987  0.00  0.00    +0.000 C 
ATOM     37  O   UNL     1      -4.837  -0.228 135.760  0.00  0.00    +0.000 OA
BRANCH  31  39
ATOM     38  N   UNL     1      -6.043  -3.908 136.735  0.00  0.00    +0.000 N 
ATOM     39  C   UNL     1      -5.030  -3.213 137.065  0.00  0.00    +0.000 C 
ATOM     40  O   UNL     1      -4.004  -3.227 136.528  0.00  0.00    +0.000 OA
ATOM     41  H   UNL     1      -6.785  -3.681 137.305  0.00  0.00    +0.000 HD
BRANCH  38  42
ATOM     42  C   UNL     1      -6.354  -4.708 135.623  0.00  0.00    +0.000 C 
BRANCH  42  44
ATOM     43  N   UNL     1      -8.332  -5.959 136.369  0.00  0.00    +0.000 N 
ATOM     44  C   UNL     1      -7.775  -5.076 135.614  0.00  0.00    +0.000 C 
ATOM     45  O   UNL     1      -8.541  -4.684 134.813  0.00  0.00    +0.000 OA
ATOM     46  H   UNL     1      -7.764  -6.260 137.205  0.00  0.00    +0.000 HD
BRANCH  43  47
ATOM     47  C   UNL     1      -9.448  -6.618 136.275  0.00  0.00    +0.000 C 
BRANCH  47  49
ATOM     48  N   UNL     1     -11.377  -4.793 137.408  0.00  0.00    +0.000 N 
ATOM     49  C   UNL     1     -11.029  -5.983 137.317  0.00  0.00    +0.000 C 
ATOM     50  O   UNL     1     -11.861  -6.661 137.959  0.00  0.00    +0.000 OA
ATOM     51  H   UNL     1     -12.144  -4.726 138.091  0.00  0.00    +0.000 HD
ATOM     52  H   UNL     1     -10.509  -3.755 137.422  0.00  0.00    +0.000 HD
ENDBRANCH  47  49
ENDBRANCH  43  47
ENDBRANCH  42  44
BRANCH  42  53
ATOM     53  C   UNL     1      -5.512  -5.808 135.257  0.00  0.00    +0.000 C 
BRANCH  53  54
ATOM     54  C   UNL     1      -4.934  -5.471 133.933  0.00  0.00    +0.000 C 
BRANCH  54  55
ATOM     55  C   UNL     1      -3.610  -6.141 133.767  0.00  0.00    +0.000 C 
BRANCH  55  56
ATOM     56  N   UNL     1      -2.566  -5.139 133.528  0.00  0.00    +0.000 NA
ATOM     57  C   UNL     1      -1.774  -4.819 134.507  0.00  0.00    +0.000 C 
ATOM     58  N   UNL     1      -1.878  -5.389 135.765  0.00  0.00    +0.000 N 
ATOM     59  N   UNL     1      -0.775  -3.868 134.297  0.00  0.00    +0.000 N 
ATOM     60  H   UNL     1      -2.595  -6.093 135.976  0.00  0.00    +0.000 HD
ATOM     61  H   UNL     1      -1.283  -5.167 136.551  0.00  0.00    +0.000 HD
ATOM     62  H   UNL     1      -0.647  -3.409 133.381  0.00  0.00    +0.000 HD
ATOM     63  H   UNL     1      -0.114  -3.558 134.999  0.00  0.00    +0.000 HD
ENDBRANCH  55  56
ENDBRANCH  54  55
ENDBRANCH  53  54
ENDBRANCH  42  53
ENDBRANCH  38  42
ENDBRANCH  31  39
ENDBRANCH   1  36
BRANCH  10  64
ATOM     64  C   UNL     1      -5.048   1.095 126.710  0.00  0.00    +0.000 C 
BRANCH  64  65
ATOM     65  C   UNL     1      -4.258   2.282 126.950  0.00  0.00    +0.000 A 
ATOM     66  C   UNL     1      -4.879   3.160 127.744  0.00  0.00    +0.000 A 
ATOM     67  C   UNL     1      -4.198   4.247 128.179  0.00  0.00    +0.000 A 
ATOM     68  C   UNL     1      -2.900   4.454 127.770  0.00  0.00    +0.000 A 
ATOM     69  C   UNL     1      -2.297   3.587 126.883  0.00  0.00    +0.000 A 
ATOM     70  C   UNL     1      -2.969   2.487 126.453  0.00  0.00    +0.000 A 
BRANCH  68  71
ATOM     71  O   UNL     1      -2.142   5.503 128.178  0.00  0.00    +0.000 OA
ATOM     72  H   UNL     1      -1.362   5.269 128.703  0.00  0.00    +0.000 HD
ENDBRANCH  68  71
ENDBRANCH  64  65
ENDBRANCH  10  64
BRANCH  14  73
ATOM     73  C   UNL     1      -7.921   0.294 129.731  0.00  0.00    +0.000 C 
BRANCH  73  74
ATOM     74  C   UNL     1      -8.340   2.206 130.252  0.00  0.00    +0.000 A 
ATOM     75  C   UNL     1      -9.146   1.852 131.207  0.00  0.00    +0.000 A 
ATOM     76  C   UNL     1      -9.809   2.941 131.421  0.00  0.00    +0.000 A 
ATOM     77  C   UNL     1      -9.292   4.215 131.357  0.00  0.00    +0.000 A 
ATOM     78  C   UNL     1      -8.097   4.471 130.782  0.00  0.00    +0.000 A 
ATOM     79  C   UNL     1      -7.440   3.463 130.312  0.00  0.00    +0.000 A 
ENDBRANCH  73  74
ENDBRANCH  14  73
BRANCH  18  80
ATOM     80  C   UNL     1      -5.230  -2.200 131.814  0.00  0.00    +0.000 C 
BRANCH  80  81
ATOM     81  C   UNL     1      -4.221  -3.047 131.187  0.00  0.00    +0.000 C 
ATOM     82  N   UNL     1      -3.001  -2.623 131.439  0.00  0.00    +0.000 N 
ATOM     83  O   UNL     1      -4.473  -4.028 130.536  0.00  0.00    +0.000 OA
ATOM     84  H   UNL     1      -2.889  -1.616 131.882  0.00  0.00    +0.000 HD
ATOM     85  H   UNL     1      -2.154  -2.958 131.038  0.00  0.00    +0.000 HD
ENDBRANCH  80  81
ENDBRANCH  18  80
BRANCH  22  86
ATOM     86  C   UNL     1      -3.556  -0.310 134.803  0.00  0.00    +0.000 C 
BRANCH  86  87
ATOM     87  C   UNL     1      -2.227  -0.744 134.766  0.00  0.00    +0.000 C 
ATOM     88  N   UNL     1      -1.770  -0.961 136.024  0.00  0.00    +0.000 N 
ATOM     89  O   UNL     1      -1.558  -0.890 133.763  0.00  0.00    +0.000 OA
ATOM     90  H   UNL     1      -2.359  -0.916 136.855  0.00  0.00    +0.000 HD
ATOM     91  H   UNL     1      -0.815  -1.195 136.165  0.00  0.00    +0.000 HD
ENDBRANCH  86  87
ENDBRANCH  22  86
TORSDOF 19
ENDMDL
MODEL 2
REMARK VINA RESULT:      -9.1      1.385      1.661
REMARK  Name = CHEMBL2369839
REMARK  19 active torsions:
REMARK  status: ('A' for Active; 'I' for Inactive)
REMARK    1  A    between atoms: C_2  and  C_4
REMARK    2  A    between atoms: C_4  and  N_5
REMARK    3  A    between atoms: C_6  and  C_8
REMARK    4  A    between atoms: C_8  and  C_9
REMARK    5  A    between atoms: C_8  and  N_16
REMARK    6  A    between atoms: C_9  and  C_10
REMARK    7  A    between atoms: C_10  and  C_11
REMARK    8  A    between atoms: C_11  and  N_12
REMARK    9  A    between atoms: C_17  and  C_19
REMARK   10  A    between atoms: C_24  and  C_26
REMARK   11  A    between atoms: C_35  and  C_36
REMARK   12  A    between atoms: C_36  and  C_37
REMARK   13  A    between atoms: C_40  and  O_41
REMARK   14  A    between atoms: C_47  and  C_48
REMARK   15  A    between atoms: C_48  and  C_49
REMARK   16  A    between atoms: C_58  and  C_59
REMARK   17  A    between atoms: C_59  and  C_60
REMARK   18  A    between atoms: C_66  and  C_67
REMARK   19  A    between atoms: C_67  and  C_68
REMARK                            x       y       z     vdW  Elec       q    Type
REMARK                         _______ _______ _______ _____ _____    ______ ____
ROOT
ATOM      1  C   UNL     1      -6.558  -2.268 132.915  0.00  0.00    +0.000 C 
ATOM      2  C   UNL     1      -7.542  -3.003 130.573  0.00  0.00    +0.000 C 
ATOM      3  S   UNL     1      -7.853  -3.227 127.870  0.00  0.00    +0.000 S 
ATOM      4  S   UNL     1      -8.507  -2.859 125.094  0.00  0.00    +0.000 S 
ATOM      5  C   UNL     1      -7.826  -1.211 124.204  0.00  0.00    +0.000 C 
ATOM      6  C   UNL     1      -8.206  -0.067 123.286  0.00  0.00    +0.000 C 
ATOM      7  C   UNL     1      -7.527   1.303 123.524  0.00  0.00    +0.000 C 
ATOM      8  O   UNL     1      -7.671   2.219 122.718  0.00  0.00    +0.000 OA
ATOM      9  N   UNL     1      -6.788   1.490 124.648  0.00  0.00    +0.000 N 
ATOM     10  C   UNL     1      -6.631   0.471 125.573  0.00  0.00    +0.000 C 
ATOM     11  C   UNL     1      -8.093   0.174 126.328  0.00  0.00    +0.000 C 
ATOM     12  O   UNL     1      -9.172  -0.128 125.773  0.00  0.00    +0.000 OA
ATOM     13  N   UNL     1      -8.296   0.059 127.550  0.00  0.00    +0.000 N 
ATOM     14  C   UNL     1      -7.455   0.279 128.475  0.00  0.00    +0.000 C 
ATOM     15  C   UNL     1      -5.968  -1.017 128.383  0.00  0.00    +0.000 C 
ATOM     16  O   UNL     1      -5.054  -1.166 127.492  0.00  0.00    +0.000 OA
ATOM     17  N   UNL     1      -5.561  -1.571 129.565  0.00  0.00    +0.000 N 
ATOM     18  C   UNL     1      -5.847  -1.005 130.820  0.00  0.00    +0.000 C 
ATOM     19  C   UNL     1      -5.473   0.935 131.329  0.00  0.00    +0.000 C 
ATOM     20  O   UNL     1      -5.537   2.153 130.922  0.00  0.00    +0.000 OA
ATOM     21  N   UNL     1      -5.109   0.950 132.451  0.00  0.00    +0.000 N 
ATOM     22  C   UNL     1      -4.664   0.074 133.356  0.00  0.00    +0.000 C 
ATOM     23  C   UNL     1      -6.246  -0.509 133.303  0.00  0.00    +0.000 C 
ATOM     24  O   UNL     1      -7.184  -0.873 132.572  0.00  0.00    +0.000 OA
ATOM     25  N   UNL     1      -6.464  -1.664 134.546  0.00  0.00    +0.000 N 
ATOM     26  H   UNL     1      -6.291   2.373 124.846  0.00  0.00    +0.000 HD
ATOM     27  H   UNL     1      -9.163  -0.179 127.941  0.00  0.00    +0.000 HD
ATOM     28  H   UNL     1      -4.553  -1.625 129.613  0.00  0.00    +0.000 HD
ATOM     29  H   UNL     1      -5.367   1.937 132.761  0.00  0.00    +0.000 HD
ATOM     30  H   UNL     1      -6.948  -1.814 135.630  0.00  0.00    +0.000 HD
ENDROOT
BRANCH   1  36
ATOM     31  C   UNL     1      -3.569  -1.591 137.578  0.00  0.00    +0.000 C 
ATOM     32  C   UNL     1      -4.094  -2.325 138.973  0.00  0.00    +0.000 C 
ATOM     33  C   UNL     1      -3.812  -1.349 140.026  0.00  0.00    +0.000 C 
ATOM     34  C   UNL     1      -4.189   0.042 138.702  0.00  0.00    +0.000 C 
ATOM     35  N   UNL     1      -4.510  -0.350 136.594  0.00  0.00    +0.000 N 
ATOM     36  C   UNL     1      -5.653  -0.921 134.762  0.00  0.00    +0.000 C 
ATOM     37  O   UNL     1      -5.399   0.438 135.567  0.00  0.00    +0.000 OA
BRANCH  31  39
ATOM     38  N   UNL     1      -4.379  -3.356 136.151  0.00  0.00    +0.000 N 
ATOM     39  C   UNL     1      -3.786  -2.265 136.427  0.00  0.00    +0.000 C 
ATOM     40  O   UNL     1      -3.004  -1.739 135.754  0.00  0.00    +0.000 OA
ATOM     41  H   UNL     1      -5.015  -3.558 136.846  0.00  0.00    +0.000 HD
BRANCH  38  42
ATOM     42  C   UNL     1      -4.471  -4.149 134.995  0.00  0.00    +0.000 C 
BRANCH  42  44
ATOM     43  N   UNL     1      -6.445  -5.177 136.032  0.00  0.00    +0.000 N 
ATOM     44  C   UNL     1      -5.680  -4.981 135.016  0.00  0.00    +0.000 C 
ATOM     45  O   UNL     1      -6.009  -5.668 134.120  0.00  0.00    +0.000 OA
ATOM     46  H   UNL     1      -6.315  -4.501 136.831  0.00  0.00    +0.000 HD
BRANCH  43  47
ATOM     47  C   UNL     1      -7.322  -6.096 136.308  0.00  0.00    +0.000 C 
BRANCH  47  49
ATOM     48  N   UNL     1      -9.697  -4.480 136.600  0.00  0.00    +0.000 N 
ATOM     49  C   UNL     1      -9.258  -5.608 136.312  0.00  0.00    +0.000 C 
ATOM     50  O   UNL     1     -10.241  -6.319 136.009  0.00  0.00    +0.000 OA
ATOM     51  H   UNL     1     -10.723  -4.527 136.638  0.00  0.00    +0.000 HD
ATOM     52  H   UNL     1      -9.128  -3.665 137.518  0.00  0.00    +0.000 HD
ENDBRANCH  47  49
ENDBRANCH  43  47
ENDBRANCH  42  44
BRANCH  42  53
ATOM     53  C   UNL     1      -3.330  -4.871 134.513  0.00  0.00    +0.000 C 
BRANCH  53  54
ATOM     54  C   UNL     1      -2.859  -5.711 135.642  0.00  0.00    +0.000 C 
BRANCH  54  55
ATOM     55  C   UNL     1      -1.374  -5.609 135.769  0.00  0.00    +0.000 C 
BRANCH  55  56
ATOM     56  N   UNL     1      -1.011  -4.335 136.399  0.00  0.00    +0.000 NA
ATOM     57  C   UNL     1      -0.189  -3.544 135.775  0.00  0.00    +0.000 C 
ATOM     58  N   UNL     1       0.353  -3.859 134.540  0.00  0.00    +0.000 N 
ATOM     59  N   UNL     1       0.167  -2.329 136.359  0.00  0.00    +0.000 N 
ATOM     60  H   UNL     1       0.126  -4.741 134.065  0.00  0.00    +0.000 HD
ATOM     61  H   UNL     1       0.994  -3.273 134.024  0.00  0.00    +0.000 HD
ATOM     62  H   UNL     1      -0.204  -2.038 137.277  0.00  0.00    +0.000 HD
ATOM     63  H   UNL     1       0.799  -1.652 135.947  0.00  0.00    +0.000 HD
ENDBRANCH  55  56
ENDBRANCH  54  55
ENDBRANCH  53  54
ENDBRANCH  42  53
ENDBRANCH  38  42
ENDBRANCH  31  39
ENDBRANCH   1  36
BRANCH  10  64
ATOM     64  C   UNL     1      -5.653   1.078 126.339  0.00  0.00    +0.000 C 
BRANCH  64  65
ATOM     65  C   UNL     1      -5.196   2.440 126.515  0.00  0.00    +0.000 A 
ATOM     66  C   UNL     1      -6.149   3.242 126.997  0.00  0.00    +0.000 A 
ATOM     67  C   UNL     1      -5.822   4.506 127.358  0.00  0.00    +0.000 A 
ATOM     68  C   UNL     1      -4.533   4.958 127.185  0.00  0.00    +0.000 A 
ATOM     69  C   UNL     1      -3.577   4.149 126.607  0.00  0.00    +0.000 A 
ATOM     70  C   UNL     1      -3.895   2.876 126.256  0.00  0.00    +0.000 A 
BRANCH  68  71
ATOM     71  O   UNL     1      -4.119   6.200 127.541  0.00  0.00    +0.000 OA
ATOM     72  H   UNL     1      -4.322   6.902 126.903  0.00  0.00    +0.000 HD
ENDBRANCH  68  71
ENDBRANCH  64  65
ENDBRANCH  10  64
BRANCH  14  73
ATOM     73  C   UNL     1      -8.254  -0.200 129.439  0.00  0.00    +0.000 C 
BRANCH  73  74
ATOM     74  C   UNL     1      -8.909   1.618 130.044  0.00  0.00    +0.000 A 
ATOM     75  C   UNL     1      -9.113   1.226 131.265  0.00  0.00    +0.000 A 
ATOM     76  C   UNL     1      -9.888   2.154 131.723  0.00  0.00    +0.000 A 
ATOM     77  C   UNL     1      -9.808   3.491 131.404  0.00  0.00    +0.000 A 
ATOM     78  C   UNL     1      -9.081   3.930 130.354  0.00  0.00    +0.000 A 
ATOM     79  C   UNL     1      -8.439   3.043 129.668  0.00  0.00    +0.000 A 
ENDBRANCH  73  74
ENDBRANCH  14  73
BRANCH  18  80
ATOM     80  C   UNL     1      -5.044  -1.824 131.644  0.00  0.00    +0.000 C 
BRANCH  80  81
ATOM     81  C   UNL     1      -3.762  -2.282 131.121  0.00  0.00    +0.000 C 
ATOM     82  N   UNL     1      -3.602  -3.579 131.284  0.00  0.00    +0.000 N 
ATOM     83  O   UNL     1      -2.956  -1.566 130.585  0.00  0.00    +0.000 OA
ATOM     84  H   UNL     1      -4.310  -4.103 131.951  0.00  0.00    +0.000 HD
ATOM     85  H   UNL     1      -2.776  -4.107 131.116  0.00  0.00    +0.000 HD
ENDBRANCH  80  81
ENDBRANCH  18  80
BRANCH  22  86
ATOM     86  C   UNL     1      -3.893   0.607 134.486  0.00  0.00    +0.000 C 
BRANCH  86  87
ATOM     87  C   UNL     1      -3.236   1.834 134.338  0.00  0.00    +0.000 C 
ATOM     88  N   UNL     1      -3.414   2.596 135.446  0.00  0.00    +0.000 N 
ATOM     89  O   UNL     1      -2.610   2.189 133.360  0.00  0.00    +0.000 OA
ATOM     90  H   UNL     1      -3.870   2.262 136.295  0.00  0.00    +0.000 HD
ATOM     91  H   UNL     1      -3.076   3.530 135.458  0.00  0.00    +0.000 HD
ENDBRANCH  86  87
ENDBRANCH  22  86
TORSDOF 19
ENDMDL
MODEL 3
REMARK VINA RESULT:      -8.9      1.188      1.539
REMARK  Name = CHEMBL2369839
REMARK  19 active torsions:
REMARK  status: ('A' for Active; 'I' for Inactive)
REMARK    1  A    between atoms: C_2  and  C_4
REMARK    2  A    between atoms: C_4  and  N_5
REMARK    3  A    between atoms: C_6  and  C_8
REMARK    4  A    between atoms: C_8  and  C_9
REMARK    5  A    between atoms: C_8  and  N_16
REMARK    6  A    between atoms: C_9  and  C_10
REMARK    7  A    between atoms: C_10  and  C_11
REMARK    8  A    between atoms: C_11  and  N_12
REMARK    9  A    between atoms: C_17  and  C_19
REMARK   10  A    between atoms: C_24  and  C_26
REMARK   11  A    between atoms: C_35  and  C_36
REMARK   12  A    between atoms: C_36  and  C_37
REMARK   13  A    between atoms: C_40  and  O_41
REMARK   14  A    between atoms: C_47  and  C_48
REMARK   15  A    between atoms: C_48  and  C_49
REMARK   16  A    between atoms: C_58  and  C_59
REMARK   17  A    between atoms: C_59  and  C_60
REMARK   18  A    between atoms: C_66  and  C_67
REMARK   19  A    between atoms: C_67  and  C_68
REMARK                            x       y       z     vdW  Elec       q    Type
REMARK                         _______ _______ _______ _____ _____    ______ ____
ROOT
ATOM      1  C   UNL     1      -6.640  -2.410 133.188  0.00  0.00    +0.000 C 
ATOM      2  C   UNL     1      -7.459  -3.162 130.789  0.00  0.00    +0.000 C 
ATOM      3  S   UNL     1      -7.595  -3.388 128.072  0.00  0.00    +0.000 S 
ATOM      4  S   UNL     1      -8.082  -3.030 125.260  0.00  0.00    +0.000 S 
ATOM      5  C   UNL     1      -7.383  -1.366 124.415  0.00  0.00    +0.000 C 
ATOM      6  C   UNL     1      -7.729  -0.229 123.475  0.00  0.00    +0.000 C 
ATOM      7  C   UNL     1      -7.096   1.155 123.756  0.00  0.00    +0.000 C 
ATOM      8  O   UNL     1      -7.209   2.069 122.942  0.00  0.00    +0.000 OA
ATOM      9  N   UNL     1      -6.432   1.356 124.923  0.00  0.00    +0.000 N 
ATOM     10  C   UNL     1      -6.312   0.339 125.856  0.00  0.00    +0.000 C 
ATOM     11  C   UNL     1      -7.812   0.009 126.518  0.00  0.00    +0.000 C 
ATOM     12  O   UNL     1      -8.848  -0.315 125.897  0.00  0.00    +0.000 OA
ATOM     13  N   UNL     1      -8.088  -0.112 127.725  0.00  0.00    +0.000 N 
ATOM     14  C   UNL     1      -7.312   0.125 128.700  0.00  0.00    +0.000 C 
ATOM     15  C   UNL     1      -5.794  -1.139 128.702  0.00  0.00    +0.000 C 
ATOM     16  O   UNL     1      -4.823  -1.267 127.870  0.00  0.00    +0.000 OA
ATOM     17  N   UNL     1      -5.450  -1.686 129.907  0.00  0.00    +0.000 N 
ATOM     18  C   UNL     1      -5.826  -1.128 131.142  0.00  0.00    +0.000 C 
ATOM     19  C   UNL     1      -5.527   0.819 131.673  0.00  0.00    +0.000 C 
ATOM     20  O   UNL     1      -5.591   2.035 131.264  0.00  0.00    +0.000 OA
ATOM     21  N   UNL     1      -5.234   0.839 132.816  0.00  0.00    +0.000 N 
ATOM     22  C   UNL     1      -4.827  -0.028 133.746  0.00  0.00    +0.000 C 
ATOM     23  C   UNL     1      -6.390  -0.645 133.595  0.00  0.00    +0.000 C 
ATOM     24  O   UNL     1      -7.273  -1.028 132.807  0.00  0.00    +0.000 OA
ATOM     25  N   UNL     1      -6.660  -1.807 134.821  0.00  0.00    +0.000 N 
ATOM     26  H   UNL     1      -5.968   2.249 125.152  0.00  0.00    +0.000 HD
ATOM     27  H   UNL     1      -8.973  -0.369 128.061  0.00  0.00    +0.000 HD
ATOM     28  H   UNL     1      -4.446  -1.718 130.017  0.00  0.00    +0.000 HD
ATOM     29  H   UNL     1      -5.532   1.820 133.109  0.00  0.00    +0.000 HD
ATOM     30  H   UNL     1      -7.209  -1.969 135.873  0.00  0.00    +0.000 HD
ENDROOT
BRANCH   1  36
ATOM     31  C   UNL     1      -4.361  -1.746 138.238  0.00  0.00    +0.000 C 
ATOM     32  C   UNL     1      -5.183  -2.320 139.563  0.00  0.00    +0.000 C 
ATOM     33  C   UNL     1      -4.955  -1.310 140.597  0.00  0.00    +0.000 C 
ATOM     34  C   UNL     1      -4.950   0.019 139.161  0.00  0.00    +0.000 C 
ATOM     35  N   UNL     1      -4.980  -0.480 137.052  0.00  0.00    +0.000 N 
ATOM     36  C   UNL     1      -5.880  -1.047 135.088  0.00  0.00    +0.000 C 
ATOM     37  O   UNL     1      -5.595   0.329 135.855  0.00  0.00    +0.000 OA
BRANCH  31  39
ATOM     38  N   UNL     1      -5.040  -3.574 136.822  0.00  0.00    +0.000 N 
ATOM     39  C   UNL     1      -4.474  -2.470 137.103  0.00  0.00    +0.000 C 
ATOM     40  O   UNL     1      -3.634  -1.972 136.481  0.00  0.00    +0.000 OA
ATOM     41  H   UNL     1      -5.737  -3.747 137.464  0.00  0.00    +0.000 HD
BRANCH  38  42
ATOM     42  C   UNL     1      -5.028  -4.416 135.697  0.00  0.00    +0.000 C 
BRANCH  42  44
ATOM     43  N   UNL     1      -7.013  -5.564 136.578  0.00  0.00    +0.000 N 
ATOM     44  C   UNL     1      -6.276  -5.182 135.593  0.00  0.00    +0.000 C 
ATOM     45  O   UNL     1      -6.671  -5.643 134.587  0.00  0.00    +0.000 OA
ATOM     46  H   UNL     1      -6.820  -5.085 137.497  0.00  0.00    +0.000 HD
BRANCH  43  47
ATOM     47  C   UNL     1      -7.924  -6.485 136.689  0.00  0.00    +0.000 C 
BRANCH  47  49
ATOM     48  N   UNL     1     -10.236  -4.759 136.786  0.00  0.00    +0.000 N 
ATOM     49  C   UNL     1      -9.844  -5.937 136.728  0.00  0.00    +0.000 C 
ATOM     50  O   UNL     1     -10.861  -6.662 136.666  0.00  0.00    +0.000 OA
ATOM     51  H   UNL     1     -11.257  -4.758 136.911  0.00  0.00    +0.000 HD
ATOM     52  H   UNL     1      -9.579  -3.781 137.452  0.00  0.00    +0.000 HD
ENDBRANCH  47  49
ENDBRANCH  43  47
ENDBRANCH  42  44
BRANCH  42  53
ATOM     53  C   UNL     1      -3.879  -5.219 135.400  0.00  0.00    +0.000 C 
BRANCH  53  54
ATOM     54  C   UNL     1      -3.149  -4.521 134.314  0.00  0.00    +0.000 C 
BRANCH  54  55
ATOM     55  C   UNL     1      -1.746  -4.240 134.739  0.00  0.00    +0.000 C 
BRANCH  55  56
ATOM     56  N   UNL     1      -1.268  -3.003 134.111  0.00  0.00    +0.000 NA
ATOM     57  C   UNL     1      -0.785  -2.065 134.871  0.00  0.00    +0.000 C 
ATOM     58  N   UNL     1      -0.704  -2.191 136.247  0.00  0.00    +0.000 N 
ATOM     59  N   UNL     1      -0.326  -0.883 134.290  0.00  0.00    +0.000 N 
ATOM     60  H   UNL     1      -1.028  -3.040 136.728  0.00  0.00    +0.000 HD
ATOM     61  H   UNL     1      -0.336  -1.487 136.871  0.00  0.00    +0.000 HD
ATOM     62  H   UNL     1      -0.360  -0.731 133.270  0.00  0.00    +0.000 HD
ATOM     63  H   UNL     1       0.065  -0.101 134.802  0.00  0.00    +0.000 HD
ENDBRANCH  55  56
ENDBRANCH  54  55
ENDBRANCH  53  54
ENDBRANCH  42  53
ENDBRANCH  38  42
ENDBRANCH  31  39
ENDBRANCH   1  36
BRANCH  10  64
ATOM     64  C   UNL     1      -5.397   0.966 126.682  0.00  0.00    +0.000 C 
BRANCH  64  65
ATOM     65  C   UNL     1      -5.105   2.342 127.019  0.00  0.00    +0.000 A 
ATOM     66  C   UNL     1      -3.852   2.690 126.713  0.00  0.00    +0.000 A 
ATOM     67  C   UNL     1      -3.484   3.988 126.830  0.00  0.00    +0.000 A 
ATOM     68  C   UNL     1      -4.385   4.918 127.297  0.00  0.00    +0.000 A 
ATOM     69  C   UNL     1      -5.650   4.534 127.690  0.00  0.00    +0.000 A 
ATOM     70  C   UNL     1      -6.030   3.236 127.562  0.00  0.00    +0.000 A 
BRANCH  68  71
ATOM     71  O   UNL     1      -4.104   6.240 127.421  0.00  0.00    +0.000 OA
ATOM     72  H   UNL     1      -3.944   6.708 126.588  0.00  0.00    +0.000 HD
ENDBRANCH  68  71
ENDBRANCH  64  65
ENDBRANCH  10  64
BRANCH  14  73
ATOM     73  C   UNL     1      -8.159  -0.373 129.613  0.00  0.00    +0.000 C 
BRANCH  73  74
ATOM     74  C   UNL     1      -8.894   1.429 130.171  0.00  0.00    +0.000 A 
ATOM     75  C   UNL     1      -9.114   1.050 131.393  0.00  0.00    +0.000 A 
ATOM     76  C   UNL     1      -9.934   1.955 131.816  0.00  0.00    +0.000 A 
ATOM     77  C   UNL     1      -9.894   3.288 131.477  0.00  0.00    +0.000 A 
ATOM     78  C   UNL     1      -9.158   3.737 130.438  0.00  0.00    +0.000 A 
ATOM     79  C   UNL     1      -8.468   2.864 129.782  0.00  0.00    +0.000 A 
ENDBRANCH  73  74
ENDBRANCH  14  73
BRANCH  18  80
ATOM     80  C   UNL     1      -5.059  -1.931 132.014  0.00  0.00    +0.000 C 
BRANCH  80  81
ATOM     81  C   UNL     1      -3.874  -2.594 131.479  0.00  0.00    +0.000 C 
ATOM     82  N   UNL     1      -2.788  -1.871 131.655  0.00  0.00    +0.000 N 
ATOM     83  O   UNL     1      -3.884  -3.680 130.960  0.00  0.00    +0.000 OA
ATOM     84  H   UNL     1      -2.917  -0.819 131.967  0.00  0.00    +0.000 HD
ATOM     85  H   UNL     1      -1.882  -2.050 131.284  0.00  0.00    +0.000 HD
ENDBRANCH  80  81
ENDBRANCH  18  80
BRANCH  22  86
ATOM     86  C   UNL     1      -4.140   0.520 134.923  0.00  0.00    +0.000 C 
BRANCH  86  87
ATOM     87  C   UNL     1      -3.463   1.738 134.804  0.00  0.00    +0.000 C 
ATOM     88  N   UNL     1      -3.445   2.382 135.998  0.00  0.00    +0.000 N 
ATOM     89  O   UNL     1      -2.974   2.180 133.785  0.00  0.00    +0.000 OA
ATOM     90  H   UNL     1      -3.784   1.970 136.868  0.00  0.00    +0.000 HD
ATOM     91  H   UNL     1      -3.071   3.300 136.055  0.00  0.00    +0.000 HD
ENDBRANCH  86  87
ENDBRANCH  22  86
TORSDOF 19
ENDMDL
MODEL 4
REMARK VINA RESULT:      -8.7      3.860      8.811
REMARK  Name = CHEMBL2369839
REMARK  19 active torsions:
REMARK  status: ('A' for Active; 'I' for Inactive)
REMARK    1  A    between atoms: C_2  and  C_4
REMARK    2  A    between atoms: C_4  and  N_5
REMARK    3  A    between atoms: C_6  and  C_8
REMARK    4  A    between atoms: C_8  and  C_9
REMARK    5  A    between atoms: C_8  and  N_16
REMARK    6  A    between atoms: C_9  and  C_10
REMARK    7  A    between atoms: C_10  and  C_11
REMARK    8  A    between atoms: C_11  and  N_12
REMARK    9  A    between atoms: C_17  and  C_19
REMARK   10  A    between atoms: C_24  and  C_26
REMARK   11  A    between atoms: C_35  and  C_36
REMARK   12  A    between atoms: C_36  and  C_37
REMARK   13  A    between atoms: C_40  and  O_41
REMARK   14  A    between atoms: C_47  and  C_48
REMARK   15  A    between atoms: C_48  and  C_49
REMARK   16  A    between atoms: C_58  and  C_59
REMARK   17  A    between atoms: C_59  and  C_60
REMARK   18  A    between atoms: C_66  and  C_67
REMARK   19  A    between atoms: C_67  and  C_68
REMARK                            x       y       z     vdW  Elec       q    Type
REMARK                         _______ _______ _______ _____ _____    ______ ____
ROOT
ATOM      1  C   UNL     1      -4.493   0.402 130.268  0.00  0.00    +0.000 C 
ATOM      2  C   UNL     1      -4.162   1.276 132.742  0.00  0.00    +0.000 C 
ATOM      3  S   UNL     1      -4.727   2.355 135.185  0.00  0.00    +0.000 S 
ATOM      4  S   UNL     1      -5.245   4.088 137.421  0.00  0.00    +0.000 S 
ATOM      5  C   UNL     1      -6.757   5.374 137.250  0.00  0.00    +0.000 C 
ATOM      6  C   UNL     1      -7.175   6.813 137.478  0.00  0.00    +0.000 C 
ATOM      7  C   UNL     1      -8.197   7.430 136.494  0.00  0.00    +0.000 C 
ATOM      8  O   UNL     1      -8.694   8.531 136.719  0.00  0.00    +0.000 OA
ATOM      9  N   UNL     1      -8.523   6.751 135.364  0.00  0.00    +0.000 N 
ATOM     10  C   UNL     1      -7.958   5.517 135.090  0.00  0.00    +0.000 C 
ATOM     11  C   UNL     1      -6.331   5.709 134.759  0.00  0.00    +0.000 C 
ATOM     12  O   UNL     1      -5.475   6.238 135.502  0.00  0.00    +0.000 OA
ATOM     13  N   UNL     1      -5.698   5.225 133.803  0.00  0.00    +0.000 N 
ATOM     14  C   UNL     1      -6.192   4.602 132.814  0.00  0.00    +0.000 C 
ATOM     15  C   UNL     1      -7.013   2.906 133.404  0.00  0.00    +0.000 C 
ATOM     16  O   UNL     1      -8.046   2.698 134.140  0.00  0.00    +0.000 OA
ATOM     17  N   UNL     1      -6.752   1.800 132.644  0.00  0.00    +0.000 N 
ATOM     18  C   UNL     1      -6.295   1.867 131.316  0.00  0.00    +0.000 C 
ATOM     19  C   UNL     1      -7.178   2.964 129.840  0.00  0.00    +0.000 C 
ATOM     20  O   UNL     1      -7.722   4.094 129.561  0.00  0.00    +0.000 OA
ATOM     21  N   UNL     1      -7.116   2.339 128.841  0.00  0.00    +0.000 N 
ATOM     22  C   UNL     1      -6.861   1.079 128.479  0.00  0.00    +0.000 C 
ATOM     23  C   UNL     1      -5.296   1.439 128.994  0.00  0.00    +0.000 C 
ATOM     24  O   UNL     1      -4.598   1.922 129.904  0.00  0.00    +0.000 OA
ATOM     25  N   UNL     1      -4.250   0.157 128.561  0.00  0.00    +0.000 N 
ATOM     26  H   UNL     1      -9.218   7.101 134.686  0.00  0.00    +0.000 HD
ATOM     27  H   UNL     1      -4.728   5.316 133.687  0.00  0.00    +0.000 HD
ATOM     28  H   UNL     1      -7.583   1.238 132.524  0.00  0.00    +0.000 HD
ATOM     29  H   UNL     1      -7.163   3.099 128.094  0.00  0.00    +0.000 HD
ATOM     30  H   UNL     1      -3.407  -0.156 127.770  0.00  0.00    +0.000 HD
ENDROOT
BRANCH   1  36
ATOM     31  C   UNL     1      -6.115  -2.432 125.743  0.00  0.00    +0.000 C 
ATOM     32  C   UNL     1      -5.047  -3.498 125.047  0.00  0.00    +0.000 C 
ATOM     33  C   UNL     1      -5.262  -3.340 123.608  0.00  0.00    +0.000 C 
ATOM     34  C   UNL     1      -5.645  -1.456 123.970  0.00  0.00    +0.000 C 
ATOM     35  N   UNL     1      -5.842  -0.624 125.962  0.00  0.00    +0.000 N 
ATOM     36  C   UNL     1      -5.156   0.237 127.906  0.00  0.00    +0.000 C 
ATOM     37  O   UNL     1      -5.514   0.828 126.463  0.00  0.00    +0.000 OA
BRANCH  31  39
ATOM     38  N   UNL     1      -5.249  -2.746 127.970  0.00  0.00    +0.000 N 
ATOM     39  C   UNL     1      -6.065  -2.327 127.089  0.00  0.00    +0.000 C 
ATOM     40  O   UNL     1      -7.159  -2.002 127.290  0.00  0.00    +0.000 OA
ATOM     41  H   UNL     1      -4.391  -2.904 127.560  0.00  0.00    +0.000 HD
BRANCH  38  42
ATOM     42  C   UNL     1      -5.268  -2.788 129.374  0.00  0.00    +0.000 C 
BRANCH  42  44
ATOM     43  N   UNL     1      -3.584  -2.532 131.144  0.00  0.00    +0.000 N 
ATOM     44  C   UNL     1      -3.907  -2.791 129.924  0.00  0.00    +0.000 C 
ATOM     45  O   UNL     1      -2.942  -2.908 129.264  0.00  0.00    +0.000 OA
ATOM     46  H   UNL     1      -4.381  -2.553 131.835  0.00  0.00    +0.000 HD
BRANCH  43  47
ATOM     47  C   UNL     1      -2.464  -2.179 131.701  0.00  0.00    +0.000 C 
BRANCH  47  49
ATOM     48  N   UNL     1      -1.585  -1.044 134.206  0.00  0.00    +0.000 N 
ATOM     49  C   UNL     1      -2.458  -1.732 133.647  0.00  0.00    +0.000 C 
ATOM     50  O   UNL     1      -3.302  -2.035 134.518  0.00  0.00    +0.000 OA
ATOM     51  H   UNL     1      -1.752  -1.063 135.220  0.00  0.00    +0.000 HD
ATOM     52  H   UNL     1      -0.282  -1.044 133.842  0.00  0.00    +0.000 HD
ENDBRANCH  47  49
ENDBRANCH  43  47
ENDBRANCH  42  44
BRANCH  42  53
ATOM     53  C   UNL     1      -6.128  -3.703 130.065  0.00  0.00    +0.000 C 
BRANCH  53  54
ATOM     54  C   UNL     1      -5.280  -4.850 130.471  0.00  0.00    +0.000 C 
BRANCH  54  55
ATOM     55  C   UNL     1      -5.612  -5.263 131.867  0.00  0.00    +0.000 C 
BRANCH  55  56
ATOM     56  N   UNL     1      -5.705  -4.081 132.731  0.00  0.00    +0.000 NA
ATOM     57  C   UNL     1      -6.071  -4.242 133.968  0.00  0.00    +0.000 C 
ATOM     58  N   UNL     1      -6.374  -5.485 134.499  0.00  0.00    +0.000 N 
ATOM     59  N   UNL     1      -6.165  -3.130 134.804  0.00  0.00    +0.000 N 
ATOM     60  H   UNL     1      -6.323  -6.337 133.928  0.00  0.00    +0.000 HD
ATOM     61  H   UNL     1      -6.662  -5.651 135.453  0.00  0.00    +0.000 HD
ATOM     62  H   UNL     1      -5.951  -2.177 134.467  0.00  0.00    +0.000 HD
ATOM     63  H   UNL     1      -6.441  -3.159 135.778  0.00  0.00    +0.000 HD
ENDBRANCH  55  56
ENDBRANCH  54  55
ENDBRANCH  53  54
ENDBRANCH  42  53
ENDBRANCH  38  42
ENDBRANCH  31  39
ENDBRANCH   1  36
BRANCH  10  64
ATOM     64  C   UNL     1      -8.771   5.186 134.021  0.00  0.00    +0.000 C 
BRANCH  64  65
ATOM     65  C   UNL     1      -9.308   5.908 132.888  0.00  0.00    +0.000 A 
ATOM     66  C   UNL     1      -8.352   6.399 132.094  0.00  0.00    +0.000 A 
ATOM     67  C   UNL     1      -8.706   6.965 130.915  0.00  0.00    +0.000 A 
ATOM     68  C   UNL     1     -10.036   7.062 130.571  0.00  0.00    +0.000 A 
ATOM     69  C   UNL     1     -11.018   6.628 131.436  0.00  0.00    +0.000 A 
ATOM     70  C   UNL     1     -10.670   6.048 132.614  0.00  0.00    +0.000 A 
BRANCH  68  71
ATOM     71  O   UNL     1     -10.472   7.592 129.401  0.00  0.00    +0.000 OA
ATOM     72  H   UNL     1     -11.401   7.868 129.392  0.00  0.00    +0.000 HD
ENDBRANCH  68  71
ENDBRANCH  64  65
ENDBRANCH  10  64
BRANCH  14  73
ATOM     73  C   UNL     1      -4.994   4.240 132.329  0.00  0.00    +0.000 C 
BRANCH  73  74
ATOM     74  C   UNL     1      -4.565   6.060 131.551  0.00  0.00    +0.000 A 
ATOM     75  C   UNL     1      -3.300   5.970 131.835  0.00  0.00    +0.000 A 
ATOM     76  C   UNL     1      -2.914   7.201 131.751  0.00  0.00    +0.000 A 
ATOM     77  C   UNL     1      -3.379   8.123 130.841  0.00  0.00    +0.000 A 
ATOM     78  C   UNL     1      -4.501   7.908 130.119  0.00  0.00    +0.000 A 
ATOM     79  C   UNL     1      -5.112   6.785 130.299  0.00  0.00    +0.000 A 
ENDBRANCH  73  74
ENDBRANCH  14  73
BRANCH  18  80
ATOM     80  C   UNL     1      -6.396   0.506 130.955  0.00  0.00    +0.000 C 
BRANCH  80  81
ATOM     81  C   UNL     1      -7.337  -0.334 131.688  0.00  0.00    +0.000 C 
ATOM     82  N   UNL     1      -8.536  -0.317 131.145  0.00  0.00    +0.000 N 
ATOM     83  O   UNL     1      -7.047  -0.984 132.660  0.00  0.00    +0.000 OA
ATOM     84  H   UNL     1      -8.739   0.453 130.378  0.00  0.00    +0.000 HD
ATOM     85  H   UNL     1      -9.369  -0.713 131.516  0.00  0.00    +0.000 HD
ENDBRANCH  80  81
ENDBRANCH  18  80
BRANCH  22  86
ATOM     86  C   UNL     1      -7.344   0.647 127.161  0.00  0.00    +0.000 C 
BRANCH  86  87
ATOM     87  C   UNL     1      -8.584   1.110 126.709  0.00  0.00    +0.000 C 
ATOM     88  N   UNL     1      -9.311   0.083 126.203  0.00  0.00    +0.000 N 
ATOM     89  O   UNL     1      -8.963   2.263 126.739  0.00  0.00    +0.000 OA
ATOM     90  H   UNL     1      -9.023  -0.894 126.256  0.00  0.00    +0.000 HD
ATOM     91  H   UNL     1     -10.184   0.268 125.767  0.00  0.00    +0.000 HD
ENDBRANCH  86  87
ENDBRANCH  22  86
TORSDOF 19
ENDMDL
MODEL 5
REMARK VINA RESULT:      -8.5      1.927      2.445
REMARK  Name = CHEMBL2369839
REMARK  19 active torsions:
REMARK  status: ('A' for Active; 'I' for Inactive)
REMARK    1  A    between atoms: C_2  and  C_4
REMARK    2  A    between atoms: C_4  and  N_5
REMARK    3  A    between atoms: C_6  and  C_8
REMARK    4  A    between atoms: C_8  and  C_9
REMARK    5  A    between atoms: C_8  and  N_16
REMARK    6  A    between atoms: C_9  and  C_10
REMARK    7  A    between atoms: C_10  and  C_11
REMARK    8  A    between atoms: C_11  and  N_12
REMARK    9  A    between atoms: C_17  and  C_19
REMARK   10  A    between atoms: C_24  and  C_26
REMARK   11  A    between atoms: C_35  and  C_36
REMARK   12  A    between atoms: C_36  and  C_37
REMARK   13  A    between atoms: C_40  and  O_41
REMARK   14  A    between atoms: C_47  and  C_48
REMARK   15  A    between atoms: C_48  and  C_49
REMARK   16  A    between atoms: C_58  and  C_59
REMARK   17  A    between atoms: C_59  and  C_60
REMARK   18  A    between atoms: C_66  and  C_67
REMARK   19  A    between atoms: C_67  and  C_68
REMARK                            x       y       z     vdW  Elec       q    Type
REMARK                         _______ _______ _______ _____ _____    ______ ____
ROOT
ATOM      1  C   UNL     1      -6.461  -0.944 133.426  0.00  0.00    +0.000 C 
ATOM      2  C   UNL     1      -7.454  -2.153 131.293  0.00  0.00    +0.000 C 
ATOM      3  S   UNL     1      -7.760  -2.958 128.703  0.00  0.00    +0.000 S 
ATOM      4  S   UNL     1      -8.393  -3.194 125.907  0.00  0.00    +0.000 S 
ATOM      5  C   UNL     1      -7.668  -1.799 124.684  0.00  0.00    +0.000 C 
ATOM      6  C   UNL     1      -8.015  -0.876 123.533  0.00  0.00    +0.000 C 
ATOM      7  C   UNL     1      -7.304   0.497 123.471  0.00  0.00    +0.000 C 
ATOM      8  O   UNL     1      -7.421   1.216 122.482  0.00  0.00    +0.000 OA
ATOM      9  N   UNL     1      -6.564   0.909 124.532  0.00  0.00    +0.000 N 
ATOM     10  C   UNL     1      -6.437   0.115 125.660  0.00  0.00    +0.000 C 
ATOM     11  C   UNL     1      -7.909   0.025 126.449  0.00  0.00    +0.000 C 
ATOM     12  O   UNL     1      -8.993  -0.366 125.964  0.00  0.00    +0.000 OA
ATOM     13  N   UNL     1      -8.119   0.186 127.665  0.00  0.00    +0.000 N 
ATOM     14  C   UNL     1      -7.277   0.585 128.526  0.00  0.00    +0.000 C 
ATOM     15  C   UNL     1      -5.822  -0.734 128.735  0.00  0.00    +0.000 C 
ATOM     16  O   UNL     1      -4.908  -1.097 127.907  0.00  0.00    +0.000 OA
ATOM     17  N   UNL     1      -5.434  -1.024 130.013  0.00  0.00    +0.000 N 
ATOM     18  C   UNL     1      -5.711  -0.189 131.111  0.00  0.00    +0.000 C 
ATOM     19  C   UNL     1      -5.291   1.806 131.184  0.00  0.00    +0.000 C 
ATOM     20  O   UNL     1      -5.322   2.906 130.520  0.00  0.00    +0.000 OA
ATOM     21  N   UNL     1      -4.931   2.058 132.279  0.00  0.00    +0.000 N 
ATOM     22  C   UNL     1      -4.511   1.393 133.358  0.00  0.00    +0.000 C 
ATOM     23  C   UNL     1      -6.107   0.850 133.421  0.00  0.00    +0.000 C 
ATOM     24  O   UNL     1      -7.051   0.356 132.779  0.00  0.00    +0.000 OA
ATOM     25  N   UNL     1      -6.358   0.001 134.884  0.00  0.00    +0.000 N 
ATOM     26  H   UNL     1      -6.047   1.801 124.537  0.00  0.00    +0.000 HD
ATOM     27  H   UNL     1      -8.994   0.061 128.090  0.00  0.00    +0.000 HD
ATOM     28  H   UNL     1      -4.428  -1.089 130.081  0.00  0.00    +0.000 HD
ATOM     29  H   UNL     1      -5.165   3.095 132.362  0.00  0.00    +0.000 HD
ATOM     30  H   UNL     1      -6.851   0.105 135.971  0.00  0.00    +0.000 HD
ENDROOT
BRANCH   1  36
ATOM     31  C   UNL     1      -4.267   0.731 138.275  0.00  0.00    +0.000 C 
ATOM     32  C   UNL     1      -5.224   0.698 139.634  0.00  0.00    +0.000 C 
ATOM     33  C   UNL     1      -4.850   1.907 140.370  0.00  0.00    +0.000 C 
ATOM     34  C   UNL     1      -4.555   2.757 138.632  0.00  0.00    +0.000 C 
ATOM     35  N   UNL     1      -4.606   1.695 136.743  0.00  0.00    +0.000 N 
ATOM     36  C   UNL     1      -5.530   0.755 134.940  0.00  0.00    +0.000 C 
ATOM     37  O   UNL     1      -5.024   2.223 135.324  0.00  0.00    +0.000 OA
BRANCH  31  39
ATOM     38  N   UNL     1      -5.258  -1.255 137.335  0.00  0.00    +0.000 N 
ATOM     39  C   UNL     1      -4.473  -0.255 137.374  0.00  0.00    +0.000 C 
ATOM     40  O   UNL     1      -3.505  -0.140 136.749  0.00  0.00    +0.000 OA
ATOM     41  H   UNL     1      -6.014  -1.090 137.909  0.00  0.00    +0.000 HD
BRANCH  38  42
ATOM     42  C   UNL     1      -5.370  -2.373 136.493  0.00  0.00    +0.000 C 
BRANCH  42  44
ATOM     43  N   UNL     1      -7.576  -2.842 137.465  0.00  0.00    +0.000 N 
ATOM     44  C   UNL     1      -6.740  -2.901 136.488  0.00  0.00    +0.000 C 
ATOM     45  O   UNL     1      -7.178  -3.558 135.617  0.00  0.00    +0.000 OA
ATOM     46  H   UNL     1      -7.329  -2.158 138.229  0.00  0.00    +0.000 HD
BRANCH  43  47
ATOM     47  C   UNL     1      -8.655  -3.512 137.741  0.00  0.00    +0.000 C 
BRANCH  47  49
ATOM     48  N   UNL     1     -11.495  -2.994 137.712  0.00  0.00    +0.000 N 
ATOM     49  C   UNL     1     -10.373  -2.520 137.964  0.00  0.00    +0.000 C 
ATOM     50  O   UNL     1     -10.552  -1.361 138.397  0.00  0.00    +0.000 OA
ATOM     51  H   UNL     1     -12.195  -2.246 137.800  0.00  0.00    +0.000 HD
ATOM     52  H   UNL     1     -11.729  -3.881 136.717  0.00  0.00    +0.000 HD
ENDBRANCH  47  49
ENDBRANCH  43  47
ENDBRANCH  42  44
BRANCH  42  53
ATOM     53  C   UNL     1      -4.392  -3.420 136.536  0.00  0.00    +0.000 C 
BRANCH  53  54
ATOM     54  C   UNL     1      -3.670  -3.372 135.241  0.00  0.00    +0.000 C 
BRANCH  54  55
ATOM     55  C   UNL     1      -3.483  -4.755 134.709  0.00  0.00    +0.000 C 
BRANCH  55  56
ATOM     56  N   UNL     1      -3.834  -4.797 133.285  0.00  0.00    +0.000 NA
ATOM     57  C   UNL     1      -5.039  -5.151 132.950  0.00  0.00    +0.000 C 
ATOM     58  N   UNL     1      -6.003  -5.487 133.887  0.00  0.00    +0.000 N 
ATOM     59  N   UNL     1      -5.390  -5.196 131.602  0.00  0.00    +0.000 N 
ATOM     60  H   UNL     1      -5.799  -5.472 134.894  0.00  0.00    +0.000 HD
ATOM     61  H   UNL     1      -6.949  -5.766 133.669  0.00  0.00    +0.000 HD
ATOM     62  H   UNL     1      -4.716  -4.956 130.857  0.00  0.00    +0.000 HD
ATOM     63  H   UNL     1      -6.303  -5.459 131.249  0.00  0.00    +0.000 HD
ENDBRANCH  55  56
ENDBRANCH  54  55
ENDBRANCH  53  54
ENDBRANCH  42  53
ENDBRANCH  38  42
ENDBRANCH  31  39
ENDBRANCH   1  36
BRANCH  10  64
ATOM     64  C   UNL     1      -5.447   0.852 126.283  0.00  0.00    +0.000 C 
BRANCH  64  65
ATOM     65  C   UNL     1      -5.270   2.251 126.607  0.00  0.00    +0.000 A 
ATOM     66  C   UNL     1      -4.138   2.483 127.277  0.00  0.00    +0.000 A 
ATOM     67  C   UNL     1      -3.765   3.764 127.512  0.00  0.00    +0.000 A 
ATOM     68  C   UNL     1      -4.570   4.801 127.097  0.00  0.00    +0.000 A 
ATOM     69  C   UNL     1      -5.778   4.549 126.481  0.00  0.00    +0.000 A 
ATOM     70  C   UNL     1      -6.152   3.267 126.230  0.00  0.00    +0.000 A 
BRANCH  68  71
ATOM     71  O   UNL     1      -4.258   6.110 127.272  0.00  0.00    +0.000 OA
ATOM     72  H   UNL     1      -4.130   6.617 126.456  0.00  0.00    +0.000 HD
ENDBRANCH  68  71
ENDBRANCH  64  65
ENDBRANCH  10  64
BRANCH  14  73
ATOM     73  C   UNL     1      -8.092   0.348 129.565  0.00  0.00    +0.000 C 
BRANCH  73  74
ATOM     74  C   UNL     1      -8.779   2.249 129.684  0.00  0.00    +0.000 A 
ATOM     75  C   UNL     1      -9.267   2.082 130.876  0.00  0.00    +0.000 A 
ATOM     76  C   UNL     1     -10.082   3.080 130.979  0.00  0.00    +0.000 A 
ATOM     77  C   UNL     1      -9.871   4.339 130.463  0.00  0.00    +0.000 A 
ATOM     78  C   UNL     1      -8.909   4.580 129.546  0.00  0.00    +0.000 A 
ATOM     79  C   UNL     1      -8.173   3.582 129.186  0.00  0.00    +0.000 A 
ENDBRANCH  73  74
ENDBRANCH  14  73
BRANCH  18  80
ATOM     80  C   UNL     1      -4.932  -0.826 132.102  0.00  0.00    +0.000 C 
BRANCH  80  81
ATOM     81  C   UNL     1      -3.823  -1.671 131.671  0.00  0.00    +0.000 C 
ATOM     82  N   UNL     1      -2.700  -1.355 132.282  0.00  0.00    +0.000 N 
ATOM     83  O   UNL     1      -3.927  -2.565 130.871  0.00  0.00    +0.000 OA
ATOM     84  H   UNL     1      -2.675  -0.406 132.848  0.00  0.00    +0.000 HD
ATOM     85  H   UNL     1      -1.791  -1.704 132.083  0.00  0.00    +0.000 HD
ENDBRANCH  80  81
ENDBRANCH  18  80
BRANCH  22  86
ATOM     86  C   UNL     1      -3.731   2.143 134.351  0.00  0.00    +0.000 C 
BRANCH  86  87
ATOM     87  C   UNL     1      -2.978   3.243 133.928  0.00  0.00    +0.000 C 
ATOM     88  N   UNL     1      -3.176   4.295 134.762  0.00  0.00    +0.000 N 
ATOM     89  O   UNL     1      -2.261   3.277 132.948  0.00  0.00    +0.000 OA
ATOM     90  H   UNL     1      -3.712   4.236 135.627  0.00  0.00    +0.000 HD
ATOM     91  H   UNL     1      -2.771   5.176 134.545  0.00  0.00    +0.000 HD
ENDBRANCH  86  87
ENDBRANCH  22  86
TORSDOF 19
ENDMDL
MODEL 6
REMARK VINA RESULT:      -8.4      5.117     10.423
REMARK  Name = CHEMBL2369839
REMARK  19 active torsions:
REMARK  status: ('A' for Active; 'I' for Inactive)
REMARK    1  A    between atoms: C_2  and  C_4
REMARK    2  A    between atoms: C_4  and  N_5
REMARK    3  A    between atoms: C_6  and  C_8
REMARK    4  A    between atoms: C_8  and  C_9
REMARK    5  A    between atoms: C_8  and  N_16
REMARK    6  A    between atoms: C_9  and  C_10
REMARK    7  A    between atoms: C_10  and  C_11
REMARK    8  A    between atoms: C_11  and  N_12
REMARK    9  A    between atoms: C_17  and  C_19
REMARK   10  A    between atoms: C_24  and  C_26
REMARK   11  A    between atoms: C_35  and  C_36
REMARK   12  A    between atoms: C_36  and  C_37
REMARK   13  A    between atoms: C_40  and  O_41
REMARK   14  A    between atoms: C_47  and  C_48
REMARK   15  A    between atoms: C_48  and  C_49
REMARK   16  A    between atoms: C_58  and  C_59
REMARK   17  A    between atoms: C_59  and  C_60
REMARK   18  A    between atoms: C_66  and  C_67
REMARK   19  A    between atoms: C_67  and  C_68
REMARK                            x       y       z     vdW  Elec       q    Type
REMARK                         _______ _______ _______ _____ _____    ______ ____
ROOT
ATOM      1  C   UNL     1      -5.040   2.159 131.031  0.00  0.00    +0.000 C 
ATOM      2  C   UNL     1      -4.058   1.753 133.452  0.00  0.00    +0.000 C 
ATOM      3  S   UNL     1      -3.746   1.908 136.160  0.00  0.00    +0.000 S 
ATOM      4  S   UNL     1      -3.088   2.657 138.858  0.00  0.00    +0.000 S 
ATOM      5  C   UNL     1      -3.759   4.416 139.508  0.00  0.00    +0.000 C 
ATOM      6  C   UNL     1      -3.372   5.676 140.257  0.00  0.00    +0.000 C 
ATOM      7  C   UNL     1      -4.043   7.003 139.830  0.00  0.00    +0.000 C 
ATOM      8  O   UNL     1      -3.894   8.022 140.500  0.00  0.00    +0.000 OA
ATOM      9  N   UNL     1      -4.783   7.035 138.691  0.00  0.00    +0.000 N 
ATOM     10  C   UNL     1      -4.945   5.897 137.918  0.00  0.00    +0.000 C 
ATOM     11  C   UNL     1      -3.486   5.489 137.212  0.00  0.00    +0.000 C 
ATOM     12  O   UNL     1      -2.408   5.262 137.803  0.00  0.00    +0.000 OA
ATOM     13  N   UNL     1      -3.285   5.203 136.017  0.00  0.00    +0.000 N 
ATOM     14  C   UNL     1      -4.125   5.297 135.071  0.00  0.00    +0.000 C 
ATOM     15  C   UNL     1      -5.619   4.035 135.343  0.00  0.00    +0.000 C 
ATOM     16  O   UNL     1      -6.534   4.016 136.247  0.00  0.00    +0.000 OA
ATOM     17  N   UNL     1      -6.030   3.324 134.251  0.00  0.00    +0.000 N 
ATOM     18  C   UNL     1      -5.742   3.707 132.929  0.00  0.00    +0.000 C 
ATOM     19  C   UNL     1      -6.106   5.559 132.154  0.00  0.00    +0.000 C 
ATOM     20  O   UNL     1      -6.035   6.821 132.386  0.00  0.00    +0.000 OA
ATOM     21  N   UNL     1      -6.470   5.418 131.040  0.00  0.00    +0.000 N 
ATOM     22  C   UNL     1      -6.922   4.427 130.267  0.00  0.00    +0.000 C 
ATOM     23  C   UNL     1      -5.343   3.848 130.400  0.00  0.00    +0.000 C 
ATOM     24  O   UNL     1      -4.406   3.585 131.175  0.00  0.00    +0.000 OA
ATOM     25  N   UNL     1      -5.132   2.530 129.332  0.00  0.00    +0.000 N 
ATOM     26  H   UNL     1      -5.275   7.884 138.372  0.00  0.00    +0.000 HD
ATOM     27  H   UNL     1      -2.419   4.909 135.663  0.00  0.00    +0.000 HD
ATOM     28  H   UNL     1      -7.038   3.269 134.211  0.00  0.00    +0.000 HD
ATOM     29  H   UNL     1      -6.208   6.351 130.596  0.00  0.00    +0.000 HD
ATOM     30  H   UNL     1      -4.649   2.227 128.279  0.00  0.00    +0.000 HD
ENDROOT
BRANCH   1  36
ATOM     31  C   UNL     1      -7.752   2.118 126.154  0.00  0.00    +0.000 C 
ATOM     32  C   UNL     1      -7.064   1.319 124.869  0.00  0.00    +0.000 C 
ATOM     33  C   UNL     1      -7.364   2.166 123.713  0.00  0.00    +0.000 C 
ATOM     34  C   UNL     1      -7.213   3.699 124.920  0.00  0.00    +0.000 C 
ATOM     35  N   UNL     1      -7.002   3.529 127.070  0.00  0.00    +0.000 N 
ATOM     36  C   UNL     1      -5.940   3.240 129.013  0.00  0.00    +0.000 C 
ATOM     37  O   UNL     1      -6.265   4.490 128.070  0.00  0.00    +0.000 OA
BRANCH  31  39
ATOM     38  N   UNL     1      -6.845   0.601 127.793  0.00  0.00    +0.000 N 
ATOM     39  C   UNL     1      -7.551   1.573 127.374  0.00  0.00    +0.000 C 
ATOM     40  O   UNL     1      -8.454   2.034 127.934  0.00  0.00    +0.000 OA
ATOM     41  H   UNL     1      -6.128   0.437 127.172  0.00  0.00    +0.000 HD
BRANCH  38  42
ATOM     42  C   UNL     1      -6.753  -0.078 129.020  0.00  0.00    +0.000 C 
BRANCH  42  44
ATOM     43  N   UNL     1      -4.907  -1.135 130.247  0.00  0.00    +0.000 N 
ATOM     44  C   UNL     1      -5.469  -0.778 129.145  0.00  0.00    +0.000 C 
ATOM     45  O   UNL     1      -4.749  -0.977 128.238  0.00  0.00    +0.000 OA
ATOM     46  H   UNL     1      -5.533  -1.128 131.095  0.00  0.00    +0.000 HD
BRANCH  43  47
ATOM     47  C   UNL     1      -3.682  -1.448 130.547  0.00  0.00    +0.000 C 
BRANCH  47  49
ATOM     48  N   UNL     1      -2.032  -1.754 132.897  0.00  0.00    +0.000 N 
ATOM     49  C   UNL     1      -3.198  -1.701 132.468  0.00  0.00    +0.000 C 
ATOM     50  O   UNL     1      -3.958  -1.800 133.456  0.00  0.00    +0.000 OA
ATOM     51  H   UNL     1      -2.059  -2.004 133.894  0.00  0.00    +0.000 HD
ATOM     52  H   UNL     1      -1.000  -2.287 132.203  0.00  0.00    +0.000 HD
ENDBRANCH  47  49
ENDBRANCH  43  47
ENDBRANCH  42  44
BRANCH  42  53
ATOM     53  C   UNL     1      -7.846  -0.872 129.498  0.00  0.00    +0.000 C 
BRANCH  53  54
ATOM     54  C   UNL     1      -7.986  -2.005 128.551  0.00  0.00    +0.000 C 
BRANCH  54  55
ATOM     55  C   UNL     1      -7.999  -3.297 129.299  0.00  0.00    +0.000 C 
BRANCH  55  56
ATOM     56  N   UNL     1      -7.616  -3.072 130.697  0.00  0.00    +0.000 NA
ATOM     57  C   UNL     1      -6.616  -3.745 131.186  0.00  0.00    +0.000 C 
ATOM     58  N   UNL     1      -5.900  -4.662 130.435  0.00  0.00    +0.000 N 
ATOM     59  N   UNL     1      -6.238  -3.543 132.512  0.00  0.00    +0.000 N 
ATOM     60  H   UNL     1      -6.136  -4.851 129.453  0.00  0.00    +0.000 HD
ATOM     61  H   UNL     1      -5.119  -5.204 130.777  0.00  0.00    +0.000 HD
ATOM     62  H   UNL     1      -6.732  -2.871 133.122  0.00  0.00    +0.000 HD
ATOM     63  H   UNL     1      -5.474  -4.020 132.976  0.00  0.00    +0.000 HD
ENDBRANCH  55  56
ENDBRANCH  54  55
ENDBRANCH  53  54
ENDBRANCH  42  53
ENDBRANCH  38  42
ENDBRANCH  31  39
ENDBRANCH   1  36
BRANCH  10  64
ATOM     64  C   UNL     1      -5.921   6.397 137.075  0.00  0.00    +0.000 C 
BRANCH  64  65
ATOM     65  C   UNL     1      -6.956   7.400 137.197  0.00  0.00    +0.000 A 
ATOM     66  C   UNL     1      -8.184   6.874 137.180  0.00  0.00    +0.000 A 
ATOM     67  C   UNL     1      -9.245   7.675 137.440  0.00  0.00    +0.000 A 
ATOM     68  C   UNL     1      -9.050   9.018 137.676  0.00  0.00    +0.000 A 
ATOM     69  C   UNL     1      -7.787   9.566 137.608  0.00  0.00    +0.000 A 
ATOM     70  C   UNL     1      -6.717   8.766 137.361  0.00  0.00    +0.000 A 
BRANCH  68  71
ATOM     71  O   UNL     1     -10.055   9.882 137.966  0.00  0.00    +0.000 OA
ATOM     72  H   UNL     1      -9.810  10.820 137.953  0.00  0.00    +0.000 HD
ENDBRANCH  68  71
ENDBRANCH  64  65
ENDBRANCH  10  64
BRANCH  14  73
ATOM     73  C   UNL     1      -3.329   4.683 134.183  0.00  0.00    +0.000 C 
BRANCH  73  74
ATOM     74  C   UNL     1      -2.326   6.362 133.658  0.00  0.00    +0.000 A 
ATOM     75  C   UNL     1      -1.385   5.704 133.051  0.00  0.00    +0.000 A 
ATOM     76  C   UNL     1      -0.445   6.588 132.967  0.00  0.00    +0.000 A 
ATOM     77  C   UNL     1      -0.634   7.934 132.748  0.00  0.00    +0.000 A 
ATOM     78  C   UNL     1      -1.846   8.514 132.880  0.00  0.00    +0.000 A 
ATOM     79  C   UNL     1      -2.836   7.748 133.199  0.00  0.00    +0.000 A 
ENDBRANCH  73  74
ENDBRANCH  14  73
BRANCH  18  80
ATOM     80  C   UNL     1      -6.550   2.785 132.228  0.00  0.00    +0.000 C 
BRANCH  80  81
ATOM     81  C   UNL     1      -7.875   2.484 132.760  0.00  0.00    +0.000 C 
ATOM     82  N   UNL     1      -8.138   1.195 132.717  0.00  0.00    +0.000 N 
ATOM     83  O   UNL     1      -8.628   3.311 133.205  0.00  0.00    +0.000 OA
ATOM     84  H   UNL     1      -7.464   0.554 132.121  0.00  0.00    +0.000 HD
ATOM     85  H   UNL     1      -9.007   0.753 132.915  0.00  0.00    +0.000 HD
ENDBRANCH  80  81
ENDBRANCH  18  80
BRANCH  22  86
ATOM     86  C   UNL     1      -7.691   4.801 129.074  0.00  0.00    +0.000 C 
BRANCH  86  87
ATOM     87  C   UNL     1      -9.025   5.194 129.224  0.00  0.00    +0.000 C 
ATOM     88  N   UNL     1      -9.596   4.525 130.257  0.00  0.00    +0.000 N 
ATOM     89  O   UNL     1      -9.609   6.000 128.529  0.00  0.00    +0.000 OA
ATOM     90  H   UNL     1      -9.080   3.912 130.888  0.00  0.00    +0.000 HD
ATOM     91  H   UNL     1     -10.567   4.636 130.436  0.00  0.00    +0.000 HD
ENDBRANCH  86  87
ENDBRANCH  22  86
TORSDOF 19
ENDMDL
MODEL 7
REMARK VINA RESULT:      -8.3      5.129     10.497
REMARK  Name = CHEMBL2369839
REMARK  19 active torsions:
REMARK  status: ('A' for Active; 'I' for Inactive)
REMARK    1  A    between atoms: C_2  and  C_4
REMARK    2  A    between atoms: C_4  and  N_5
REMARK    3  A    between atoms: C_6  and  C_8
REMARK    4  A    between atoms: C_8  and  C_9
REMARK    5  A    between atoms: C_8  and  N_16
REMARK    6  A    between atoms: C_9  and  C_10
REMARK    7  A    between atoms: C_10  and  C_11
REMARK    8  A    between atoms: C_11  and  N_12
REMARK    9  A    between atoms: C_17  and  C_19
REMARK   10  A    between atoms: C_24  and  C_26
REMARK   11  A    between atoms: C_35  and  C_36
REMARK   12  A    between atoms: C_36  and  C_37
REMARK   13  A    between atoms: C_40  and  O_41
REMARK   14  A    between atoms: C_47  and  C_48
REMARK   15  A    between atoms: C_48  and  C_49
REMARK   16  A    between atoms: C_58  and  C_59
REMARK   17  A    between atoms: C_59  and  C_60
REMARK   18  A    between atoms: C_66  and  C_67
REMARK   19  A    between atoms: C_67  and  C_68
REMARK                            x       y       z     vdW  Elec       q    Type
REMARK                         _______ _______ _______ _____ _____    ______ ____
ROOT
ATOM      1  C   UNL     1      -4.828   1.765 131.402  0.00  0.00    +0.000 C 
ATOM      2  C   UNL     1      -3.962   1.465 133.883  0.00  0.00    +0.000 C 
ATOM      3  S   UNL     1      -3.752   1.767 136.588  0.00  0.00    +0.000 S 
ATOM      4  S   UNL     1      -3.173   2.647 139.264  0.00  0.00    +0.000 S 
ATOM      5  C   UNL     1      -3.798   4.466 139.784  0.00  0.00    +0.000 C 
ATOM      6  C   UNL     1      -3.391   5.752 140.476  0.00  0.00    +0.000 C 
ATOM      7  C   UNL     1      -3.991   7.076 139.945  0.00  0.00    +0.000 C 
ATOM      8  O   UNL     1      -3.828   8.126 140.562  0.00  0.00    +0.000 OA
ATOM      9  N   UNL     1      -4.683   7.069 138.776  0.00  0.00    +0.000 N 
ATOM     10  C   UNL     1      -4.860   5.895 138.063  0.00  0.00    +0.000 C 
ATOM     11  C   UNL     1      -3.391   5.391 137.443  0.00  0.00    +0.000 C 
ATOM     12  O   UNL     1      -2.347   5.159 138.092  0.00  0.00    +0.000 OA
ATOM     13  N   UNL     1      -3.153   5.028 136.277  0.00  0.00    +0.000 N 
ATOM     14  C   UNL     1      -3.951   5.098 135.293  0.00  0.00    +0.000 C 
ATOM     15  C   UNL     1      -5.504   3.911 135.573  0.00  0.00    +0.000 C 
ATOM     16  O   UNL     1      -6.454   3.980 136.436  0.00  0.00    +0.000 OA
ATOM     17  N   UNL     1      -5.899   3.153 134.506  0.00  0.00    +0.000 N 
ATOM     18  C   UNL     1      -5.544   3.447 133.178  0.00  0.00    +0.000 C 
ATOM     19  C   UNL     1      -5.801   5.263 132.284  0.00  0.00    +0.000 C 
ATOM     20  O   UNL     1      -5.689   6.533 132.446  0.00  0.00    +0.000 OA
ATOM     21  N   UNL     1      -6.126   5.071 131.166  0.00  0.00    +0.000 N 
ATOM     22  C   UNL     1      -6.586   4.054 130.432  0.00  0.00    +0.000 C 
ATOM     23  C   UNL     1      -5.038   3.425 130.664  0.00  0.00    +0.000 C 
ATOM     24  O   UNL     1      -4.144   3.172 131.492  0.00  0.00    +0.000 OA
ATOM     25  N   UNL     1      -4.838   2.039 129.683  0.00  0.00    +0.000 N 
ATOM     26  H   UNL     1      -5.127   7.916 138.388  0.00  0.00    +0.000 HD
ATOM     27  H   UNL     1      -2.287   4.681 135.977  0.00  0.00    +0.000 HD
ATOM     28  H   UNL     1      -6.906   3.135 134.427  0.00  0.00    +0.000 HD
ATOM     29  H   UNL     1      -5.809   5.965 130.680  0.00  0.00    +0.000 HD
ATOM     30  H   UNL     1      -4.326   1.657 128.670  0.00  0.00    +0.000 HD
ENDROOT
BRANCH   1  36
ATOM     31  C   UNL     1      -7.291   1.527 126.401  0.00  0.00    +0.000 C 
ATOM     32  C   UNL     1      -6.556   0.652 125.194  0.00  0.00    +0.000 C 
ATOM     33  C   UNL     1      -6.779   1.445 123.984  0.00  0.00    +0.000 C 
ATOM     34  C   UNL     1      -6.657   3.034 125.119  0.00  0.00    +0.000 C 
ATOM     35  N   UNL     1      -6.560   2.968 127.284  0.00  0.00    +0.000 N 
ATOM     36  C   UNL     1      -5.603   2.759 129.291  0.00  0.00    +0.000 C 
ATOM     37  O   UNL     1      -5.854   3.966 128.271  0.00  0.00    +0.000 OA
BRANCH  31  39
ATOM     38  N   UNL     1      -6.515   0.067 128.154  0.00  0.00    +0.000 N 
ATOM     39  C   UNL     1      -7.163   1.040 127.655  0.00  0.00    +0.000 C 
ATOM     40  O   UNL     1      -8.070   1.565 128.149  0.00  0.00    +0.000 OA
ATOM     41  H   UNL     1      -5.778  -0.156 127.575  0.00  0.00    +0.000 HD
BRANCH  38  42
ATOM     42  C   UNL     1      -6.501  -0.548 129.417  0.00  0.00    +0.000 C 
BRANCH  42  44
ATOM     43  N   UNL     1      -4.727  -1.613 130.740  0.00  0.00    +0.000 N 
ATOM     44  C   UNL     1      -5.280  -1.340 129.610  0.00  0.00    +0.000 C 
ATOM     45  O   UNL     1      -4.598  -1.705 128.725  0.00  0.00    +0.000 OA
ATOM     46  H   UNL     1      -5.333  -1.452 131.589  0.00  0.00    +0.000 HD
BRANCH  43  47
ATOM     47  C   UNL     1      -3.528  -1.996 131.062  0.00  0.00    +0.000 C 
BRANCH  47  49
ATOM     48  N   UNL     1      -1.850  -1.902 133.411  0.00  0.00    +0.000 N 
ATOM     49  C   UNL     1      -3.015  -2.029 132.992  0.00  0.00    +0.000 C 
ATOM     50  O   UNL     1      -3.756  -2.139 133.993  0.00  0.00    +0.000 OA
ATOM     51  H   UNL     1      -1.846  -2.071 134.425  0.00  0.00    +0.000 HD
ATOM     52  H   UNL     1      -0.762  -2.360 132.751  0.00  0.00    +0.000 HD
ENDBRANCH  47  49
ENDBRANCH  43  47
ENDBRANCH  42  44
BRANCH  42  53
ATOM     53  C   UNL     1      -7.663  -1.226 129.911  0.00  0.00    +0.000 C 
BRANCH  53  54
ATOM     54  C   UNL     1      -7.633  -2.590 129.326  0.00  0.00    +0.000 C 
BRANCH  54  55
ATOM     55  C   UNL     1      -8.433  -2.623 128.066  0.00  0.00    +0.000 C 
BRANCH  55  56
ATOM     56  N   UNL     1      -7.540  -2.703 126.906  0.00  0.00    +0.000 NA
ATOM     57  C   UNL     1      -8.063  -2.880 125.728  0.00  0.00    +0.000 C 
ATOM     58  N   UNL     1      -9.429  -2.993 125.531  0.00  0.00    +0.000 N 
ATOM     59  N   UNL     1      -7.229  -2.957 124.614  0.00  0.00    +0.000 N 
ATOM     60  H   UNL     1     -10.089  -2.945 126.316  0.00  0.00    +0.000 HD
ATOM     61  H   UNL     1      -9.873  -3.131 124.634  0.00  0.00    +0.000 HD
ATOM     62  H   UNL     1      -6.202  -2.878 124.697  0.00  0.00    +0.000 HD
ATOM     63  H   UNL     1      -7.546  -3.092 123.661  0.00  0.00    +0.000 HD
ENDBRANCH  55  56
ENDBRANCH  54  55
ENDBRANCH  53  54
ENDBRANCH  42  53
ENDBRANCH  38  42
ENDBRANCH  31  39
ENDBRANCH   1  36
BRANCH  10  64
ATOM     64  C   UNL     1      -5.780   6.381 137.152  0.00  0.00    +0.000 C 
BRANCH  64  65
ATOM     65  C   UNL     1      -6.844   7.359 137.204  0.00  0.00    +0.000 A 
ATOM     66  C   UNL     1      -8.056   6.804 137.116  0.00  0.00    +0.000 A 
ATOM     67  C   UNL     1      -9.150   7.581 137.304  0.00  0.00    +0.000 A 
ATOM     68  C   UNL     1      -9.001   8.929 137.541  0.00  0.00    +0.000 A 
ATOM     69  C   UNL     1      -7.750   9.508 137.545  0.00  0.00    +0.000 A 
ATOM     70  C   UNL     1      -6.648   8.732 137.371  0.00  0.00    +0.000 A 
BRANCH  68  71
ATOM     71  O   UNL     1     -10.042   9.771 137.763  0.00  0.00    +0.000 OA
ATOM     72  H   UNL     1     -10.919   9.361 137.732  0.00  0.00    +0.000 HD
ENDBRANCH  68  71
ENDBRANCH  64  65
ENDBRANCH  10  64
BRANCH  14  73
ATOM     73  C   UNL     1      -3.145   4.403 134.475  0.00  0.00    +0.000 C 
BRANCH  73  74
ATOM     74  C   UNL     1      -2.181   6.032 133.755  0.00  0.00    +0.000 A 
ATOM     75  C   UNL     1      -1.614   5.368 132.793  0.00  0.00    +0.000 A 
ATOM     76  C   UNL     1      -0.658   6.163 132.441  0.00  0.00    +0.000 A 
ATOM     77  C   UNL     1      -0.731   7.538 132.415  0.00  0.00    +0.000 A 
ATOM     78  C   UNL     1      -1.728   8.209 133.031  0.00  0.00    +0.000 A 
ATOM     79  C   UNL     1      -2.632   7.506 133.629  0.00  0.00    +0.000 A 
ENDBRANCH  73  74
ENDBRANCH  14  73
BRANCH  18  80
ATOM     80  C   UNL     1      -6.359   2.517 132.497  0.00  0.00    +0.000 C 
BRANCH  80  81
ATOM     81  C   UNL     1      -7.703   2.272 133.009  0.00  0.00    +0.000 C 
ATOM     82  N   UNL     1      -8.051   1.008 132.887  0.00  0.00    +0.000 N 
ATOM     83  O   UNL     1      -8.401   3.119 133.505  0.00  0.00    +0.000 OA
ATOM     84  H   UNL     1      -7.418   0.362 132.252  0.00  0.00    +0.000 HD
ATOM     85  H   UNL     1      -8.948   0.614 133.057  0.00  0.00    +0.000 HD
ENDBRANCH  80  81
ENDBRANCH  18  80
BRANCH  22  86
ATOM     86  C   UNL     1      -7.291   4.386 129.187  0.00  0.00    +0.000 C 
BRANCH  86  87
ATOM     87  C   UNL     1      -8.651   4.709 129.246  0.00  0.00    +0.000 C 
ATOM     88  N   UNL     1      -9.312   3.811 130.019  0.00  0.00    +0.000 N 
ATOM     89  O   UNL     1      -9.183   5.640 128.677  0.00  0.00    +0.000 OA
ATOM     90  H   UNL     1      -8.848   3.081 130.560  0.00  0.00    +0.000 HD
ATOM     91  H   UNL     1     -10.301   3.860 130.090  0.00  0.00    +0.000 HD
ENDBRANCH  86  87
ENDBRANCH  22  86
TORSDOF 19
ENDMDL
MODEL 8
REMARK VINA RESULT:      -8.1      3.564     11.023
REMARK  Name = CHEMBL2369839
REMARK  19 active torsions:
REMARK  status: ('A' for Active; 'I' for Inactive)
REMARK    1  A    between atoms: C_2  and  C_4
REMARK    2  A    between atoms: C_4  and  N_5
REMARK    3  A    between atoms: C_6  and  C_8
REMARK    4  A    between atoms: C_8  and  C_9
REMARK    5  A    between atoms: C_8  and  N_16
REMARK    6  A    between atoms: C_9  and  C_10
REMARK    7  A    between atoms: C_10  and  C_11
REMARK    8  A    between atoms: C_11  and  N_12
REMARK    9  A    between atoms: C_17  and  C_19
REMARK   10  A    between atoms: C_24  and  C_26
REMARK   11  A    between atoms: C_35  and  C_36
REMARK   12  A    between atoms: C_36  and  C_37
REMARK   13  A    between atoms: C_40  and  O_41
REMARK   14  A    between atoms: C_47  and  C_48
REMARK   15  A    between atoms: C_48  and  C_49
REMARK   16  A    between atoms: C_58  and  C_59
REMARK   17  A    between atoms: C_59  and  C_60
REMARK   18  A    between atoms: C_66  and  C_67
REMARK   19  A    between atoms: C_67  and  C_68
REMARK                            x       y       z     vdW  Elec       q    Type
REMARK                         _______ _______ _______ _____ _____    ______ ____
ROOT
ATOM      1  C   UNL     1      -4.265   1.714 131.587  0.00  0.00    +0.000 C 
ATOM      2  C   UNL     1      -4.638  -0.901 131.725  0.00  0.00    +0.000 C 
ATOM      3  S   UNL     1      -5.499  -3.332 132.619  0.00  0.00    +0.000 S 
ATOM      4  S   UNL     1      -5.865  -5.837 133.983  0.00  0.00    +0.000 S 
ATOM      5  C   UNL     1      -6.102  -5.776 135.960  0.00  0.00    +0.000 C 
ATOM      6  C   UNL     1      -5.673  -6.412 137.267  0.00  0.00    +0.000 C 
ATOM      7  C   UNL     1      -5.591  -5.504 138.517  0.00  0.00    +0.000 C 
ATOM      8  O   UNL     1      -5.408  -5.990 139.631  0.00  0.00    +0.000 OA
ATOM      9  N   UNL     1      -5.702  -4.159 138.368  0.00  0.00    +0.000 N 
ATOM     10  C   UNL     1      -5.892  -3.597 137.116  0.00  0.00    +0.000 C 
ATOM     11  C   UNL     1      -4.510  -3.799 136.197  0.00  0.00    +0.000 C 
ATOM     12  O   UNL     1      -3.947  -4.882 135.925  0.00  0.00    +0.000 OA
ATOM     13  N   UNL     1      -3.923  -2.932 135.525  0.00  0.00    +0.000 N 
ATOM     14  C   UNL     1      -4.180  -1.690 135.514  0.00  0.00    +0.000 C 
ATOM     15  C   UNL     1      -5.976  -1.361 134.761  0.00  0.00    +0.000 C 
ATOM     16  O   UNL     1      -7.136  -1.667 135.222  0.00  0.00    +0.000 OA
ATOM     17  N   UNL     1      -6.088  -0.336 133.863  0.00  0.00    +0.000 N 
ATOM     18  C   UNL     1      -5.143   0.699 133.753  0.00  0.00    +0.000 C 
ATOM     19  C   UNL     1      -4.474   1.828 135.315  0.00  0.00    +0.000 C 
ATOM     20  O   UNL     1      -4.082   1.792 136.539  0.00  0.00    +0.000 OA
ATOM     21  N   UNL     1      -4.343   2.936 134.929  0.00  0.00    +0.000 N 
ATOM     22  C   UNL     1      -4.723   3.666 133.878  0.00  0.00    +0.000 C 
ATOM     23  C   UNL     1      -3.664   2.664 133.029  0.00  0.00    +0.000 C 
ATOM     24  O   UNL     1      -3.311   1.492 132.809  0.00  0.00    +0.000 OA
ATOM     25  N   UNL     1      -3.478   3.260 131.436  0.00  0.00    +0.000 N 
ATOM     26  H   UNL     1      -5.682  -3.507 139.167  0.00  0.00    +0.000 HD
ATOM     27  H   UNL     1      -3.149  -3.116 134.952  0.00  0.00    +0.000 HD
ATOM     28  H   UNL     1      -6.929   0.199 134.026  0.00  0.00    +0.000 HD
ATOM     29  H   UNL     1      -3.611   3.325 135.600  0.00  0.00    +0.000 HD
ATOM     30  H   UNL     1      -2.722   3.862 130.729  0.00  0.00    +0.000 HD
ENDROOT
BRANCH   1  36
ATOM     31  C   UNL     1      -4.757   7.231 130.907  0.00  0.00    +0.000 C 
ATOM     32  C   UNL     1      -4.129   7.921 129.532  0.00  0.00    +0.000 C 
ATOM     33  C   UNL     1      -3.563   9.191 129.989  0.00  0.00    +0.000 C 
ATOM     34  C   UNL     1      -3.137   8.283 131.670  0.00  0.00    +0.000 C 
ATOM     35  N   UNL     1      -3.805   6.282 132.166  0.00  0.00    +0.000 N 
ATOM     36  C   UNL     1      -3.768   4.049 132.178  0.00  0.00    +0.000 C 
ATOM     37  O   UNL     1      -3.105   5.202 133.067  0.00  0.00    +0.000 OA
BRANCH  31  39
ATOM     38  N   UNL     1      -5.318   5.160 129.809  0.00  0.00    +0.000 N 
ATOM     39  C   UNL     1      -5.283   5.993 130.769  0.00  0.00    +0.000 C 
ATOM     40  O   UNL     1      -5.994   5.992 131.684  0.00  0.00    +0.000 OA
ATOM     41  H   UNL     1      -4.596   5.344 129.200  0.00  0.00    +0.000 HD
BRANCH  38  42
ATOM     42  C   UNL     1      -5.997   3.948 129.596  0.00  0.00    +0.000 C 
BRANCH  42  44
ATOM     43  N   UNL     1      -5.644   4.245 127.184  0.00  0.00    +0.000 N 
ATOM     44  C   UNL     1      -5.849   3.492 128.208  0.00  0.00    +0.000 C 
ATOM     45  O   UNL     1      -6.031   2.382 127.869  0.00  0.00    +0.000 OA
ATOM     46  H   UNL     1      -5.329   5.227 127.401  0.00  0.00    +0.000 HD
BRANCH  43  47
ATOM     47  C   UNL     1      -5.811   4.057 125.909  0.00  0.00    +0.000 C 
BRANCH  47  49
ATOM     48  N   UNL     1      -7.976   3.804 124.015  0.00  0.00    +0.000 N 
ATOM     49  C   UNL     1      -7.651   4.204 125.148  0.00  0.00    +0.000 C 
ATOM     50  O   UNL     1      -8.682   4.660 125.687  0.00  0.00    +0.000 OA
ATOM     51  H   UNL     1      -8.942   4.102 123.827  0.00  0.00    +0.000 HD
ATOM     52  H   UNL     1      -7.151   3.832 122.944  0.00  0.00    +0.000 HD
ENDBRANCH  47  49
ENDBRANCH  43  47
ENDBRANCH  42  44
BRANCH  42  53
ATOM     53  C   UNL     1      -7.334   3.767 130.080  0.00  0.00    +0.000 C 
BRANCH  53  54
ATOM     54  C   UNL     1      -8.160   4.818 129.437  0.00  0.00    +0.000 C 
BRANCH  54  55
ATOM     55  C   UNL     1      -9.140   5.369 130.419  0.00  0.00    +0.000 C 
BRANCH  55  56
ATOM     56  N   UNL     1      -9.088   4.601 131.667  0.00  0.00    +0.000 NA
ATOM     57  C   UNL     1      -9.843   4.971 132.659  0.00  0.00    +0.000 C 
ATOM     58  N   UNL     1     -10.695   6.060 132.579  0.00  0.00    +0.000 N 
ATOM     59  N   UNL     1      -9.805   4.252 133.853  0.00  0.00    +0.000 N 
ATOM     60  H   UNL     1     -10.762   6.625 131.724  0.00  0.00    +0.000 HD
ATOM     61  H   UNL     1     -11.296   6.379 133.325  0.00  0.00    +0.000 HD
ATOM     62  H   UNL     1      -9.192   3.430 133.973  0.00  0.00    +0.000 HD
ATOM     63  H   UNL     1     -10.357   4.466 134.675  0.00  0.00    +0.000 HD
ENDBRANCH  55  56
ENDBRANCH  54  55
ENDBRANCH  53  54
ENDBRANCH  42  53
ENDBRANCH  38  42
ENDBRANCH  31  39
ENDBRANCH   1  36
BRANCH  10  64
ATOM     64  C   UNL     1      -6.168  -2.310 137.542  0.00  0.00    +0.000 C 
BRANCH  64  65
ATOM     65  C   UNL     1      -7.063  -1.731 138.519  0.00  0.00    +0.000 A 
ATOM     66  C   UNL     1      -6.433  -0.919 139.373  0.00  0.00    +0.000 A 
ATOM     67  C   UNL     1      -7.167  -0.187 140.245  0.00  0.00    +0.000 A 
ATOM     68  C   UNL     1      -8.538  -0.319 140.269  0.00  0.00    +0.000 A 
ATOM     69  C   UNL     1      -9.171  -1.223 139.442  0.00  0.00    +0.000 A 
ATOM     70  C   UNL     1      -8.442  -1.950 138.555  0.00  0.00    +0.000 A 
BRANCH  68  71
ATOM     71  O   UNL     1      -9.346   0.393 141.094  0.00  0.00    +0.000 OA
ATOM     72  H   UNL     1      -9.549   1.293 140.798  0.00  0.00    +0.000 HD
ENDBRANCH  68  71
ENDBRANCH  64  65
ENDBRANCH  10  64
BRANCH  14  73
ATOM     73  C   UNL     1      -3.342  -1.434 134.498  0.00  0.00    +0.000 C 
BRANCH  73  74
ATOM     74  C   UNL     1      -1.658  -1.728 135.582  0.00  0.00    +0.000 A 
ATOM     75  C   UNL     1      -0.875  -1.551 134.561  0.00  0.00    +0.000 A 
ATOM     76  C   UNL     1       0.235  -2.069 134.975  0.00  0.00    +0.000 A 
ATOM     77  C   UNL     1       0.714  -2.003 136.264  0.00  0.00    +0.000 A 
ATOM     78  C   UNL     1      -0.071  -1.629 137.297  0.00  0.00    +0.000 A 
ATOM     79  C   UNL     1      -1.292  -1.309 137.025  0.00  0.00    +0.000 A 
ENDBRANCH  73  74
ENDBRANCH  14  73
BRANCH  18  80
ATOM     80  C   UNL     1      -5.828   1.560 132.868  0.00  0.00    +0.000 C 
BRANCH  80  81
ATOM     81  C   UNL     1      -7.285   1.592 132.925  0.00  0.00    +0.000 C 
ATOM     82  N   UNL     1      -7.830   0.997 131.884  0.00  0.00    +0.000 N 
ATOM     83  O   UNL     1      -7.915   2.082 133.826  0.00  0.00    +0.000 OA
ATOM     84  H   UNL     1      -7.170   0.753 131.031  0.00  0.00    +0.000 HD
ATOM     85  H   UNL     1      -8.793   0.984 131.637  0.00  0.00    +0.000 HD
ENDBRANCH  80  81
ENDBRANCH  18  80
BRANCH  22  86
ATOM     86  C   UNL     1      -4.717   5.126 134.035  0.00  0.00    +0.000 C 
BRANCH  86  87
ATOM     87  C   UNL     1      -5.449   5.697 135.082  0.00  0.00    +0.000 C 
ATOM     88  N   UNL     1      -6.744   5.860 134.714  0.00  0.00    +0.000 N 
ATOM     89  O   UNL     1      -5.001   6.023 136.163  0.00  0.00    +0.000 OA
ATOM     90  H   UNL     1      -7.131   5.509 133.838  0.00  0.00    +0.000 HD
ATOM     91  H   UNL     1      -7.371   6.330 135.324  0.00  0.00    +0.000 HD
ENDBRANCH  86  87
ENDBRANCH  22  86
TORSDOF 19
ENDMDL
MODEL 9
REMARK VINA RESULT:      -8.0      1.389      3.372
REMARK  Name = CHEMBL2369839
REMARK  19 active torsions:
REMARK  status: ('A' for Active; 'I' for Inactive)
REMARK    1  A    between atoms: C_2  and  C_4
REMARK    2  A    between atoms: C_4  and  N_5
REMARK    3  A    between atoms: C_6  and  C_8
REMARK    4  A    between atoms: C_8  and  C_9
REMARK    5  A    between atoms: C_8  and  N_16
REMARK    6  A    between atoms: C_9  and  C_10
REMARK    7  A    between atoms: C_10  and  C_11
REMARK    8  A    between atoms: C_11  and  N_12
REMARK    9  A    between atoms: C_17  and  C_19
REMARK   10  A    between atoms: C_24  and  C_26
REMARK   11  A    between atoms: C_35  and  C_36
REMARK   12  A    between atoms: C_36  and  C_37
REMARK   13  A    between atoms: C_40  and  O_41
REMARK   14  A    between atoms: C_47  and  C_48
REMARK   15  A    between atoms: C_48  and  C_49
REMARK   16  A    between atoms: C_58  and  C_59
REMARK   17  A    between atoms: C_59  and  C_60
REMARK   18  A    between atoms: C_66  and  C_67
REMARK   19  A    between atoms: C_67  and  C_68
REMARK                            x       y       z     vdW  Elec       q    Type
REMARK                         _______ _______ _______ _____ _____    ______ ____
ROOT
ATOM      1  C   UNL     1      -6.743  -2.828 132.955  0.00  0.00    +0.000 C 
ATOM      2  C   UNL     1      -7.865  -3.054 130.572  0.00  0.00    +0.000 C 
ATOM      3  S   UNL     1      -8.235  -2.857 127.874  0.00  0.00    +0.000 S 
ATOM      4  S   UNL     1      -8.831  -2.012 125.190  0.00  0.00    +0.000 S 
ATOM      5  C   UNL     1      -7.862  -0.415 124.498  0.00  0.00    +0.000 C 
ATOM      6  C   UNL     1      -8.029   0.891 123.747  0.00  0.00    +0.000 C 
ATOM      7  C   UNL     1      -7.105   2.069 124.137  0.00  0.00    +0.000 C 
ATOM      8  O   UNL     1      -7.081   3.094 123.460  0.00  0.00    +0.000 OA
ATOM      9  N   UNL     1      -6.334   1.967 125.250  0.00  0.00    +0.000 N 
ATOM     10  C   UNL     1      -6.363   0.824 126.031  0.00  0.00    +0.000 C 
ATOM     11  C   UNL     1      -7.849   0.703 126.789  0.00  0.00    +0.000 C 
ATOM     12  O   UNL     1      -8.970   0.681 126.236  0.00  0.00    +0.000 OA
ATOM     13  N   UNL     1      -8.060   0.467 127.993  0.00  0.00    +0.000 N 
ATOM     14  C   UNL     1      -7.185   0.405 128.910  0.00  0.00    +0.000 C 
ATOM     15  C   UNL     1      -5.966  -1.119 128.604  0.00  0.00    +0.000 C 
ATOM     16  O   UNL     1      -5.103  -1.315 127.672  0.00  0.00    +0.000 OA
ATOM     17  N   UNL     1      -5.661  -1.889 129.692  0.00  0.00    +0.000 N 
ATOM     18  C   UNL     1      -5.825  -1.451 131.017  0.00  0.00    +0.000 C 
ATOM     19  C   UNL     1      -5.092   0.303 131.758  0.00  0.00    +0.000 C 
ATOM     20  O   UNL     1      -4.931   1.554 131.514  0.00  0.00    +0.000 OA
ATOM     21  N   UNL     1      -4.723   0.101 132.861  0.00  0.00    +0.000 N 
ATOM     22  C   UNL     1      -4.441  -0.953 133.631  0.00  0.00    +0.000 C 
ATOM     23  C   UNL     1      -6.105  -1.223 133.556  0.00  0.00    +0.000 C 
ATOM     24  O   UNL     1      -7.101  -1.309 132.815  0.00  0.00    +0.000 OA
ATOM     25  N   UNL     1      -6.524  -2.472 134.646  0.00  0.00    +0.000 N 
ATOM     26  H   UNL     1      -5.680   2.709 125.544  0.00  0.00    +0.000 HD
ATOM     27  H   UNL     1      -8.953   0.343 128.378  0.00  0.00    +0.000 HD
ATOM     28  H   UNL     1      -4.680  -2.133 129.699  0.00  0.00    +0.000 HD
ATOM     29  H   UNL     1      -4.789   1.069 133.303  0.00  0.00    +0.000 HD
ATOM     30  H   UNL     1      -7.019  -2.672 135.717  0.00  0.00    +0.000 HD
ENDROOT
BRANCH   1  36
ATOM     31  C   UNL     1      -4.396  -3.305 137.996  0.00  0.00    +0.000 C 
ATOM     32  C   UNL     1      -5.368  -3.669 139.293  0.00  0.00    +0.000 C 
ATOM     33  C   UNL     1      -4.825  -2.865 140.389  0.00  0.00    +0.000 C 
ATOM     34  C   UNL     1      -4.377  -1.513 139.047  0.00  0.00    +0.000 C 
ATOM     35  N   UNL     1      -4.559  -1.826 136.910  0.00  0.00    +0.000 N 
ATOM     36  C   UNL     1      -5.587  -1.926 134.930  0.00  0.00    +0.000 C 
ATOM     37  O   UNL     1      -4.869  -0.778 135.782  0.00  0.00    +0.000 OA
BRANCH  31  39
ATOM     38  N   UNL     1      -5.452  -4.873 136.500  0.00  0.00    +0.000 N 
ATOM     39  C   UNL     1      -4.736  -3.870 136.816  0.00  0.00    +0.000 C 
ATOM     40  O   UNL     1      -3.935  -3.380 136.138  0.00  0.00    +0.000 OA
ATOM     41  H   UNL     1      -6.073  -5.058 137.213  0.00  0.00    +0.000 HD
BRANCH  38  42
ATOM     42  C   UNL     1      -5.679  -5.568 135.301  0.00  0.00    +0.000 C 
BRANCH  42  44
ATOM     43  N   UNL     1      -3.332  -5.933 134.677  0.00  0.00    +0.000 N 
ATOM     44  C   UNL     1      -4.512  -5.492 134.413  0.00  0.00    +0.000 C 
ATOM     45  O   UNL     1      -4.507  -4.896 133.400  0.00  0.00    +0.000 OA
ATOM     46  H   UNL     1      -3.271  -6.600 135.491  0.00  0.00    +0.000 HD
BRANCH  43  47
ATOM     47  C   UNL     1      -2.162  -5.669 134.175  0.00  0.00    +0.000 C 
BRANCH  47  49
ATOM     48  N   UNL     1       0.015  -3.836 134.660  0.00  0.00    +0.000 N 
ATOM     49  C   UNL     1      -0.942  -4.443 135.172  0.00  0.00    +0.000 C 
ATOM     50  O   UNL     1      -0.989  -4.107 136.376  0.00  0.00    +0.000 OA
ATOM     51  H   UNL     1       0.546  -3.369 135.407  0.00  0.00    +0.000 HD
ATOM     52  H   UNL     1       0.766  -4.334 133.651  0.00  0.00    +0.000 HD
ENDBRANCH  47  49
ENDBRANCH  43  47
ENDBRANCH  42  44
BRANCH  42  53
ATOM     53  C   UNL     1      -6.910  -5.404 134.585  0.00  0.00    +0.000 C 
BRANCH  53  54
ATOM     54  C   UNL     1      -7.994  -5.779 135.524  0.00  0.00    +0.000 C 
BRANCH  54  55
ATOM     55  C   UNL     1      -8.924  -4.627 135.717  0.00  0.00    +0.000 C 
BRANCH  55  56
ATOM     56  N   UNL     1      -8.346  -3.667 136.664  0.00  0.00    +0.000 NA
ATOM     57  C   UNL     1      -9.141  -3.043 137.482  0.00  0.00    +0.000 C 
ATOM     58  N   UNL     1     -10.510  -3.253 137.493  0.00  0.00    +0.000 N 
ATOM     59  N   UNL     1      -8.608  -2.128 138.389  0.00  0.00    +0.000 N 
ATOM     60  H   UNL     1     -10.956  -3.915 136.846  0.00  0.00    +0.000 HD
ATOM     61  H   UNL     1     -11.160  -2.789 138.111  0.00  0.00    +0.000 HD
ATOM     62  H   UNL     1      -7.596  -1.930 138.430  0.00  0.00    +0.000 HD
ATOM     63  H   UNL     1      -9.150  -1.598 139.061  0.00  0.00    +0.000 HD
ENDBRANCH  55  56
ENDBRANCH  54  55
ENDBRANCH  53  54
ENDBRANCH  42  53
ENDBRANCH  38  42
ENDBRANCH  31  39
ENDBRANCH   1  36
BRANCH  10  64
ATOM     64  C   UNL     1      -5.282   1.134 126.836  0.00  0.00    +0.000 C 
BRANCH  64  65
ATOM     65  C   UNL     1      -4.454   2.306 127.022  0.00  0.00    +0.000 A 
ATOM     66  C   UNL     1      -4.913   3.110 127.985  0.00  0.00    +0.000 A 
ATOM     67  C   UNL     1      -4.158   4.165 128.375  0.00  0.00    +0.000 A 
ATOM     68  C   UNL     1      -2.956   4.416 127.751  0.00  0.00    +0.000 A 
ATOM     69  C   UNL     1      -2.532   3.630 126.701  0.00  0.00    +0.000 A 
ATOM     70  C   UNL     1      -3.279   2.562 126.314  0.00  0.00    +0.000 A 
BRANCH  68  71
ATOM     71  O   UNL     1      -2.130   5.436 128.096  0.00  0.00    +0.000 OA
ATOM     72  H   UNL     1      -2.573   6.233 128.426  0.00  0.00    +0.000 HD
ENDBRANCH  68  71
ENDBRANCH  64  65
ENDBRANCH  10  64
BRANCH  14  73
ATOM     73  C   UNL     1      -8.052  -0.043 129.830  0.00  0.00    +0.000 C 
BRANCH  73  74
ATOM     74  C   UNL     1      -8.490   1.793 130.564  0.00  0.00    +0.000 A 
ATOM     75  C   UNL     1      -9.024   1.319 131.649  0.00  0.00    +0.000 A 
ATOM     76  C   UNL     1      -9.704   2.329 132.082  0.00  0.00    +0.000 A 
ATOM     77  C   UNL     1      -9.320   3.648 131.991  0.00  0.00    +0.000 A 
ATOM     78  C   UNL     1      -8.314   4.042 131.180  0.00  0.00    +0.000 A 
ATOM     79  C   UNL     1      -7.705   3.124 130.506  0.00  0.00    +0.000 A 
ENDBRANCH  73  74
ENDBRANCH  14  73
BRANCH  18  80
ATOM     80  C   UNL     1      -5.183  -2.505 131.703  0.00  0.00    +0.000 C 
BRANCH  80  81
ATOM     81  C   UNL     1      -4.152  -3.260 130.998  0.00  0.00    +0.000 C 
ATOM     82  N   UNL     1      -2.941  -2.880 131.347  0.00  0.00    +0.000 N 
ATOM     83  O   UNL     1      -4.381  -4.140 130.209  0.00  0.00    +0.000 OA
ATOM     84  H   UNL     1      -2.846  -1.945 131.929  0.00  0.00    +0.000 HD
ATOM     85  H   UNL     1      -2.082  -3.160 130.932  0.00  0.00    +0.000 HD
ENDBRANCH  80  81
ENDBRANCH  18  80
BRANCH  22  86
ATOM     86  C   UNL     1      -3.575  -0.725 134.794  0.00  0.00    +0.000 C 
BRANCH  86  87
ATOM     87  C   UNL     1      -2.204  -0.976 134.677  0.00  0.00    +0.000 C 
ATOM     88  N   UNL     1      -1.627  -1.007 135.904  0.00  0.00    +0.000 N 
ATOM     89  O   UNL     1      -1.598  -1.128 133.636  0.00  0.00    +0.000 OA
ATOM     90  H   UNL     1      -2.153  -0.962 136.777  0.00  0.00    +0.000 HD
ATOM     91  H   UNL     1      -0.641  -1.095 135.980  0.00  0.00    +0.000 HD
ENDBRANCH  86  87
ENDBRANCH  22  86
TORSDOF 19
ENDMDL
