MODEL 1
REMARK VINA RESULT:      -8.6      0.000      0.000
REMARK  Name = CHEMBL515975
REMARK  10 active torsions:
REMARK  status: ('A' for Active; 'I' for Inactive)
REMARK    1  A    between atoms: C_1  and  O_2
REMARK    2  A    between atoms: O_2  and  C_3
REMARK    3  A    between atoms: C_6  and  N_7
REMARK    4  A    between atoms: N_7  and  C_8
REMARK    5  A    between atoms: N_7  and  S_22
REMARK    6  A    between atoms: C_8  and  C_9
REMARK    7  A    between atoms: C_12  and  C_13
REMARK    8  A    between atoms: C_18  and  C_19
REMARK    9  A    between atoms: S_22  and  C_25
REMARK   10  A    between atoms: N_27  and  C_28
REMARK                            x       y       z     vdW  Elec       q    Type
REMARK                         _______ _______ _______ _____ _____    ______ ____
ROOT
ATOM      1  N   UNL     1     -10.050   5.763 131.225  0.00  0.00    +0.000 N 
ENDROOT
BRANCH   1   5
ATOM      2  C   UNL     1     -12.391   8.815 129.422  0.00  0.00    +0.000 A 
ATOM      3  C   UNL     1     -11.275   8.376 128.735  0.00  0.00    +0.000 A 
ATOM      4  C   UNL     1     -10.495   7.337 129.283  0.00  0.00    +0.000 A 
ATOM      5  C   UNL     1     -10.875   6.714 130.470  0.00  0.00    +0.000 A 
ATOM      6  C   UNL     1     -12.143   7.092 130.888  0.00  0.00    +0.000 A 
ATOM      7  N   UNL     1     -12.848   8.177 130.489  0.00  0.00    +0.000 NA
BRANCH   2   9
ATOM      8  C   UNL     1     -13.404  10.719 130.164  0.00  0.00    +0.000 C 
ATOM      9  O   UNL     1     -13.143   9.887 129.042  0.00  0.00    +0.000 OA
ENDBRANCH   2   9
ENDBRANCH   1   5
BRANCH   1  10
ATOM     10  S   UNL     1     -10.084   4.118 130.774  0.00  0.00    +0.000 S 
ATOM     11  O   UNL     1      -9.683   3.353 131.951  0.00  0.00    +0.000 OA
ATOM     12  O   UNL     1     -11.337   3.832 130.119  0.00  0.00    +0.000 OA
BRANCH  10  13
ATOM     13  C   UNL     1      -8.854   3.704 129.583  0.00  0.00    +0.000 A 
ATOM     14  C   UNL     1      -8.035   2.591 129.615  0.00  0.00    +0.000 A 
ATOM     15  N   UNL     1      -7.263   2.667 128.492  0.00  0.00    +0.000 N 
ATOM     16  C   UNL     1      -6.250   1.723 128.085  0.00  0.00    +0.000 C 
ATOM     17  C   UNL     1      -7.616   3.806 127.822  0.00  0.00    +0.000 A 
ATOM     18  N   UNL     1      -8.564   4.466 128.456  0.00  0.00    +0.000 NA
ENDBRANCH  10  13
ENDBRANCH   1  10
BRANCH   1  19
ATOM     19  C   UNL     1      -9.060   6.139 132.307  0.00  0.00    +0.000 C 
BRANCH  19  20
ATOM     20  C   UNL     1      -7.556   6.006 132.031  0.00  0.00    +0.000 A 
ATOM     21  C   UNL     1      -6.976   6.750 130.999  0.00  0.00    +0.000 A 
ATOM     22  C   UNL     1      -5.618   7.076 131.097  0.00  0.00    +0.000 A 
ATOM     23  C   UNL     1      -4.819   6.508 132.091  0.00  0.00    +0.000 A 
ATOM     24  C   UNL     1      -5.456   5.629 132.963  0.00  0.00    +0.000 A 
ATOM     25  N   UNL     1      -6.798   5.395 132.983  0.00  0.00    +0.000 NA
BRANCH  23  26
ATOM     26  C   UNL     1      -3.375   6.760 132.143  0.00  0.00    +0.000 A 
ATOM     27  C   UNL     1      -2.951   7.815 132.968  0.00  0.00    +0.000 A 
ATOM     28  C   UNL     1      -1.601   8.093 133.154  0.00  0.00    +0.000 A 
ATOM     29  C   UNL     1      -0.643   7.317 132.515  0.00  0.00    +0.000 A 
ATOM     30  C   UNL     1      -1.035   6.276 131.675  0.00  0.00    +0.000 A 
ATOM     31  C   UNL     1      -2.397   5.989 131.471  0.00  0.00    +0.000 A 
ATOM     32  C   UNL     1      -2.757   4.863 130.540  0.00  0.00    +0.000 C 
ENDBRANCH  23  26
ENDBRANCH  19  20
ENDBRANCH   1  19
TORSDOF 7
ENDMDL
MODEL 2
REMARK VINA RESULT:      -8.5      3.566      8.022
REMARK  Name = CHEMBL515975
REMARK  10 active torsions:
REMARK  status: ('A' for Active; 'I' for Inactive)
REMARK    1  A    between atoms: C_1  and  O_2
REMARK    2  A    between atoms: O_2  and  C_3
REMARK    3  A    between atoms: C_6  and  N_7
REMARK    4  A    between atoms: N_7  and  C_8
REMARK    5  A    between atoms: N_7  and  S_22
REMARK    6  A    between atoms: C_8  and  C_9
REMARK    7  A    between atoms: C_12  and  C_13
REMARK    8  A    between atoms: C_18  and  C_19
REMARK    9  A    between atoms: S_22  and  C_25
REMARK   10  A    between atoms: N_27  and  C_28
REMARK                            x       y       z     vdW  Elec       q    Type
REMARK                         _______ _______ _______ _____ _____    ______ ____
ROOT
ATOM      1  N   UNL     1      -4.126   5.356 130.102  0.00  0.00    +0.000 N 
ENDROOT
BRANCH   1   5
ATOM      2  C   UNL     1      -1.088   7.123 132.488  0.00  0.00    +0.000 A 
ATOM      3  C   UNL     1      -2.224   7.870 132.244  0.00  0.00    +0.000 A 
ATOM      4  C   UNL     1      -3.271   7.303 131.489  0.00  0.00    +0.000 A 
ATOM      5  C   UNL     1      -3.194   5.984 131.046  0.00  0.00    +0.000 A 
ATOM      6  C   UNL     1      -2.116   5.301 131.592  0.00  0.00    +0.000 A 
ATOM      7  N   UNL     1      -1.022   5.835 132.184  0.00  0.00    +0.000 NA
BRANCH   2   9
ATOM      8  C   UNL     1      -0.174   8.974 133.457  0.00  0.00    +0.000 C 
ATOM      9  O   UNL     1       0.026   7.613 133.102  0.00  0.00    +0.000 OA
ENDBRANCH   2   9
ENDBRANCH   1   5
BRANCH   1  10
ATOM     10  S   UNL     1      -3.837   5.536 128.430  0.00  0.00    +0.000 S 
ATOM     11  O   UNL     1      -4.224   6.901 128.084  0.00  0.00    +0.000 OA
ATOM     12  O   UNL     1      -2.509   5.062 128.125  0.00  0.00    +0.000 OA
BRANCH  10  13
ATOM     13  C   UNL     1      -4.903   4.548 127.435  0.00  0.00    +0.000 A 
ATOM     14  C   UNL     1      -4.658   3.251 127.022  0.00  0.00    +0.000 A 
ATOM     15  N   UNL     1      -5.754   2.881 126.298  0.00  0.00    +0.000 N 
ATOM     16  C   UNL     1      -5.965   1.603 125.660  0.00  0.00    +0.000 C 
ATOM     17  C   UNL     1      -6.618   3.941 126.280  0.00  0.00    +0.000 A 
ATOM     18  N   UNL     1      -6.133   4.971 126.943  0.00  0.00    +0.000 NA
ENDBRANCH  10  13
ENDBRANCH   1  10
BRANCH   1  19
ATOM     19  C   UNL     1      -5.268   4.440 130.488  0.00  0.00    +0.000 C 
BRANCH  19  20
ATOM     20  C   UNL     1      -6.677   5.024 130.661  0.00  0.00    +0.000 A 
ATOM     21  C   UNL     1      -6.834   6.284 131.245  0.00  0.00    +0.000 A 
ATOM     22  C   UNL     1      -7.963   7.039 130.905  0.00  0.00    +0.000 A 
ATOM     23  C   UNL     1      -9.000   6.473 130.162  0.00  0.00    +0.000 A 
ATOM     24  C   UNL     1      -8.830   5.144 129.782  0.00  0.00    +0.000 A 
ATOM     25  N   UNL     1      -7.691   4.423 129.977  0.00  0.00    +0.000 NA
BRANCH  23  26
ATOM     26  C   UNL     1     -10.233   7.219 129.885  0.00  0.00    +0.000 A 
ATOM     27  C   UNL     1     -10.254   7.981 128.706  0.00  0.00    +0.000 A 
ATOM     28  C   UNL     1     -11.397   8.665 128.305  0.00  0.00    +0.000 A 
ATOM     29  C   UNL     1     -12.548   8.599 129.078  0.00  0.00    +0.000 A 
ATOM     30  C   UNL     1     -12.550   7.864 130.264  0.00  0.00    +0.000 A 
ATOM     31  C   UNL     1     -11.398   7.175 130.686  0.00  0.00    +0.000 A 
ATOM     32  C   UNL     1     -11.459   6.414 131.983  0.00  0.00    +0.000 C 
ENDBRANCH  23  26
ENDBRANCH  19  20
ENDBRANCH   1  19
TORSDOF 7
ENDMDL
MODEL 3
REMARK VINA RESULT:      -8.3      7.632     10.188
REMARK  Name = CHEMBL515975
REMARK  10 active torsions:
REMARK  status: ('A' for Active; 'I' for Inactive)
REMARK    1  A    between atoms: C_1  and  O_2
REMARK    2  A    between atoms: O_2  and  C_3
REMARK    3  A    between atoms: C_6  and  N_7
REMARK    4  A    between atoms: N_7  and  C_8
REMARK    5  A    between atoms: N_7  and  S_22
REMARK    6  A    between atoms: C_8  and  C_9
REMARK    7  A    between atoms: C_12  and  C_13
REMARK    8  A    between atoms: C_18  and  C_19
REMARK    9  A    between atoms: S_22  and  C_25
REMARK   10  A    between atoms: N_27  and  C_28
REMARK                            x       y       z     vdW  Elec       q    Type
REMARK                         _______ _______ _______ _____ _____    ______ ____
ROOT
ATOM      1  N   UNL     1      -7.984  -0.490 127.302  0.00  0.00    +0.000 N 
ENDROOT
BRANCH   1   5
ATOM      2  C   UNL     1      -5.892  -2.666 130.290  0.00  0.00    +0.000 A 
ATOM      3  C   UNL     1      -5.157  -2.166 129.232  0.00  0.00    +0.000 A 
ATOM      4  C   UNL     1      -5.810  -1.405 128.241  0.00  0.00    +0.000 A 
ATOM      5  C   UNL     1      -7.166  -1.104 128.354  0.00  0.00    +0.000 A 
ATOM      6  C   UNL     1      -7.688  -1.456 129.591  0.00  0.00    +0.000 A 
ATOM      7  N   UNL     1      -7.152  -2.309 130.494  0.00  0.00    +0.000 NA
BRANCH   2   9
ATOM      8  C   UNL     1      -5.503  -4.855 130.799  0.00  0.00    +0.000 C 
ATOM      9  O   UNL     1      -5.386  -3.508 131.236  0.00  0.00    +0.000 OA
ENDBRANCH   2   9
ENDBRANCH   1   5
BRANCH   1  10
ATOM     10  S   UNL     1      -8.606  -1.489 126.067  0.00  0.00    +0.000 S 
ATOM     11  O   UNL     1      -8.864  -2.792 126.673  0.00  0.00    +0.000 OA
ATOM     12  O   UNL     1      -9.664  -0.790 125.379  0.00  0.00    +0.000 OA
BRANCH  10  13
ATOM     13  C   UNL     1      -7.424  -1.853 124.812  0.00  0.00    +0.000 A 
ATOM     14  C   UNL     1      -6.350  -2.715 124.934  0.00  0.00    +0.000 A 
ATOM     15  N   UNL     1      -5.728  -2.704 123.719  0.00  0.00    +0.000 N 
ATOM     16  C   UNL     1      -4.550  -3.455 123.356  0.00  0.00    +0.000 C 
ATOM     17  C   UNL     1      -6.417  -1.847 122.907  0.00  0.00    +0.000 A 
ATOM     18  N   UNL     1      -7.440  -1.302 123.535  0.00  0.00    +0.000 NA
ENDBRANCH  10  13
ENDBRANCH   1  10
BRANCH   1  19
ATOM     19  C   UNL     1      -8.437   0.955 127.285  0.00  0.00    +0.000 C 
BRANCH  19  20
ATOM     20  C   UNL     1      -7.826   1.925 126.264  0.00  0.00    +0.000 A 
ATOM     21  C   UNL     1      -6.516   1.723 125.820  0.00  0.00    +0.000 A 
ATOM     22  C   UNL     1      -6.163   2.200 124.552  0.00  0.00    +0.000 A 
ATOM     23  C   UNL     1      -7.030   3.026 123.836  0.00  0.00    +0.000 A 
ATOM     24  C   UNL     1      -8.244   3.322 124.449  0.00  0.00    +0.000 A 
ATOM     25  N   UNL     1      -8.677   2.768 125.616  0.00  0.00    +0.000 NA
BRANCH  23  26
ATOM     26  C   UNL     1      -6.632   3.616 122.553  0.00  0.00    +0.000 A 
ATOM     27  C   UNL     1      -5.340   4.163 122.486  0.00  0.00    +0.000 A 
ATOM     28  C   UNL     1      -4.831   4.678 121.298  0.00  0.00    +0.000 A 
ATOM     29  C   UNL     1      -5.607   4.655 120.147  0.00  0.00    +0.000 A 
ATOM     30  C   UNL     1      -6.901   4.135 120.189  0.00  0.00    +0.000 A 
ATOM     31  C   UNL     1      -7.432   3.619 121.385  0.00  0.00    +0.000 A 
ATOM     32  C   UNL     1      -8.840   3.087 121.369  0.00  0.00    +0.000 C 
ENDBRANCH  23  26
ENDBRANCH  19  20
ENDBRANCH   1  19
TORSDOF 7
ENDMDL
MODEL 4
REMARK VINA RESULT:      -8.2      3.751      6.820
REMARK  Name = CHEMBL515975
REMARK  10 active torsions:
REMARK  status: ('A' for Active; 'I' for Inactive)
REMARK    1  A    between atoms: C_1  and  O_2
REMARK    2  A    between atoms: O_2  and  C_3
REMARK    3  A    between atoms: C_6  and  N_7
REMARK    4  A    between atoms: N_7  and  C_8
REMARK    5  A    between atoms: N_7  and  S_22
REMARK    6  A    between atoms: C_8  and  C_9
REMARK    7  A    between atoms: C_12  and  C_13
REMARK    8  A    between atoms: C_18  and  C_19
REMARK    9  A    between atoms: S_22  and  C_25
REMARK   10  A    between atoms: N_27  and  C_28
REMARK                            x       y       z     vdW  Elec       q    Type
REMARK                         _______ _______ _______ _____ _____    ______ ____
ROOT
ATOM      1  N   UNL     1      -7.412   4.477 129.817  0.00  0.00    +0.000 N 
ENDROOT
BRANCH   1   5
ATOM      2  C   UNL     1     -10.967   6.094 131.488  0.00  0.00    +0.000 A 
ATOM      3  C   UNL     1      -9.878   5.944 132.325  0.00  0.00    +0.000 A 
ATOM      4  C   UNL     1      -8.669   5.447 131.798  0.00  0.00    +0.000 A 
ATOM      5  C   UNL     1      -8.547   5.169 130.438  0.00  0.00    +0.000 A 
ATOM      6  C   UNL     1      -9.637   5.617 129.704  0.00  0.00    +0.000 A 
ATOM      7  N   UNL     1     -10.861   5.951 130.175  0.00  0.00    +0.000 NA
BRANCH   2   9
ATOM      8  C   UNL     1     -12.769   7.417 131.035  0.00  0.00    +0.000 C 
ATOM      9  O   UNL     1     -12.211   6.452 131.916  0.00  0.00    +0.000 OA
ENDBRANCH   2   9
ENDBRANCH   1   5
BRANCH   1  10
ATOM     10  S   UNL     1      -5.844   5.102 130.062  0.00  0.00    +0.000 S 
ATOM     11  O   UNL     1      -5.962   6.557 130.021  0.00  0.00    +0.000 OA
ATOM     12  O   UNL     1      -5.250   4.457 131.207  0.00  0.00    +0.000 OA
BRANCH  10  13
ATOM     13  C   UNL     1      -4.744   4.748 128.732  0.00  0.00    +0.000 A 
ATOM     14  C   UNL     1      -3.740   3.797 128.739  0.00  0.00    +0.000 A 
ATOM     15  N   UNL     1      -3.165   3.857 127.503  0.00  0.00    +0.000 N 
ATOM     16  C   UNL     1      -2.068   3.047 127.030  0.00  0.00    +0.000 C 
ATOM     17  C   UNL     1      -3.812   4.828 126.790  0.00  0.00    +0.000 A 
ATOM     18  N   UNL     1      -4.763   5.399 127.503  0.00  0.00    +0.000 NA
ENDBRANCH  10  13
ENDBRANCH   1  10
BRANCH   1  19
ATOM     19  C   UNL     1      -7.499   3.164 129.069  0.00  0.00    +0.000 C 
BRANCH  19  20
ATOM     20  C   UNL     1      -7.541   3.171 127.534  0.00  0.00    +0.000 A 
ATOM     21  C   UNL     1      -8.049   4.287 126.864  0.00  0.00    +0.000 A 
ATOM     22  C   UNL     1      -7.592   4.549 125.567  0.00  0.00    +0.000 A 
ATOM     23  C   UNL     1      -6.806   3.617 124.888  0.00  0.00    +0.000 A 
ATOM     24  C   UNL     1      -6.506   2.446 125.579  0.00  0.00    +0.000 A 
ATOM     25  N   UNL     1      -6.817   2.217 126.885  0.00  0.00    +0.000 NA
BRANCH  23  26
ATOM     26  C   UNL     1      -6.404   3.833 123.493  0.00  0.00    +0.000 A 
ATOM     27  C   UNL     1      -5.143   4.414 123.285  0.00  0.00    +0.000 A 
ATOM     28  C   UNL     1      -4.628   4.592 122.006  0.00  0.00    +0.000 A 
ATOM     29  C   UNL     1      -5.369   4.190 120.902  0.00  0.00    +0.000 A 
ATOM     30  C   UNL     1      -6.632   3.628 121.078  0.00  0.00    +0.000 A 
ATOM     31  C   UNL     1      -7.169   3.450 122.366  0.00  0.00    +0.000 A 
ATOM     32  C   UNL     1      -8.545   2.852 122.489  0.00  0.00    +0.000 C 
ENDBRANCH  23  26
ENDBRANCH  19  20
ENDBRANCH   1  19
TORSDOF 7
ENDMDL
MODEL 5
REMARK VINA RESULT:      -8.2      7.531      9.328
REMARK  Name = CHEMBL515975
REMARK  10 active torsions:
REMARK  status: ('A' for Active; 'I' for Inactive)
REMARK    1  A    between atoms: C_1  and  O_2
REMARK    2  A    between atoms: O_2  and  C_3
REMARK    3  A    between atoms: C_6  and  N_7
REMARK    4  A    between atoms: N_7  and  C_8
REMARK    5  A    between atoms: N_7  and  S_22
REMARK    6  A    between atoms: C_8  and  C_9
REMARK    7  A    between atoms: C_12  and  C_13
REMARK    8  A    between atoms: C_18  and  C_19
REMARK    9  A    between atoms: S_22  and  C_25
REMARK   10  A    between atoms: N_27  and  C_28
REMARK                            x       y       z     vdW  Elec       q    Type
REMARK                         _______ _______ _______ _____ _____    ______ ____
ROOT
ATOM      1  N   UNL     1      -8.513   1.965 123.999  0.00  0.00    +0.000 N 
ENDROOT
BRANCH   1   5
ATOM      2  C   UNL     1      -6.930   3.930 120.582  0.00  0.00    +0.000 A 
ATOM      3  C   UNL     1      -6.065   3.156 121.331  0.00  0.00    +0.000 A 
ATOM      4  C   UNL     1      -6.562   2.457 122.451  0.00  0.00    +0.000 A 
ATOM      5  C   UNL     1      -7.919   2.490 122.765  0.00  0.00    +0.000 A 
ATOM      6  C   UNL     1      -8.680   3.093 121.771  0.00  0.00    +0.000 A 
ATOM      7  N   UNL     1      -8.240   3.898 120.776  0.00  0.00    +0.000 NA
BRANCH   2   9
ATOM      8  C   UNL     1      -5.272   5.316 119.855  0.00  0.00    +0.000 C 
ATOM      9  O   UNL     1      -6.533   4.735 119.556  0.00  0.00    +0.000 OA
ENDBRANCH   2   9
ENDBRANCH   1   5
BRANCH   1  10
ATOM     10  S   UNL     1      -9.386   0.500 123.923  0.00  0.00    +0.000 S 
ATOM     11  O   UNL     1     -10.260   0.473 125.093  0.00  0.00    +0.000 OA
ATOM     12  O   UNL     1      -9.942   0.347 122.601  0.00  0.00    +0.000 OA
BRANCH  10  13
ATOM     13  C   UNL     1      -8.369  -0.922 124.145  0.00  0.00    +0.000 A 
ATOM     14  C   UNL     1      -7.193  -1.192 123.470  0.00  0.00    +0.000 A 
ATOM     15  N   UNL     1      -6.741  -2.376 123.976  0.00  0.00    +0.000 N 
ATOM     16  C   UNL     1      -5.537  -3.069 123.584  0.00  0.00    +0.000 C 
ATOM     17  C   UNL     1      -7.638  -2.795 124.919  0.00  0.00    +0.000 A 
ATOM     18  N   UNL     1      -8.642  -1.950 125.040  0.00  0.00    +0.000 NA
ENDBRANCH  10  13
ENDBRANCH   1  10
BRANCH   1  19
ATOM     19  C   UNL     1      -8.311   2.551 125.379  0.00  0.00    +0.000 C 
BRANCH  19  20
ATOM     20  C   UNL     1      -7.564   1.735 126.443  0.00  0.00    +0.000 A 
ATOM     21  C   UNL     1      -8.214   1.393 127.632  0.00  0.00    +0.000 A 
ATOM     22  C   UNL     1      -7.798   0.241 128.311  0.00  0.00    +0.000 A 
ATOM     23  C   UNL     1      -6.640  -0.433 127.922  0.00  0.00    +0.000 A 
ATOM     24  C   UNL     1      -5.955   0.098 126.832  0.00  0.00    +0.000 A 
ATOM     25  N   UNL     1      -6.402   1.132 126.066  0.00  0.00    +0.000 NA
BRANCH  23  26
ATOM     26  C   UNL     1      -6.136  -1.580 128.685  0.00  0.00    +0.000 A 
ATOM     27  C   UNL     1      -4.819  -1.487 129.164  0.00  0.00    +0.000 A 
ATOM     28  C   UNL     1      -4.265  -2.481 129.963  0.00  0.00    +0.000 A 
ATOM     29  C   UNL     1      -5.022  -3.594 130.304  0.00  0.00    +0.000 A 
ATOM     30  C   UNL     1      -6.326  -3.722 129.828  0.00  0.00    +0.000 A 
ATOM     31  C   UNL     1      -6.896  -2.729 129.010  0.00  0.00    +0.000 A 
ATOM     32  C   UNL     1      -8.302  -2.934 128.515  0.00  0.00    +0.000 C 
ENDBRANCH  23  26
ENDBRANCH  19  20
ENDBRANCH   1  19
TORSDOF 7
ENDMDL
MODEL 6
REMARK VINA RESULT:      -8.1      4.143      8.159
REMARK  Name = CHEMBL515975
REMARK  10 active torsions:
REMARK  status: ('A' for Active; 'I' for Inactive)
REMARK    1  A    between atoms: C_1  and  O_2
REMARK    2  A    between atoms: O_2  and  C_3
REMARK    3  A    between atoms: C_6  and  N_7
REMARK    4  A    between atoms: N_7  and  C_8
REMARK    5  A    between atoms: N_7  and  S_22
REMARK    6  A    between atoms: C_8  and  C_9
REMARK    7  A    between atoms: C_12  and  C_13
REMARK    8  A    between atoms: C_18  and  C_19
REMARK    9  A    between atoms: S_22  and  C_25
REMARK   10  A    between atoms: N_27  and  C_28
REMARK                            x       y       z     vdW  Elec       q    Type
REMARK                         _______ _______ _______ _____ _____    ______ ____
ROOT
ATOM      1  N   UNL     1      -7.248   2.937 127.447  0.00  0.00    +0.000 N 
ENDROOT
BRANCH   1   5
ATOM      2  C   UNL     1      -8.290  -0.661 125.443  0.00  0.00    +0.000 A 
ATOM      3  C   UNL     1      -6.947  -0.416 125.658  0.00  0.00    +0.000 A 
ATOM      4  C   UNL     1      -6.564   0.749 126.355  0.00  0.00    +0.000 A 
ATOM      5  C   UNL     1      -7.524   1.613 126.877  0.00  0.00    +0.000 A 
ATOM      6  C   UNL     1      -8.808   1.090 126.800  0.00  0.00    +0.000 A 
ATOM      7  N   UNL     1      -9.233   0.070 126.019  0.00  0.00    +0.000 NA
BRANCH   2   9
ATOM      8  C   UNL     1      -9.288  -2.710 125.521  0.00  0.00    +0.000 C 
ATOM      9  O   UNL     1      -8.761  -1.691 124.684  0.00  0.00    +0.000 OA
ENDBRANCH   2   9
ENDBRANCH   1   5
BRANCH   1  10
ATOM     10  S   UNL     1      -7.204   4.281 126.398  0.00  0.00    +0.000 S 
ATOM     11  O   UNL     1      -8.461   5.001 126.586  0.00  0.00    +0.000 OA
ATOM     12  O   UNL     1      -5.947   4.969 126.560  0.00  0.00    +0.000 OA
BRANCH  10  13
ATOM     13  C   UNL     1      -7.248   3.830 124.695  0.00  0.00    +0.000 A 
ATOM     14  C   UNL     1      -6.176   3.844 123.823  0.00  0.00    +0.000 A 
ATOM     15  N   UNL     1      -6.665   3.401 122.628  0.00  0.00    +0.000 N 
ATOM     16  C   UNL     1      -5.915   3.239 121.405  0.00  0.00    +0.000 C 
ATOM     17  C   UNL     1      -7.997   3.142 122.795  0.00  0.00    +0.000 A 
ATOM     18  N   UNL     1      -8.390   3.403 124.025  0.00  0.00    +0.000 NA
ENDBRANCH  10  13
ENDBRANCH   1  10
BRANCH   1  19
ATOM     19  C   UNL     1      -7.121   3.238 128.925  0.00  0.00    +0.000 C 
BRANCH  19  20
ATOM     20  C   UNL     1      -8.179   4.113 129.610  0.00  0.00    +0.000 A 
ATOM     21  C   UNL     1      -7.826   5.382 130.079  0.00  0.00    +0.000 A 
ATOM     22  C   UNL     1      -8.824   6.360 130.167  0.00  0.00    +0.000 A 
ATOM     23  C   UNL     1     -10.166   6.025 129.984  0.00  0.00    +0.000 A 
ATOM     24  C   UNL     1     -10.434   4.688 129.701  0.00  0.00    +0.000 A 
ATOM     25  N   UNL     1      -9.483   3.740 129.474  0.00  0.00    +0.000 NA
BRANCH  23  26
ATOM     26  C   UNL     1     -11.230   7.018 130.173  0.00  0.00    +0.000 A 
ATOM     27  C   UNL     1     -11.996   6.902 131.345  0.00  0.00    +0.000 A 
ATOM     28  C   UNL     1     -12.978   7.833 131.665  0.00  0.00    +0.000 A 
ATOM     29  C   UNL     1     -13.215   8.905 130.815  0.00  0.00    +0.000 A 
ATOM     30  C   UNL     1     -12.483   9.035 129.635  0.00  0.00    +0.000 A 
ATOM     31  C   UNL     1     -11.493   8.095 129.295  0.00  0.00    +0.000 A 
ATOM     32  C   UNL     1     -10.748   8.282 128.000  0.00  0.00    +0.000 C 
ENDBRANCH  23  26
ENDBRANCH  19  20
ENDBRANCH   1  19
TORSDOF 7
ENDMDL
MODEL 7
REMARK VINA RESULT:      -8.0      3.270      5.904
REMARK  Name = CHEMBL515975
REMARK  10 active torsions:
REMARK  status: ('A' for Active; 'I' for Inactive)
REMARK    1  A    between atoms: C_1  and  O_2
REMARK    2  A    between atoms: O_2  and  C_3
REMARK    3  A    between atoms: C_6  and  N_7
REMARK    4  A    between atoms: N_7  and  C_8
REMARK    5  A    between atoms: N_7  and  S_22
REMARK    6  A    between atoms: C_8  and  C_9
REMARK    7  A    between atoms: C_12  and  C_13
REMARK    8  A    between atoms: C_18  and  C_19
REMARK    9  A    between atoms: S_22  and  C_25
REMARK   10  A    between atoms: N_27  and  C_28
REMARK                            x       y       z     vdW  Elec       q    Type
REMARK                         _______ _______ _______ _____ _____    ______ ____
ROOT
ATOM      1  N   UNL     1      -9.051   5.214 132.145  0.00  0.00    +0.000 N 
ENDROOT
BRANCH   1   5
ATOM      2  C   UNL     1     -12.362   6.464 129.797  0.00  0.00    +0.000 A 
ATOM      3  C   UNL     1     -12.310   6.897 131.109  0.00  0.00    +0.000 A 
ATOM      4  C   UNL     1     -11.206   6.535 131.908  0.00  0.00    +0.000 A 
ATOM      5  C   UNL     1     -10.148   5.804 131.371  0.00  0.00    +0.000 A 
ATOM      6  C   UNL     1     -10.236   5.677 129.991  0.00  0.00    +0.000 A 
ATOM      7  N   UNL     1     -11.330   5.869 129.218  0.00  0.00    +0.000 NA
BRANCH   2   9
ATOM      8  C   UNL     1     -13.153   7.692 128.046  0.00  0.00    +0.000 C 
ATOM      9  O   UNL     1     -13.434   6.657 128.977  0.00  0.00    +0.000 OA
ENDBRANCH   2   9
ENDBRANCH   1   5
BRANCH   1  10
ATOM     10  S   UNL     1      -7.459   5.742 131.834  0.00  0.00    +0.000 S 
ATOM     11  O   UNL     1      -7.568   7.060 131.215  0.00  0.00    +0.000 OA
ATOM     12  O   UNL     1      -6.659   5.566 133.022  0.00  0.00    +0.000 OA
BRANCH  10  13
ATOM     13  C   UNL     1      -6.642   4.783 130.602  0.00  0.00    +0.000 A 
ATOM     14  C   UNL     1      -5.753   3.750 130.834  0.00  0.00    +0.000 A 
ATOM     15  N   UNL     1      -5.394   3.289 129.600  0.00  0.00    +0.000 N 
ATOM     16  C   UNL     1      -4.480   2.205 129.326  0.00  0.00    +0.000 C 
ATOM     17  C   UNL     1      -6.051   4.041 128.667  0.00  0.00    +0.000 A 
ATOM     18  N   UNL     1      -6.803   4.964 129.232  0.00  0.00    +0.000 NA
ENDBRANCH  10  13
ENDBRANCH   1  10
BRANCH   1  19
ATOM     19  C   UNL     1      -9.222   4.254 133.303  0.00  0.00    +0.000 C 
BRANCH  19  20
ATOM     20  C   UNL     1      -8.998   2.752 133.077  0.00  0.00    +0.000 A 
ATOM     21  C   UNL     1      -9.904   2.030 132.295  0.00  0.00    +0.000 A 
ATOM     22  C   UNL     1      -9.446   0.884 131.633  0.00  0.00    +0.000 A 
ATOM     23  C   UNL     1      -8.179   0.365 131.904  0.00  0.00    +0.000 A 
ATOM     24  C   UNL     1      -7.419   1.057 132.843  0.00  0.00    +0.000 A 
ATOM     25  N   UNL     1      -7.776   2.247 133.403  0.00  0.00    +0.000 NA
BRANCH  23  26
ATOM     26  C   UNL     1      -7.726  -0.890 131.296  0.00  0.00    +0.000 A 
ATOM     27  C   UNL     1      -7.550  -1.981 132.163  0.00  0.00    +0.000 A 
ATOM     28  C   UNL     1      -7.197  -3.239 131.684  0.00  0.00    +0.000 A 
ATOM     29  C   UNL     1      -7.015  -3.433 130.322  0.00  0.00    +0.000 A 
ATOM     30  C   UNL     1      -7.166  -2.363 129.439  0.00  0.00    +0.000 A 
ATOM     31  C   UNL     1      -7.512  -1.084 129.910  0.00  0.00    +0.000 A 
ATOM     32  C   UNL     1      -7.643   0.033 128.909  0.00  0.00    +0.000 C 
ENDBRANCH  23  26
ENDBRANCH  19  20
ENDBRANCH   1  19
TORSDOF 7
ENDMDL
MODEL 8
REMARK VINA RESULT:      -8.0      2.034      4.346
REMARK  Name = CHEMBL515975
REMARK  10 active torsions:
REMARK  status: ('A' for Active; 'I' for Inactive)
REMARK    1  A    between atoms: C_1  and  O_2
REMARK    2  A    between atoms: O_2  and  C_3
REMARK    3  A    between atoms: C_6  and  N_7
REMARK    4  A    between atoms: N_7  and  C_8
REMARK    5  A    between atoms: N_7  and  S_22
REMARK    6  A    between atoms: C_8  and  C_9
REMARK    7  A    between atoms: C_12  and  C_13
REMARK    8  A    between atoms: C_18  and  C_19
REMARK    9  A    between atoms: S_22  and  C_25
REMARK   10  A    between atoms: N_27  and  C_28
REMARK                            x       y       z     vdW  Elec       q    Type
REMARK                         _______ _______ _______ _____ _____    ______ ____
ROOT
ATOM      1  N   UNL     1      -9.755   5.182 131.254  0.00  0.00    +0.000 N 
ENDROOT
BRANCH   1   5
ATOM      2  C   UNL     1     -12.340   8.218 129.791  0.00  0.00    +0.000 A 
ATOM      3  C   UNL     1     -12.766   7.489 130.885  0.00  0.00    +0.000 A 
ATOM      4  C   UNL     1     -11.919   6.499 131.423  0.00  0.00    +0.000 A 
ATOM      5  C   UNL     1     -10.642   6.297 130.904  0.00  0.00    +0.000 A 
ATOM      6  C   UNL     1     -10.278   7.277 129.990  0.00  0.00    +0.000 A 
ATOM      7  N   UNL     1     -11.097   8.137 129.341  0.00  0.00    +0.000 NA
BRANCH   2   9
ATOM      8  C   UNL     1     -13.256  10.305 129.883  0.00  0.00    +0.000 C 
ATOM      9  O   UNL     1     -13.124   9.113 129.123  0.00  0.00    +0.000 OA
ENDBRANCH   2   9
ENDBRANCH   1   5
BRANCH   1  10
ATOM     10  S   UNL     1      -8.754   5.337 132.627  0.00  0.00    +0.000 S 
ATOM     11  O   UNL     1      -9.211   6.524 133.345  0.00  0.00    +0.000 OA
ATOM     12  O   UNL     1      -8.679   4.067 133.305  0.00  0.00    +0.000 OA
BRANCH  10  13
ATOM     13  C   UNL     1      -7.084   5.726 132.223  0.00  0.00    +0.000 A 
ATOM     14  C   UNL     1      -6.669   6.700 131.334  0.00  0.00    +0.000 A 
ATOM     15  N   UNL     1      -5.305   6.662 131.355  0.00  0.00    +0.000 N 
ATOM     16  C   UNL     1      -4.415   7.501 130.588  0.00  0.00    +0.000 C 
ATOM     17  C   UNL     1      -4.929   5.681 132.229  0.00  0.00    +0.000 A 
ATOM     18  N   UNL     1      -5.975   5.083 132.763  0.00  0.00    +0.000 NA
ENDBRANCH  10  13
ENDBRANCH   1  10
BRANCH   1  19
ATOM     19  C   UNL     1      -9.741   3.833 130.566  0.00  0.00    +0.000 C 
BRANCH  19  20
ATOM     20  C   UNL     1      -8.550   3.453 129.675  0.00  0.00    +0.000 A 
ATOM     21  C   UNL     1      -8.378   4.094 128.445  0.00  0.00    +0.000 A 
ATOM     22  C   UNL     1      -7.083   4.189 127.921  0.00  0.00    +0.000 A 
ATOM     23  C   UNL     1      -6.025   3.492 128.507  0.00  0.00    +0.000 A 
ATOM     24  C   UNL     1      -6.338   2.728 129.628  0.00  0.00    +0.000 A 
ATOM     25  N   UNL     1      -7.553   2.720 130.244  0.00  0.00    +0.000 NA
BRANCH  23  26
ATOM     26  C   UNL     1      -4.685   3.501 127.910  0.00  0.00    +0.000 A 
ATOM     27  C   UNL     1      -3.796   4.482 128.376  0.00  0.00    +0.000 A 
ATOM     28  C   UNL     1      -2.477   4.534 127.937  0.00  0.00    +0.000 A 
ATOM     29  C   UNL     1      -2.018   3.599 127.019  0.00  0.00    +0.000 A 
ATOM     30  C   UNL     1      -2.884   2.624 126.525  0.00  0.00    +0.000 A 
ATOM     31  C   UNL     1      -4.223   2.566 126.953  0.00  0.00    +0.000 A 
ATOM     32  C   UNL     1      -5.112   1.501 126.370  0.00  0.00    +0.000 C 
ENDBRANCH  23  26
ENDBRANCH  19  20
ENDBRANCH   1  19
TORSDOF 7
ENDMDL
MODEL 9
REMARK VINA RESULT:      -7.9      3.502      8.623
REMARK  Name = CHEMBL515975
REMARK  10 active torsions:
REMARK  status: ('A' for Active; 'I' for Inactive)
REMARK    1  A    between atoms: C_1  and  O_2
REMARK    2  A    between atoms: O_2  and  C_3
REMARK    3  A    between atoms: C_6  and  N_7
REMARK    4  A    between atoms: N_7  and  C_8
REMARK    5  A    between atoms: N_7  and  S_22
REMARK    6  A    between atoms: C_8  and  C_9
REMARK    7  A    between atoms: C_12  and  C_13
REMARK    8  A    between atoms: C_18  and  C_19
REMARK    9  A    between atoms: S_22  and  C_25
REMARK   10  A    between atoms: N_27  and  C_28
REMARK                            x       y       z     vdW  Elec       q    Type
REMARK                         _______ _______ _______ _____ _____    ______ ____
ROOT
ATOM      1  N   UNL     1      -7.896   4.104 129.971  0.00  0.00    +0.000 N 
ENDROOT
BRANCH   1   5
ATOM      2  C   UNL     1      -3.860   5.017 129.009  0.00  0.00    +0.000 A 
ATOM      3  C   UNL     1      -4.093   4.287 130.159  0.00  0.00    +0.000 A 
ATOM      4  C   UNL     1      -5.417   3.931 130.491  0.00  0.00    +0.000 A 
ATOM      5  C   UNL     1      -6.474   4.253 129.642  0.00  0.00    +0.000 A 
ATOM      6  C   UNL     1      -6.042   4.750 128.419  0.00  0.00    +0.000 A 
ATOM      7  N   UNL     1      -4.818   5.244 128.121  0.00  0.00    +0.000 NA
BRANCH   2   9
ATOM      8  C   UNL     1      -2.751   6.889 128.327  0.00  0.00    +0.000 C 
ATOM      9  O   UNL     1      -2.639   5.512 128.658  0.00  0.00    +0.000 OA
ENDBRANCH   2   9
ENDBRANCH   1   5
BRANCH   1  10
ATOM     10  S   UNL     1      -8.695   5.404 130.735  0.00  0.00    +0.000 S 
ATOM     11  O   UNL     1      -9.668   4.816 131.652  0.00  0.00    +0.000 OA
ATOM     12  O   UNL     1      -7.715   6.341 131.225  0.00  0.00    +0.000 OA
BRANCH  10  13
ATOM     13  C   UNL     1      -9.697   6.343 129.631  0.00  0.00    +0.000 A 
ATOM     14  C   UNL     1     -10.640   7.286 129.993  0.00  0.00    +0.000 A 
ATOM     15  N   UNL     1     -11.147   7.770 128.822  0.00  0.00    +0.000 N 
ATOM     16  C   UNL     1     -12.166   8.783 128.686  0.00  0.00    +0.000 C 
ATOM     17  C   UNL     1     -10.521   7.117 127.796  0.00  0.00    +0.000 A 
ATOM     18  N   UNL     1      -9.648   6.237 128.245  0.00  0.00    +0.000 NA
ENDBRANCH  10  13
ENDBRANCH   1  10
BRANCH   1  19
ATOM     19  C   UNL     1      -8.762   2.928 129.572  0.00  0.00    +0.000 C 
BRANCH  19  20
ATOM     20  C   UNL     1      -8.225   1.904 128.563  0.00  0.00    +0.000 A 
ATOM     21  C   UNL     1      -7.597   0.744 129.026  0.00  0.00    +0.000 A 
ATOM     22  C   UNL     1      -7.624  -0.396 128.214  0.00  0.00    +0.000 A 
ATOM     23  C   UNL     1      -8.088  -0.323 126.900  0.00  0.00    +0.000 A 
ATOM     24  C   UNL     1      -8.523   0.928 126.470  0.00  0.00    +0.000 A 
ATOM     25  N   UNL     1      -8.638   2.024 127.270  0.00  0.00    +0.000 NA
BRANCH  23  26
ATOM     26  C   UNL     1      -8.028  -1.485 126.006  0.00  0.00    +0.000 A 
ATOM     27  C   UNL     1      -9.220  -2.208 125.835  0.00  0.00    +0.000 A 
ATOM     28  C   UNL     1      -9.297  -3.280 124.952  0.00  0.00    +0.000 A 
ATOM     29  C   UNL     1      -8.179  -3.651 124.217  0.00  0.00    +0.000 A 
ATOM     30  C   UNL     1      -6.978  -2.962 124.380  0.00  0.00    +0.000 A 
ATOM     31  C   UNL     1      -6.882  -1.882 125.277  0.00  0.00    +0.000 A 
ATOM     32  C   UNL     1      -5.553  -1.191 125.421  0.00  0.00    +0.000 C 
ENDBRANCH  23  26
ENDBRANCH  19  20
ENDBRANCH   1  19
TORSDOF 7
ENDMDL
