MODEL 1
REMARK VINA RESULT:      -9.9      0.000      0.000
REMARK  Name = CHEMBL439044
REMARK  22 active torsions:
REMARK  status: ('A' for Active; 'I' for Inactive)
REMARK    1  A    between atoms: C_1  and  C_2
REMARK    2  A    between atoms: C_2  and  C_3
REMARK    3  A    between atoms: C_3  and  C_4
REMARK    4  A    between atoms: C_3  and  C_5
REMARK    5  A    between atoms: C_9  and  C_10
REMARK    6  A    between atoms: C_10  and  C_11
REMARK    7  A    between atoms: C_14  and  O_15
REMARK    8  A    between atoms: C_26  and  C_27
REMARK    9  A    between atoms: C_33  and  C_34
REMARK   10  A    between atoms: N_36  and  C_37
REMARK   11  A    between atoms: C_37  and  C_38
REMARK   12  A    between atoms: C_37  and  C_42
REMARK   13  A    between atoms: C_38  and  C_39
REMARK   14  A    between atoms: C_39  and  C_40
REMARK   15  A    between atoms: C_39  and  C_41
REMARK   16  A    between atoms: N_44  and  C_45
REMARK   17  A    between atoms: C_45  and  C_46
REMARK   18  A    between atoms: C_52  and  C_53
REMARK   19  A    between atoms: C_53  and  C_54
REMARK   20  A    between atoms: C_60  and  C_61
REMARK   21  A    between atoms: C_61  and  C_62
REMARK   22  A    between atoms: C_62  and  C_63
REMARK                            x       y       z     vdW  Elec       q    Type
REMARK                         _______ _______ _______ _____ _____    ______ ____
ROOT
ATOM      1  C   UNL     1      -3.944   4.353 134.387  0.00  0.00    +0.000 C 
ATOM      2  N   UNL     1      -4.962   2.701 134.726  0.00  0.00    +0.000 N 
ATOM      3  C   UNL     1      -5.375   1.247 134.743  0.00  0.00    +0.000 C 
ATOM      4  O   UNL     1      -6.633   1.099 134.582  0.00  0.00    +0.000 OA
ATOM      5  C   UNL     1      -4.430  -0.306 134.934  0.00  0.00    +0.000 C 
ATOM      6  N   UNL     1      -5.176  -1.521 135.576  0.00  0.00    +0.000 N 
ATOM      7  C   UNL     1      -5.849  -2.659 135.160  0.00  0.00    +0.000 C 
ATOM      8  O   UNL     1      -6.023  -3.527 136.037  0.00  0.00    +0.000 OA
ATOM      9  C   UNL     1      -6.428  -3.045 133.763  0.00  0.00    +0.000 C 
ATOM     10  C   UNL     1      -6.354  -2.057 132.675  0.00  0.00    +0.000 C 
ATOM     11  S   UNL     1      -7.031  -2.444 130.927  0.00  0.00    +0.000 S 
ATOM     12  S   UNL     1      -7.002  -0.680 129.890  0.00  0.00    +0.000 S 
ATOM     13  C   UNL     1      -6.411  -0.165 128.254  0.00  0.00    +0.000 C 
ATOM     14  C   UNL     1      -5.735   1.088 127.658  0.00  0.00    +0.000 C 
ATOM     15  N   UNL     1      -6.288   2.353 128.164  0.00  0.00    +0.000 N 
ATOM     16  C   UNL     1      -6.258   2.780 129.424  0.00  0.00    +0.000 C 
ATOM     17  O   UNL     1      -6.784   3.836 129.759  0.00  0.00    +0.000 OA
ATOM     18  C   UNL     1      -5.377   1.983 130.281  0.00  0.00    +0.000 C 
ATOM     19  N   UNL     1      -4.624   3.089 130.639  0.00  0.00    +0.000 N 
ATOM     20  C   UNL     1      -4.964   3.393 131.934  0.00  0.00    +0.000 C 
ATOM     21  O   UNL     1      -4.236   2.916 132.770  0.00  0.00    +0.000 OA
ATOM     22  C   UNL     1      -6.047   4.364 132.408  0.00  0.00    +0.000 C 
ATOM     23  N   UNL     1      -6.242   4.571 133.871  0.00  0.00    +0.000 N 
ATOM     24  C   UNL     1      -5.263   4.880 134.831  0.00  0.00    +0.000 C 
ATOM     25  O   UNL     1      -5.466   5.081 136.029  0.00  0.00    +0.000 OA
ATOM     26  H   UNL     1      -5.977   2.817 134.772  0.00  0.00    +0.000 HD
ATOM     27  H   UNL     1      -4.891  -1.637 136.544  0.00  0.00    +0.000 HD
ATOM     28  H   UNL     1      -6.764   3.013 127.558  0.00  0.00    +0.000 HD
ATOM     29  H   UNL     1      -3.693   2.816 130.336  0.00  0.00    +0.000 HD
ATOM     30  H   UNL     1      -6.798   3.828 134.196  0.00  0.00    +0.000 HD
ENDROOT
BRANCH  14  31
ATOM     31  C   UNL     1      -5.983   1.090 126.143  0.00  0.00    +0.000 C 
ATOM     32  O   UNL     1      -4.953   0.955 125.480  0.00  0.00    +0.000 OA
ATOM     33  N   UNL     1      -7.301   1.083 125.658  0.00  0.00    +0.000 N 
ATOM     34  C   UNL     1      -8.442   1.792 126.196  0.00  0.00    +0.000 C 
ATOM     35  C   UNL     1      -9.578   0.850 125.926  0.00  0.00    +0.000 C 
ATOM     36  C   UNL     1      -9.310   0.420 124.512  0.00  0.00    +0.000 C 
ATOM     37  C   UNL     1      -7.790   0.541 124.342  0.00  0.00    +0.000 C 
BRANCH  37  38
ATOM     38  C   UNL     1      -7.770   1.542 123.123  0.00  0.00    +0.000 C 
ATOM     39  O   UNL     1      -8.783   2.161 122.797  0.00  0.00    +0.000 OA
ATOM     40  N   UNL     1      -6.509   1.795 122.562  0.00  0.00    +0.000 N 
ATOM     41  H   UNL     1      -5.719   1.180 122.742  0.00  0.00    +0.000 HD
BRANCH  40  42
ATOM     42  C   UNL     1      -6.189   3.080 121.878  0.00  0.00    +0.000 C 
BRANCH  42  43
ATOM     43  C   UNL     1      -5.840   4.157 122.956  0.00  0.00    +0.000 C 
ATOM     44  O   UNL     1      -4.935   4.972 122.783  0.00  0.00    +0.000 OA
ATOM     45  N   UNL     1      -6.589   4.124 124.117  0.00  0.00    +0.000 N 
ATOM     46  H   UNL     1      -7.305   3.428 124.219  0.00  0.00    +0.000 HD
BRANCH  45  47
ATOM     47  C   UNL     1      -6.381   5.083 125.204  0.00  0.00    +0.000 C 
BRANCH  47  48
ATOM     48  C   UNL     1      -5.198   4.787 126.143  0.00  0.00    +0.000 C 
ATOM     49  N   UNL     1      -4.196   3.978 125.683  0.00  0.00    +0.000 N 
ATOM     50  O   UNL     1      -5.125   5.249 127.280  0.00  0.00    +0.000 OA
ATOM     51  H   UNL     1      -4.151   3.548 124.778  0.00  0.00    +0.000 HD
ATOM     52  H   UNL     1      -3.422   3.790 126.310  0.00  0.00    +0.000 HD
ENDBRANCH  47  48
ENDBRANCH  45  47
ENDBRANCH  42  43
BRANCH  42  53
ATOM     53  C   UNL     1      -7.327   3.665 120.966  0.00  0.00    +0.000 C 
BRANCH  53  54
ATOM     54  C   UNL     1      -6.913   3.984 119.534  0.00  0.00    +0.000 C 
ATOM     55  C   UNL     1      -8.077   4.501 118.766  0.00  0.00    +0.000 C 
ATOM     56  C   UNL     1      -5.970   5.141 119.343  0.00  0.00    +0.000 C 
ENDBRANCH  53  54
ENDBRANCH  42  53
ENDBRANCH  40  42
ENDBRANCH  37  38
ENDBRANCH  14  31
BRANCH   1  57
ATOM     57  C   UNL     1      -3.326   5.593 132.947  0.00  0.00    +0.000 C 
ATOM     58  C   UNL     1      -2.929   7.040 132.297  0.00  0.00    +0.000 C 
BRANCH  57  60
ATOM     59  C   UNL     1      -1.364   6.476 131.985  0.00  0.00    +0.000 C 
ATOM     60  C   UNL     1      -1.931   5.268 132.625  0.00  0.00    +0.000 C 
ENDBRANCH  57  60
ENDBRANCH   1  57
BRANCH  18  61
ATOM     61  C   UNL     1      -6.022   1.326 131.429  0.00  0.00    +0.000 C 
BRANCH  61  62
ATOM     62  C   UNL     1      -7.401   1.669 131.259  0.00  0.00    +0.000 C 
ATOM     63  N   UNL     1      -8.264   1.552 130.278  0.00  0.00    +0.000 N 
ATOM     64  O   UNL     1      -7.814   2.400 132.253  0.00  0.00    +0.000 OA
ATOM     65  H   UNL     1      -8.395   0.667 129.817  0.00  0.00    +0.000 HD
ATOM     66  H   UNL     1      -9.154   2.024 130.423  0.00  0.00    +0.000 HD
ENDBRANCH  61  62
ENDBRANCH  18  61
BRANCH   5  67
ATOM     67  C   UNL     1      -3.267  -1.076 133.906  0.00  0.00    +0.000 C 
BRANCH  67  68
ATOM     68  C   UNL     1      -1.996  -1.702 134.474  0.00  0.00    +0.000 A 
ATOM     69  C   UNL     1      -0.910  -1.122 133.979  0.00  0.00    +0.000 A 
ATOM     70  C   UNL     1       0.217  -1.906 134.074  0.00  0.00    +0.000 A 
ATOM     71  C   UNL     1       0.602  -3.085 134.620  0.00  0.00    +0.000 A 
ATOM     72  C   UNL     1      -0.470  -3.716 135.071  0.00  0.00    +0.000 A 
ATOM     73  C   UNL     1      -1.751  -3.011 135.071  0.00  0.00    +0.000 A 
BRANCH  71  74
ATOM     74  O   UNL     1       1.745  -3.710 134.171  0.00  0.00    +0.000 OA
ATOM     75  H   UNL     1       2.069  -4.461 134.719  0.00  0.00    +0.000 HD
ENDBRANCH  71  74
ENDBRANCH  67  68
ENDBRANCH   5  67
BRANCH  22  76
ATOM     76  C   UNL     1      -6.052   5.731 131.798  0.00  0.00    +0.000 C 
BRANCH  76  77
ATOM     77  C   UNL     1      -7.436   6.453 132.114  0.00  0.00    +0.000 C 
BRANCH  77  78
ATOM     78  C   UNL     1      -8.445   6.392 131.060  0.00  0.00    +0.000 C 
ATOM     79  N   UNL     1      -9.123   5.228 130.993  0.00  0.00    +0.000 N 
ATOM     80  O   UNL     1      -8.609   7.327 130.291  0.00  0.00    +0.000 OA
ATOM     81  H   UNL     1      -8.927   4.424 131.571  0.00  0.00    +0.000 HD
ATOM     82  H   UNL     1      -9.904   5.203 130.366  0.00  0.00    +0.000 HD
ENDBRANCH  77  78
ENDBRANCH  76  77
ENDBRANCH  22  76
TORSDOF 18
ENDMDL
MODEL 2
REMARK VINA RESULT:      -9.9      1.438      2.565
REMARK  Name = CHEMBL439044
REMARK  22 active torsions:
REMARK  status: ('A' for Active; 'I' for Inactive)
REMARK    1  A    between atoms: C_1  and  C_2
REMARK    2  A    between atoms: C_2  and  C_3
REMARK    3  A    between atoms: C_3  and  C_4
REMARK    4  A    between atoms: C_3  and  C_5
REMARK    5  A    between atoms: C_9  and  C_10
REMARK    6  A    between atoms: C_10  and  C_11
REMARK    7  A    between atoms: C_14  and  O_15
REMARK    8  A    between atoms: C_26  and  C_27
REMARK    9  A    between atoms: C_33  and  C_34
REMARK   10  A    between atoms: N_36  and  C_37
REMARK   11  A    between atoms: C_37  and  C_38
REMARK   12  A    between atoms: C_37  and  C_42
REMARK   13  A    between atoms: C_38  and  C_39
REMARK   14  A    between atoms: C_39  and  C_40
REMARK   15  A    between atoms: C_39  and  C_41
REMARK   16  A    between atoms: N_44  and  C_45
REMARK   17  A    between atoms: C_45  and  C_46
REMARK   18  A    between atoms: C_52  and  C_53
REMARK   19  A    between atoms: C_53  and  C_54
REMARK   20  A    between atoms: C_60  and  C_61
REMARK   21  A    between atoms: C_61  and  C_62
REMARK   22  A    between atoms: C_62  and  C_63
REMARK                            x       y       z     vdW  Elec       q    Type
REMARK                         _______ _______ _______ _____ _____    ______ ____
ROOT
ATOM      1  C   UNL     1      -4.184   3.689 134.960  0.00  0.00    +0.000 C 
ATOM      2  N   UNL     1      -4.969   1.898 135.197  0.00  0.00    +0.000 N 
ATOM      3  C   UNL     1      -5.187   0.404 135.118  0.00  0.00    +0.000 C 
ATOM      4  O   UNL     1      -6.420   0.103 134.966  0.00  0.00    +0.000 OA
ATOM      5  C   UNL     1      -4.043  -1.020 135.185  0.00  0.00    +0.000 C 
ATOM      6  N   UNL     1      -4.609  -2.363 135.750  0.00  0.00    +0.000 N 
ATOM      7  C   UNL     1      -5.137  -3.549 135.266  0.00  0.00    +0.000 C 
ATOM      8  O   UNL     1      -5.176  -4.491 136.081  0.00  0.00    +0.000 OA
ATOM      9  C   UNL     1      -5.694  -3.913 133.853  0.00  0.00    +0.000 C 
ATOM     10  C   UNL     1      -5.776  -2.852 132.836  0.00  0.00    +0.000 C 
ATOM     11  S   UNL     1      -6.438  -3.205 131.076  0.00  0.00    +0.000 S 
ATOM     12  S   UNL     1      -6.665  -1.386 130.166  0.00  0.00    +0.000 S 
ATOM     13  C   UNL     1      -6.185  -0.688 128.562  0.00  0.00    +0.000 C 
ATOM     14  C   UNL     1      -5.693   0.681 128.046  0.00  0.00    +0.000 C 
ATOM     15  N   UNL     1      -6.394   1.824 128.648  0.00  0.00    +0.000 N 
ATOM     16  C   UNL     1      -6.390   2.165 129.934  0.00  0.00    +0.000 C 
ATOM     17  O   UNL     1      -7.042   3.117 130.351  0.00  0.00    +0.000 OA
ATOM     18  C   UNL     1      -5.393   1.435 130.720  0.00  0.00    +0.000 C 
ATOM     19  N   UNL     1      -4.782   2.603 131.144  0.00  0.00    +0.000 N 
ATOM     20  C   UNL     1      -5.128   2.772 132.461  0.00  0.00    +0.000 C 
ATOM     21  O   UNL     1      -4.324   2.339 133.251  0.00  0.00    +0.000 OA
ATOM     22  C   UNL     1      -6.317   3.556 133.019  0.00  0.00    +0.000 C 
ATOM     23  N   UNL     1      -6.502   3.636 134.496  0.00  0.00    +0.000 N 
ATOM     24  C   UNL     1      -5.550   4.006 135.460  0.00  0.00    +0.000 C 
ATOM     25  O   UNL     1      -5.749   4.096 136.672  0.00  0.00    +0.000 OA
ATOM     26  H   UNL     1      -5.989   1.875 135.267  0.00  0.00    +0.000 HD
ATOM     27  H   UNL     1      -4.288  -2.507 136.704  0.00  0.00    +0.000 HD
ATOM     28  H   UNL     1      -6.967   2.456 128.097  0.00  0.00    +0.000 HD
ATOM     29  H   UNL     1      -3.831   2.477 130.808  0.00  0.00    +0.000 HD
ATOM     30  H   UNL     1      -6.948   2.806 134.775  0.00  0.00    +0.000 HD
ENDROOT
BRANCH  14  31
ATOM     31  C   UNL     1      -5.975   0.753 126.538  0.00  0.00    +0.000 C 
ATOM     32  O   UNL     1      -4.996   1.097 125.874  0.00  0.00    +0.000 OA
ATOM     33  N   UNL     1      -7.206   0.294 126.042  0.00  0.00    +0.000 N 
ATOM     34  C   UNL     1      -8.512   0.447 126.646  0.00  0.00    +0.000 C 
ATOM     35  C   UNL     1      -9.210  -0.824 126.259  0.00  0.00    +0.000 C 
ATOM     36  C   UNL     1      -8.847  -0.961 124.808  0.00  0.00    +0.000 C 
ATOM     37  C   UNL     1      -7.496  -0.247 124.668  0.00  0.00    +0.000 C 
BRANCH  37  38
ATOM     38  C   UNL     1      -7.903   0.811 123.572  0.00  0.00    +0.000 C 
ATOM     39  O   UNL     1      -9.063   0.889 123.168  0.00  0.00    +0.000 OA
ATOM     40  N   UNL     1      -6.912   1.742 123.226  0.00  0.00    +0.000 N 
ATOM     41  H   UNL     1      -5.933   1.580 123.453  0.00  0.00    +0.000 HD
BRANCH  40  42
ATOM     42  C   UNL     1      -7.245   3.107 122.727  0.00  0.00    +0.000 C 
BRANCH  42  43
ATOM     43  C   UNL     1      -6.606   3.302 121.315  0.00  0.00    +0.000 C 
ATOM     44  O   UNL     1      -5.593   2.692 120.975  0.00  0.00    +0.000 OA
ATOM     45  N   UNL     1      -7.229   4.212 120.482  0.00  0.00    +0.000 N 
ATOM     46  H   UNL     1      -8.043   4.700 120.811  0.00  0.00    +0.000 HD
BRANCH  45  47
ATOM     47  C   UNL     1      -6.749   4.484 119.126  0.00  0.00    +0.000 C 
BRANCH  47  48
ATOM     48  C   UNL     1      -5.787   5.677 118.981  0.00  0.00    +0.000 C 
ATOM     49  N   UNL     1      -5.739   6.325 117.778  0.00  0.00    +0.000 N 
ATOM     50  O   UNL     1      -5.070   6.063 119.903  0.00  0.00    +0.000 OA
ATOM     51  H   UNL     1      -6.275   6.098 116.961  0.00  0.00    +0.000 HD
ATOM     52  H   UNL     1      -5.101   7.108 117.695  0.00  0.00    +0.000 HD
ENDBRANCH  47  48
ENDBRANCH  45  47
ENDBRANCH  42  43
BRANCH  42  53
ATOM     53  C   UNL     1      -6.770   4.297 123.637  0.00  0.00    +0.000 C 
BRANCH  53  54
ATOM     54  C   UNL     1      -6.776   4.012 125.135  0.00  0.00    +0.000 C 
ATOM     55  C   UNL     1      -5.615   4.673 125.788  0.00  0.00    +0.000 C 
ATOM     56  C   UNL     1      -7.886   4.633 125.938  0.00  0.00    +0.000 C 
ENDBRANCH  53  54
ENDBRANCH  42  53
ENDBRANCH  40  42
ENDBRANCH  37  38
ENDBRANCH  14  31
BRANCH   1  57
ATOM     57  C   UNL     1      -3.768   5.095 133.603  0.00  0.00    +0.000 C 
ATOM     58  C   UNL     1      -3.656   6.620 133.026  0.00  0.00    +0.000 C 
BRANCH  57  60
ATOM     59  C   UNL     1      -2.149   4.999 131.893  0.00  0.00    +0.000 C 
ATOM     60  C   UNL     1      -2.320   5.088 133.361  0.00  0.00    +0.000 C 
ENDBRANCH  57  60
ENDBRANCH   1  57
BRANCH  18  61
ATOM     61  C   UNL     1      -5.919   0.622 131.827  0.00  0.00    +0.000 C 
BRANCH  61  62
ATOM     62  C   UNL     1      -7.334   0.796 131.707  0.00  0.00    +0.000 C 
ATOM     63  N   UNL     1      -8.180   0.788 130.703  0.00  0.00    +0.000 N 
ATOM     64  O   UNL     1      -7.839   1.210 132.832  0.00  0.00    +0.000 OA
ATOM     65  H   UNL     1      -8.185   0.025 130.048  0.00  0.00    +0.000 HD
ATOM     66  H   UNL     1      -9.127   1.083 130.931  0.00  0.00    +0.000 HD
ENDBRANCH  61  62
ENDBRANCH  18  61
BRANCH   5  67
ATOM     67  C   UNL     1      -2.815  -1.558 134.088  0.00  0.00    +0.000 C 
BRANCH  67  68
ATOM     68  C   UNL     1      -1.474  -2.085 134.593  0.00  0.00    +0.000 A 
ATOM     69  C   UNL     1      -0.462  -1.409 134.068  0.00  0.00    +0.000 A 
ATOM     70  C   UNL     1       0.729  -2.097 134.104  0.00  0.00    +0.000 A 
ATOM     71  C   UNL     1       1.233  -3.248 134.611  0.00  0.00    +0.000 A 
ATOM     72  C   UNL     1       0.236  -3.974 135.090  0.00  0.00    +0.000 A 
ATOM     73  C   UNL     1      -1.098  -3.378 135.155  0.00  0.00    +0.000 A 
BRANCH  71  74
ATOM     74  O   UNL     1       2.405  -3.768 134.105  0.00  0.00    +0.000 OA
ATOM     75  H   UNL     1       3.236  -3.418 134.499  0.00  0.00    +0.000 HD
ENDBRANCH  71  74
ENDBRANCH  67  68
ENDBRANCH   5  67
BRANCH  22  76
ATOM     76  C   UNL     1      -6.515   4.949 132.507  0.00  0.00    +0.000 C 
BRANCH  76  77
ATOM     77  C   UNL     1      -7.677   5.662 133.330  0.00  0.00    +0.000 C 
BRANCH  77  78
ATOM     78  C   UNL     1      -8.878   6.007 132.575  0.00  0.00    +0.000 C 
ATOM     79  N   UNL     1     -10.016   5.449 133.035  0.00  0.00    +0.000 N 
ATOM     80  O   UNL     1      -8.814   6.719 131.583  0.00  0.00    +0.000 OA
ATOM     81  H   UNL     1     -10.055   4.791 133.800  0.00  0.00    +0.000 HD
ATOM     82  H   UNL     1     -10.869   5.767 132.616  0.00  0.00    +0.000 HD
ENDBRANCH  77  78
ENDBRANCH  76  77
ENDBRANCH  22  76
TORSDOF 18
ENDMDL
MODEL 3
REMARK VINA RESULT:      -9.8      2.206      3.803
REMARK  Name = CHEMBL439044
REMARK  22 active torsions:
REMARK  status: ('A' for Active; 'I' for Inactive)
REMARK    1  A    between atoms: C_1  and  C_2
REMARK    2  A    between atoms: C_2  and  C_3
REMARK    3  A    between atoms: C_3  and  C_4
REMARK    4  A    between atoms: C_3  and  C_5
REMARK    5  A    between atoms: C_9  and  C_10
REMARK    6  A    between atoms: C_10  and  C_11
REMARK    7  A    between atoms: C_14  and  O_15
REMARK    8  A    between atoms: C_26  and  C_27
REMARK    9  A    between atoms: C_33  and  C_34
REMARK   10  A    between atoms: N_36  and  C_37
REMARK   11  A    between atoms: C_37  and  C_38
REMARK   12  A    between atoms: C_37  and  C_42
REMARK   13  A    between atoms: C_38  and  C_39
REMARK   14  A    between atoms: C_39  and  C_40
REMARK   15  A    between atoms: C_39  and  C_41
REMARK   16  A    between atoms: N_44  and  C_45
REMARK   17  A    between atoms: C_45  and  C_46
REMARK   18  A    between atoms: C_52  and  C_53
REMARK   19  A    between atoms: C_53  and  C_54
REMARK   20  A    between atoms: C_60  and  C_61
REMARK   21  A    between atoms: C_61  and  C_62
REMARK   22  A    between atoms: C_62  and  C_63
REMARK                            x       y       z     vdW  Elec       q    Type
REMARK                         _______ _______ _______ _____ _____    ______ ____
ROOT
ATOM      1  C   UNL     1      -3.805   4.222 135.066  0.00  0.00    +0.000 C 
ATOM      2  N   UNL     1      -4.571   2.485 135.593  0.00  0.00    +0.000 N 
ATOM      3  C   UNL     1      -4.833   0.998 135.681  0.00  0.00    +0.000 C 
ATOM      4  O   UNL     1      -6.078   0.732 135.786  0.00  0.00    +0.000 OA
ATOM      5  C   UNL     1      -3.728  -0.457 135.653  0.00  0.00    +0.000 C 
ATOM      6  N   UNL     1      -4.206  -1.730 136.424  0.00  0.00    +0.000 N 
ATOM      7  C   UNL     1      -4.841  -2.930 136.147  0.00  0.00    +0.000 C 
ATOM      8  O   UNL     1      -4.746  -3.803 137.031  0.00  0.00    +0.000 OA
ATOM      9  C   UNL     1      -5.661  -3.382 134.897  0.00  0.00    +0.000 C 
ATOM     10  C   UNL     1      -5.910  -2.402 133.828  0.00  0.00    +0.000 C 
ATOM     11  S   UNL     1      -6.898  -2.866 132.256  0.00  0.00    +0.000 S 
ATOM     12  S   UNL     1      -7.252  -1.117 131.256  0.00  0.00    +0.000 S 
ATOM     13  C   UNL     1      -7.067  -0.564 129.538  0.00  0.00    +0.000 C 
ATOM     14  C   UNL     1      -6.651   0.741 128.827  0.00  0.00    +0.000 C 
ATOM     15  N   UNL     1      -7.202   1.954 129.451  0.00  0.00    +0.000 N 
ATOM     16  C   UNL     1      -6.949   2.393 130.681  0.00  0.00    +0.000 C 
ATOM     17  O   UNL     1      -7.490   3.398 131.130  0.00  0.00    +0.000 OA
ATOM     18  C   UNL     1      -5.838   1.690 131.327  0.00  0.00    +0.000 C 
ATOM     19  N   UNL     1      -5.133   2.865 131.531  0.00  0.00    +0.000 N 
ATOM     20  C   UNL     1      -5.222   3.148 132.871  0.00  0.00    +0.000 C 
ATOM     21  O   UNL     1      -4.294   2.749 133.531  0.00  0.00    +0.000 OA
ATOM     22  C   UNL     1      -6.268   4.017 133.572  0.00  0.00    +0.000 C 
ATOM     23  N   UNL     1      -6.171   4.218 135.045  0.00  0.00    +0.000 N 
ATOM     24  C   UNL     1      -5.046   4.627 135.782  0.00  0.00    +0.000 C 
ATOM     25  O   UNL     1      -5.012   4.819 136.998  0.00  0.00    +0.000 OA
ATOM     26  H   UNL     1      -5.560   2.506 135.853  0.00  0.00    +0.000 HD
ATOM     27  H   UNL     1      -3.715  -1.811 137.310  0.00  0.00    +0.000 HD
ATOM     28  H   UNL     1      -7.854   2.561 128.965  0.00  0.00    +0.000 HD
ATOM     29  H   UNL     1      -4.265   2.678 131.036  0.00  0.00    +0.000 HD
ATOM     30  H   UNL     1      -6.574   3.430 135.471  0.00  0.00    +0.000 HD
ENDROOT
BRANCH  14  31
ATOM     31  C   UNL     1      -7.210   0.706 127.397  0.00  0.00    +0.000 C 
ATOM     32  O   UNL     1      -8.254   0.061 127.297  0.00  0.00    +0.000 OA
ATOM     33  N   UNL     1      -6.613   1.498 126.402  0.00  0.00    +0.000 N 
ATOM     34  C   UNL     1      -5.203   1.766 126.216  0.00  0.00    +0.000 C 
ATOM     35  C   UNL     1      -5.196   3.174 125.698  0.00  0.00    +0.000 C 
ATOM     36  C   UNL     1      -6.298   3.146 124.677  0.00  0.00    +0.000 C 
ATOM     37  C   UNL     1      -7.261   2.054 125.163  0.00  0.00    +0.000 C 
BRANCH  37  38
ATOM     38  C   UNL     1      -7.232   1.131 123.885  0.00  0.00    +0.000 C 
ATOM     39  O   UNL     1      -6.326   1.227 123.057  0.00  0.00    +0.000 OA
ATOM     40  N   UNL     1      -8.192   0.109 123.849  0.00  0.00    +0.000 N 
ATOM     41  H   UNL     1      -9.010   0.132 124.455  0.00  0.00    +0.000 HD
BRANCH  40  42
ATOM     42  C   UNL     1      -7.966  -1.167 123.112  0.00  0.00    +0.000 C 
BRANCH  42  43
ATOM     43  C   UNL     1      -8.714  -2.321 123.853  0.00  0.00    +0.000 C 
ATOM     44  O   UNL     1      -9.087  -3.333 123.261  0.00  0.00    +0.000 OA
ATOM     45  N   UNL     1      -8.950  -2.130 125.201  0.00  0.00    +0.000 N 
ATOM     46  H   UNL     1      -8.642  -1.279 125.637  0.00  0.00    +0.000 HD
BRANCH  45  47
ATOM     47  C   UNL     1      -9.626  -3.135 126.024  0.00  0.00    +0.000 C 
BRANCH  47  48
ATOM     48  C   UNL     1      -8.910  -3.525 127.330  0.00  0.00    +0.000 C 
ATOM     49  N   UNL     1      -7.649  -3.040 127.544  0.00  0.00    +0.000 N 
ATOM     50  O   UNL     1      -9.429  -4.249 128.176  0.00  0.00    +0.000 OA
ATOM     51  H   UNL     1      -7.131  -2.444 126.925  0.00  0.00    +0.000 HD
ATOM     52  H   UNL     1      -7.188  -3.304 128.407  0.00  0.00    +0.000 HD
ENDBRANCH  47  48
ENDBRANCH  45  47
ENDBRANCH  42  43
BRANCH  42  53
ATOM     53  C   UNL     1      -6.464  -1.597 122.946  0.00  0.00    +0.000 C 
BRANCH  53  54
ATOM     54  C   UNL     1      -5.901  -2.446 124.080  0.00  0.00    +0.000 C 
ATOM     55  C   UNL     1      -4.722  -3.219 123.606  0.00  0.00    +0.000 C 
ATOM     56  C   UNL     1      -5.259  -1.709 125.223  0.00  0.00    +0.000 C 
ENDBRANCH  53  54
ENDBRANCH  42  53
ENDBRANCH  40  42
ENDBRANCH  37  38
ENDBRANCH  14  31
BRANCH   1  57
ATOM     57  C   UNL     1      -3.621   5.501 133.543  0.00  0.00    +0.000 C 
ATOM     58  C   UNL     1      -3.551   6.973 132.835  0.00  0.00    +0.000 C 
BRANCH  57  60
ATOM     59  C   UNL     1      -2.421   5.391 131.517  0.00  0.00    +0.000 C 
ATOM     60  C   UNL     1      -2.268   5.369 132.990  0.00  0.00    +0.000 C 
ENDBRANCH  57  60
ENDBRANCH   1  57
BRANCH  18  61
ATOM     61  C   UNL     1      -6.164   0.986 132.576  0.00  0.00    +0.000 C 
BRANCH  61  62
ATOM     62  C   UNL     1      -7.573   1.201 132.706  0.00  0.00    +0.000 C 
ATOM     63  N   UNL     1      -8.611   0.987 131.931  0.00  0.00    +0.000 N 
ATOM     64  O   UNL     1      -7.830   1.912 133.765  0.00  0.00    +0.000 OA
ATOM     65  H   UNL     1      -8.754   0.086 131.509  0.00  0.00    +0.000 HD
ATOM     66  H   UNL     1      -9.488   1.381 132.263  0.00  0.00    +0.000 HD
ENDBRANCH  61  62
ENDBRANCH  18  61
BRANCH   5  67
ATOM     67  C   UNL     1      -2.739  -1.124 134.397  0.00  0.00    +0.000 C 
BRANCH  67  68
ATOM     68  C   UNL     1      -1.381  -1.751 134.703  0.00  0.00    +0.000 A 
ATOM     69  C   UNL     1      -0.407  -1.135 134.048  0.00  0.00    +0.000 A 
ATOM     70  C   UNL     1       0.726  -1.904 133.908  0.00  0.00    +0.000 A 
ATOM     71  C   UNL     1       1.213  -3.097 134.327  0.00  0.00    +0.000 A 
ATOM     72  C   UNL     1       0.244  -3.763 134.934  0.00  0.00    +0.000 A 
ATOM     73  C   UNL     1      -1.023  -3.079 135.191  0.00  0.00    +0.000 A 
BRANCH  71  74
ATOM     74  O   UNL     1       2.264  -3.685 133.656  0.00  0.00    +0.000 OA
ATOM     75  H   UNL     1       2.038  -4.126 132.805  0.00  0.00    +0.000 HD
ENDBRANCH  71  74
ENDBRANCH  67  68
ENDBRANCH   5  67
BRANCH  22  76
ATOM     76  C   UNL     1      -6.528   5.372 132.991  0.00  0.00    +0.000 C 
BRANCH  76  77
ATOM     77  C   UNL     1      -7.832   5.999 133.658  0.00  0.00    +0.000 C 
BRANCH  77  78
ATOM     78  C   UNL     1      -9.098   5.696 132.996  0.00  0.00    +0.000 C 
ATOM     79  N   UNL     1      -9.637   4.505 133.326  0.00  0.00    +0.000 N 
ATOM     80  O   UNL     1      -9.583   6.468 132.183  0.00  0.00    +0.000 OA
ATOM     81  H   UNL     1      -9.192   3.829 133.931  0.00  0.00    +0.000 HD
ATOM     82  H   UNL     1     -10.563   4.326 132.988  0.00  0.00    +0.000 HD
ENDBRANCH  77  78
ENDBRANCH  76  77
ENDBRANCH  22  76
TORSDOF 18
ENDMDL
MODEL 4
REMARK VINA RESULT:      -9.3      2.428      4.185
REMARK  Name = CHEMBL439044
REMARK  22 active torsions:
REMARK  status: ('A' for Active; 'I' for Inactive)
REMARK    1  A    between atoms: C_1  and  C_2
REMARK    2  A    between atoms: C_2  and  C_3
REMARK    3  A    between atoms: C_3  and  C_4
REMARK    4  A    between atoms: C_3  and  C_5
REMARK    5  A    between atoms: C_9  and  C_10
REMARK    6  A    between atoms: C_10  and  C_11
REMARK    7  A    between atoms: C_14  and  O_15
REMARK    8  A    between atoms: C_26  and  C_27
REMARK    9  A    between atoms: C_33  and  C_34
REMARK   10  A    between atoms: N_36  and  C_37
REMARK   11  A    between atoms: C_37  and  C_38
REMARK   12  A    between atoms: C_37  and  C_42
REMARK   13  A    between atoms: C_38  and  C_39
REMARK   14  A    between atoms: C_39  and  C_40
REMARK   15  A    between atoms: C_39  and  C_41
REMARK   16  A    between atoms: N_44  and  C_45
REMARK   17  A    between atoms: C_45  and  C_46
REMARK   18  A    between atoms: C_52  and  C_53
REMARK   19  A    between atoms: C_53  and  C_54
REMARK   20  A    between atoms: C_60  and  C_61
REMARK   21  A    between atoms: C_61  and  C_62
REMARK   22  A    between atoms: C_62  and  C_63
REMARK                            x       y       z     vdW  Elec       q    Type
REMARK                         _______ _______ _______ _____ _____    ______ ____
ROOT
ATOM      1  C   UNL     1      -4.011   5.468 133.839  0.00  0.00    +0.000 C 
ATOM      2  N   UNL     1      -4.860   3.885 134.649  0.00  0.00    +0.000 N 
ATOM      3  C   UNL     1      -5.194   2.450 134.986  0.00  0.00    +0.000 C 
ATOM      4  O   UNL     1      -6.450   2.267 135.129  0.00  0.00    +0.000 OA
ATOM      5  C   UNL     1      -4.162   0.958 135.211  0.00  0.00    +0.000 C 
ATOM      6  N   UNL     1      -4.700  -0.141 136.184  0.00  0.00    +0.000 N 
ATOM      7  C   UNL     1      -5.394  -1.338 136.110  0.00  0.00    +0.000 C 
ATOM      8  O   UNL     1      -5.339  -2.052 137.130  0.00  0.00    +0.000 OA
ATOM      9  C   UNL     1      -6.240  -1.953 134.952  0.00  0.00    +0.000 C 
ATOM     10  C   UNL     1      -6.444  -1.158 133.731  0.00  0.00    +0.000 C 
ATOM     11  S   UNL     1      -7.460  -1.832 132.256  0.00  0.00    +0.000 S 
ATOM     12  S   UNL     1      -7.732  -0.262 130.972  0.00  0.00    +0.000 S 
ATOM     13  C   UNL     1      -7.527  -0.018 129.187  0.00  0.00    +0.000 C 
ATOM     14  C   UNL     1      -7.050   1.126 128.267  0.00  0.00    +0.000 C 
ATOM     15  N   UNL     1      -7.538   2.452 128.674  0.00  0.00    +0.000 N 
ATOM     16  C   UNL     1      -7.259   3.080 129.813  0.00  0.00    +0.000 C 
ATOM     17  O   UNL     1      -7.747   4.173 130.083  0.00  0.00    +0.000 OA
ATOM     18  C   UNL     1      -6.181   2.443 130.573  0.00  0.00    +0.000 C 
ATOM     19  N   UNL     1      -5.418   3.599 130.579  0.00  0.00    +0.000 N 
ATOM     20  C   UNL     1      -5.488   4.109 131.851  0.00  0.00    +0.000 C 
ATOM     21  O   UNL     1      -4.578   3.783 132.574  0.00  0.00    +0.000 OA
ATOM     22  C   UNL     1      -6.487   5.135 132.390  0.00  0.00    +0.000 C 
ATOM     23  N   UNL     1      -6.374   5.578 133.809  0.00  0.00    +0.000 N 
ATOM     24  C   UNL     1      -5.228   6.049 134.471  0.00  0.00    +0.000 C 
ATOM     25  O   UNL     1      -5.179   6.443 135.637  0.00  0.00    +0.000 OA
ATOM     26  H   UNL     1      -5.845   3.999 134.897  0.00  0.00    +0.000 HD
ATOM     27  H   UNL     1      -4.209  -0.094 137.072  0.00  0.00    +0.000 HD
ATOM     28  H   UNL     1      -8.161   3.000 128.090  0.00  0.00    +0.000 HD
ATOM     29  H   UNL     1      -4.562   3.289 130.127  0.00  0.00    +0.000 HD
ATOM     30  H   UNL     1      -6.814   4.894 134.360  0.00  0.00    +0.000 HD
ENDROOT
BRANCH  14  31
ATOM     31  C   UNL     1      -7.615   0.877 126.861  0.00  0.00    +0.000 C 
ATOM     32  O   UNL     1      -8.599   0.136 126.855  0.00  0.00    +0.000 OA
ATOM     33  N   UNL     1      -7.100   1.597 125.771  0.00  0.00    +0.000 N 
ATOM     34  C   UNL     1      -5.720   1.963 125.529  0.00  0.00    +0.000 C 
ATOM     35  C   UNL     1      -5.843   3.297 124.853  0.00  0.00    +0.000 C 
ATOM     36  C   UNL     1      -6.946   3.055 123.863  0.00  0.00    +0.000 C 
ATOM     37  C   UNL     1      -7.805   1.947 124.488  0.00  0.00    +0.000 C 
BRANCH  37  38
ATOM     38  C   UNL     1      -7.704   0.888 123.324  0.00  0.00    +0.000 C 
ATOM     39  O   UNL     1      -6.790   0.938 122.502  0.00  0.00    +0.000 OA
ATOM     40  N   UNL     1      -8.610  -0.181 123.393  0.00  0.00    +0.000 N 
ATOM     41  H   UNL     1      -9.438  -0.133 123.982  0.00  0.00    +0.000 HD
BRANCH  40  42
ATOM     42  C   UNL     1      -8.304  -1.518 122.809  0.00  0.00    +0.000 C 
BRANCH  42  43
ATOM     43  C   UNL     1      -8.937  -2.624 123.714  0.00  0.00    +0.000 C 
ATOM     44  O   UNL     1      -9.316  -3.698 123.250  0.00  0.00    +0.000 OA
ATOM     45  N   UNL     1      -9.066  -2.317 125.055  0.00  0.00    +0.000 N 
ATOM     46  H   UNL     1      -8.758  -1.419 125.384  0.00  0.00    +0.000 HD
BRANCH  45  47
ATOM     47  C   UNL     1      -9.626  -3.264 126.021  0.00  0.00    +0.000 C 
BRANCH  47  48
ATOM     48  C   UNL     1      -8.817  -3.458 127.317  0.00  0.00    +0.000 C 
ATOM     49  N   UNL     1      -7.600  -2.843 127.416  0.00  0.00    +0.000 N 
ATOM     50  O   UNL     1      -9.227  -4.139 128.255  0.00  0.00    +0.000 OA
ATOM     51  H   UNL     1      -7.168  -2.268 126.716  0.00  0.00    +0.000 HD
ATOM     52  H   UNL     1      -7.077  -2.979 128.273  0.00  0.00    +0.000 HD
ENDBRANCH  47  48
ENDBRANCH  45  47
ENDBRANCH  42  43
BRANCH  42  53
ATOM     53  C   UNL     1      -6.778  -1.852 122.639  0.00  0.00    +0.000 C 
BRANCH  53  54
ATOM     54  C   UNL     1      -6.116  -2.502 123.849  0.00  0.00    +0.000 C 
ATOM     55  C   UNL     1      -4.913  -3.267 123.426  0.00  0.00    +0.000 C 
ATOM     56  C   UNL     1      -5.472  -1.578 124.846  0.00  0.00    +0.000 C 
ENDBRANCH  53  54
ENDBRANCH  42  53
ENDBRANCH  40  42
ENDBRANCH  37  38
ENDBRANCH  14  31
BRANCH   1  57
ATOM     57  C   UNL     1      -3.771   6.461 132.122  0.00  0.00    +0.000 C 
ATOM     58  C   UNL     1      -3.658   7.786 131.171  0.00  0.00    +0.000 C 
BRANCH  57  60
ATOM     59  C   UNL     1      -2.542   5.826 130.213  0.00  0.00    +0.000 C 
ATOM     60  C   UNL     1      -2.407   6.216 131.635  0.00  0.00    +0.000 C 
ENDBRANCH  57  60
ENDBRANCH   1  57
BRANCH  18  61
ATOM     61  C   UNL     1      -6.536   1.978 131.923  0.00  0.00    +0.000 C 
BRANCH  61  62
ATOM     62  C   UNL     1      -7.898   2.398 132.057  0.00  0.00    +0.000 C 
ATOM     63  N   UNL     1      -8.525   3.247 132.836  0.00  0.00    +0.000 N 
ATOM     64  O   UNL     1      -8.681   1.637 131.351  0.00  0.00    +0.000 OA
ATOM     65  H   UNL     1      -8.191   4.191 132.936  0.00  0.00    +0.000 HD
ATOM     66  H   UNL     1      -9.541   3.223 132.776  0.00  0.00    +0.000 HD
ENDBRANCH  61  62
ENDBRANCH  18  61
BRANCH   5  67
ATOM     67  C   UNL     1      -3.213   0.040 134.090  0.00  0.00    +0.000 C 
BRANCH  67  68
ATOM     68  C   UNL     1      -3.785  -0.415 132.750  0.00  0.00    +0.000 A 
ATOM     69  C   UNL     1      -3.710  -1.733 132.616  0.00  0.00    +0.000 A 
ATOM     70  C   UNL     1      -3.766  -2.151 131.306  0.00  0.00    +0.000 A 
ATOM     71  C   UNL     1      -3.979  -1.632 130.073  0.00  0.00    +0.000 A 
ATOM     72  C   UNL     1      -3.999  -0.312 130.164  0.00  0.00    +0.000 A 
ATOM     73  C   UNL     1      -3.978   0.300 131.493  0.00  0.00    +0.000 A 
BRANCH  71  74
ATOM     74  O   UNL     1      -3.581  -2.331 128.954  0.00  0.00    +0.000 OA
ATOM     75  H   UNL     1      -2.995  -3.105 129.116  0.00  0.00    +0.000 HD
ENDBRANCH  71  74
ENDBRANCH  67  68
ENDBRANCH   5  67
BRANCH  22  76
ATOM     76  C   UNL     1      -6.683   6.383 131.587  0.00  0.00    +0.000 C 
BRANCH  76  77
ATOM     77  C   UNL     1      -8.161   6.933 131.804  0.00  0.00    +0.000 C 
BRANCH  77  78
ATOM     78  C   UNL     1      -9.014   6.961 130.620  0.00  0.00    +0.000 C 
ATOM     79  N   UNL     1      -9.924   5.967 130.554  0.00  0.00    +0.000 N 
ATOM     80  O   UNL     1      -8.862   7.811 129.755  0.00  0.00    +0.000 OA
ATOM     81  H   UNL     1      -9.990   5.215 131.224  0.00  0.00    +0.000 HD
ATOM     82  H   UNL     1     -10.603   6.033 129.821  0.00  0.00    +0.000 HD
ENDBRANCH  77  78
ENDBRANCH  76  77
ENDBRANCH  22  76
TORSDOF 18
ENDMDL
MODEL 5
REMARK VINA RESULT:      -9.2      3.812     10.128
REMARK  Name = CHEMBL439044
REMARK  22 active torsions:
REMARK  status: ('A' for Active; 'I' for Inactive)
REMARK    1  A    between atoms: C_1  and  C_2
REMARK    2  A    between atoms: C_2  and  C_3
REMARK    3  A    between atoms: C_3  and  C_4
REMARK    4  A    between atoms: C_3  and  C_5
REMARK    5  A    between atoms: C_9  and  C_10
REMARK    6  A    between atoms: C_10  and  C_11
REMARK    7  A    between atoms: C_14  and  O_15
REMARK    8  A    between atoms: C_26  and  C_27
REMARK    9  A    between atoms: C_33  and  C_34
REMARK   10  A    between atoms: N_36  and  C_37
REMARK   11  A    between atoms: C_37  and  C_38
REMARK   12  A    between atoms: C_37  and  C_42
REMARK   13  A    between atoms: C_38  and  C_39
REMARK   14  A    between atoms: C_39  and  C_40
REMARK   15  A    between atoms: C_39  and  C_41
REMARK   16  A    between atoms: N_44  and  C_45
REMARK   17  A    between atoms: C_45  and  C_46
REMARK   18  A    between atoms: C_52  and  C_53
REMARK   19  A    between atoms: C_53  and  C_54
REMARK   20  A    between atoms: C_60  and  C_61
REMARK   21  A    between atoms: C_61  and  C_62
REMARK   22  A    between atoms: C_62  and  C_63
REMARK                            x       y       z     vdW  Elec       q    Type
REMARK                         _______ _______ _______ _____ _____    ______ ____
ROOT
ATOM      1  C   UNL     1      -7.207  -3.321 128.494  0.00  0.00    +0.000 C 
ATOM      2  N   UNL     1      -8.289  -2.091 127.398  0.00  0.00    +0.000 N 
ATOM      3  C   UNL     1      -8.704  -1.121 126.316  0.00  0.00    +0.000 C 
ATOM      4  O   UNL     1      -9.469  -0.199 126.762  0.00  0.00    +0.000 OA
ATOM      5  C   UNL     1      -8.318  -1.014 124.533  0.00  0.00    +0.000 C 
ATOM      6  N   UNL     1      -9.394  -0.357 123.608  0.00  0.00    +0.000 N 
ATOM      7  C   UNL     1      -9.652   0.878 123.036  0.00  0.00    +0.000 C 
ATOM      8  O   UNL     1     -10.474   0.874 122.100  0.00  0.00    +0.000 OA
ATOM      9  C   UNL     1      -9.077   2.292 123.366  0.00  0.00    +0.000 C 
ATOM     10  C   UNL     1      -8.162   2.429 124.510  0.00  0.00    +0.000 C 
ATOM     11  S   UNL     1      -7.401   4.119 124.986  0.00  0.00    +0.000 S 
ATOM     12  S   UNL     1      -6.491   3.857 126.800  0.00  0.00    +0.000 S 
ATOM     13  C   UNL     1      -4.864   4.268 127.487  0.00  0.00    +0.000 C 
ATOM     14  C   UNL     1      -3.866   3.606 128.460  0.00  0.00    +0.000 C 
ATOM     15  N   UNL     1      -4.508   2.976 129.624  0.00  0.00    +0.000 N 
ATOM     16  C   UNL     1      -5.359   1.954 129.599  0.00  0.00    +0.000 C 
ATOM     17  O   UNL     1      -5.876   1.520 130.623  0.00  0.00    +0.000 OA
ATOM     18  C   UNL     1      -5.434   1.299 128.291  0.00  0.00    +0.000 C 
ATOM     19  N   UNL     1      -5.082   0.068 128.818  0.00  0.00    +0.000 N 
ATOM     20  C   UNL     1      -6.223  -0.695 128.832  0.00  0.00    +0.000 C 
ATOM     21  O   UNL     1      -6.362  -1.408 127.868  0.00  0.00    +0.000 OA
ATOM     22  C   UNL     1      -7.232  -0.841 129.973  0.00  0.00    +0.000 C 
ATOM     23  N   UNL     1      -8.402  -1.746 129.792  0.00  0.00    +0.000 N 
ATOM     24  C   UNL     1      -8.393  -3.083 129.362  0.00  0.00    +0.000 C 
ATOM     25  O   UNL     1      -9.379  -3.814 129.258  0.00  0.00    +0.000 OA
ATOM     26  H   UNL     1      -9.012  -1.578 127.906  0.00  0.00    +0.000 HD
ATOM     27  H   UNL     1      -9.904  -1.073 123.098  0.00  0.00    +0.000 HD
ATOM     28  H   UNL     1      -4.346   3.303 130.571  0.00  0.00    +0.000 HD
ATOM     29  H   UNL     1      -4.244  -0.156 128.288  0.00  0.00    +0.000 HD
ATOM     30  H   UNL     1      -9.080  -1.243 129.288  0.00  0.00    +0.000 HD
ENDROOT
BRANCH  14  31
ATOM     31  C   UNL     1      -2.946   4.699 129.021  0.00  0.00    +0.000 C 
ATOM     32  O   UNL     1      -2.032   5.009 128.254  0.00  0.00    +0.000 OA
ATOM     33  N   UNL     1      -3.287   5.341 130.223  0.00  0.00    +0.000 N 
ATOM     34  C   UNL     1      -3.876   4.746 131.403  0.00  0.00    +0.000 C 
ATOM     35  C   UNL     1      -4.754   5.845 131.928  0.00  0.00    +0.000 C 
ATOM     36  C   UNL     1      -3.862   7.049 131.818  0.00  0.00    +0.000 C 
ATOM     37  C   UNL     1      -2.907   6.730 130.660  0.00  0.00    +0.000 C 
BRANCH  37  38
ATOM     38  C   UNL     1      -1.542   6.869 131.438  0.00  0.00    +0.000 C 
ATOM     39  O   UNL     1      -0.480   6.525 130.919  0.00  0.00    +0.000 OA
ATOM     40  N   UNL     1      -1.606   7.550 132.663  0.00  0.00    +0.000 N 
ATOM     41  H   UNL     1      -2.493   7.696 133.140  0.00  0.00    +0.000 HD
BRANCH  40  42
ATOM     42  C   UNL     1      -0.440   8.295 133.218  0.00  0.00    +0.000 C 
BRANCH  42  43
ATOM     43  C   UNL     1      -0.053   7.676 134.600  0.00  0.00    +0.000 C 
ATOM     44  O   UNL     1       1.080   7.250 134.822  0.00  0.00    +0.000 OA
ATOM     45  N   UNL     1      -1.059   7.616 135.545  0.00  0.00    +0.000 N 
ATOM     46  H   UNL     1      -1.973   7.959 135.312  0.00  0.00    +0.000 HD
BRANCH  45  47
ATOM     47  C   UNL     1      -0.834   7.076 136.888  0.00  0.00    +0.000 C 
BRANCH  47  48
ATOM     48  C   UNL     1      -2.070   6.478 137.586  0.00  0.00    +0.000 C 
ATOM     49  N   UNL     1      -1.945   6.076 138.887  0.00  0.00    +0.000 N 
ATOM     50  O   UNL     1      -3.153   6.355 137.018  0.00  0.00    +0.000 OA
ATOM     51  H   UNL     1      -1.114   6.129 139.446  0.00  0.00    +0.000 HD
ATOM     52  H   UNL     1      -2.765   5.683 139.335  0.00  0.00    +0.000 HD
ENDBRANCH  47  48
ENDBRANCH  45  47
ENDBRANCH  42  43
BRANCH  42  53
ATOM     53  C   UNL     1      -0.656   9.837 133.426  0.00  0.00    +0.000 C 
BRANCH  53  54
ATOM     54  C   UNL     1      -2.097  10.316 133.286  0.00  0.00    +0.000 C 
ATOM     55  C   UNL     1      -2.674  10.606 134.626  0.00  0.00    +0.000 C 
ATOM     56  C   UNL     1      -2.305  11.659 132.642  0.00  0.00    +0.000 C 
ENDBRANCH  53  54
ENDBRANCH  42  53
ENDBRANCH  40  42
ENDBRANCH  37  38
ENDBRANCH  14  31
BRANCH   1  57
ATOM     57  C   UNL     1      -5.643  -3.415 129.734  0.00  0.00    +0.000 C 
ATOM     58  C   UNL     1      -4.719  -4.061 130.918  0.00  0.00    +0.000 C 
BRANCH  57  60
ATOM     59  C   UNL     1      -3.308  -3.098 129.759  0.00  0.00    +0.000 C 
ATOM     60  C   UNL     1      -4.428  -3.599 128.931  0.00  0.00    +0.000 C 
ENDBRANCH  57  60
ENDBRANCH   1  57
BRANCH  18  61
ATOM     61  C   UNL     1      -6.758   1.296 127.650  0.00  0.00    +0.000 C 
BRANCH  61  62
ATOM     62  C   UNL     1      -7.582   1.955 128.618  0.00  0.00    +0.000 C 
ATOM     63  N   UNL     1      -8.662   1.622 129.286  0.00  0.00    +0.000 N 
ATOM     64  O   UNL     1      -7.257   3.212 128.712  0.00  0.00    +0.000 OA
ATOM     65  H   UNL     1      -8.698   0.757 129.797  0.00  0.00    +0.000 HD
ATOM     66  H   UNL     1      -9.097   2.377 129.811  0.00  0.00    +0.000 HD
ENDBRANCH  61  62
ENDBRANCH  18  61
BRANCH   5  67
ATOM     67  C   UNL     1      -6.840  -0.670 123.698  0.00  0.00    +0.000 C 
BRANCH  67  68
ATOM     68  C   UNL     1      -5.705  -1.689 123.638  0.00  0.00    +0.000 A 
ATOM     69  C   UNL     1      -5.624  -2.252 122.440  0.00  0.00    +0.000 A 
ATOM     70  C   UNL     1      -4.968  -3.461 122.450  0.00  0.00    +0.000 A 
ATOM     71  C   UNL     1      -4.267  -4.241 123.309  0.00  0.00    +0.000 A 
ATOM     72  C   UNL     1      -4.379  -3.737 124.528  0.00  0.00    +0.000 A 
ATOM     73  C   UNL     1      -5.026  -2.435 124.693  0.00  0.00    +0.000 A 
BRANCH  71  74
ATOM     74  O   UNL     1      -4.082  -5.578 123.031  0.00  0.00    +0.000 OA
ATOM     75  H   UNL     1      -4.670  -6.203 123.512  0.00  0.00    +0.000 HD
ENDBRANCH  71  74
ENDBRANCH  67  68
ENDBRANCH   5  67
BRANCH  22  76
ATOM     76  C   UNL     1      -6.684  -1.149 131.332  0.00  0.00    +0.000 C 
BRANCH  76  77
ATOM     77  C   UNL     1      -7.814  -0.918 132.430  0.00  0.00    +0.000 C 
BRANCH  77  78
ATOM     78  C   UNL     1      -8.571   0.326 132.318  0.00  0.00    +0.000 C 
ATOM     79  N   UNL     1      -7.927   1.421 132.768  0.00  0.00    +0.000 N 
ATOM     80  O   UNL     1      -9.712   0.331 131.880  0.00  0.00    +0.000 OA
ATOM     81  H   UNL     1      -7.019   1.404 133.210  0.00  0.00    +0.000 HD
ATOM     82  H   UNL     1      -8.368   2.303 132.589  0.00  0.00    +0.000 HD
ENDBRANCH  77  78
ENDBRANCH  76  77
ENDBRANCH  22  76
TORSDOF 18
ENDMDL
MODEL 6
REMARK VINA RESULT:      -8.8      3.668      9.807
REMARK  Name = CHEMBL439044
REMARK  22 active torsions:
REMARK  status: ('A' for Active; 'I' for Inactive)
REMARK    1  A    between atoms: C_1  and  C_2
REMARK    2  A    between atoms: C_2  and  C_3
REMARK    3  A    between atoms: C_3  and  C_4
REMARK    4  A    between atoms: C_3  and  C_5
REMARK    5  A    between atoms: C_9  and  C_10
REMARK    6  A    between atoms: C_10  and  C_11
REMARK    7  A    between atoms: C_14  and  O_15
REMARK    8  A    between atoms: C_26  and  C_27
REMARK    9  A    between atoms: C_33  and  C_34
REMARK   10  A    between atoms: N_36  and  C_37
REMARK   11  A    between atoms: C_37  and  C_38
REMARK   12  A    between atoms: C_37  and  C_42
REMARK   13  A    between atoms: C_38  and  C_39
REMARK   14  A    between atoms: C_39  and  C_40
REMARK   15  A    between atoms: C_39  and  C_41
REMARK   16  A    between atoms: N_44  and  C_45
REMARK   17  A    between atoms: C_45  and  C_46
REMARK   18  A    between atoms: C_52  and  C_53
REMARK   19  A    between atoms: C_53  and  C_54
REMARK   20  A    between atoms: C_60  and  C_61
REMARK   21  A    between atoms: C_61  and  C_62
REMARK   22  A    between atoms: C_62  and  C_63
REMARK                            x       y       z     vdW  Elec       q    Type
REMARK                         _______ _______ _______ _____ _____    ______ ____
ROOT
ATOM      1  C   UNL     1      -7.181  -3.330 128.518  0.00  0.00    +0.000 C 
ATOM      2  N   UNL     1      -8.284  -2.157 127.383  0.00  0.00    +0.000 N 
ATOM      3  C   UNL     1      -8.712  -1.217 126.279  0.00  0.00    +0.000 C 
ATOM      4  O   UNL     1      -9.520  -0.318 126.696  0.00  0.00    +0.000 OA
ATOM      5  C   UNL     1      -8.292  -1.118 124.503  0.00  0.00    +0.000 C 
ATOM      6  N   UNL     1      -9.371  -0.515 123.547  0.00  0.00    +0.000 N 
ATOM      7  C   UNL     1      -9.663   0.702 122.953  0.00  0.00    +0.000 C 
ATOM      8  O   UNL     1     -10.464   0.655 121.999  0.00  0.00    +0.000 OA
ATOM      9  C   UNL     1      -9.149   2.141 123.275  0.00  0.00    +0.000 C 
ATOM     10  C   UNL     1      -8.264   2.327 124.436  0.00  0.00    +0.000 C 
ATOM     11  S   UNL     1      -7.578   4.051 124.904  0.00  0.00    +0.000 S 
ATOM     12  S   UNL     1      -6.698   3.847 126.740  0.00  0.00    +0.000 S 
ATOM     13  C   UNL     1      -5.103   4.329 127.456  0.00  0.00    +0.000 C 
ATOM     14  C   UNL     1      -4.102   3.717 128.459  0.00  0.00    +0.000 C 
ATOM     15  N   UNL     1      -4.745   3.079 129.618  0.00  0.00    +0.000 N 
ATOM     16  C   UNL     1      -5.556   2.025 129.589  0.00  0.00    +0.000 C 
ATOM     17  O   UNL     1      -6.079   1.586 130.608  0.00  0.00    +0.000 OA
ATOM     18  C   UNL     1      -5.579   1.350 128.289  0.00  0.00    +0.000 C 
ATOM     19  N   UNL     1      -5.192   0.141 128.841  0.00  0.00    +0.000 N 
ATOM     20  C   UNL     1      -6.304  -0.664 128.841  0.00  0.00    +0.000 C 
ATOM     21  O   UNL     1      -6.395  -1.394 127.885  0.00  0.00    +0.000 OA
ATOM     22  C   UNL     1      -7.331  -0.833 129.963  0.00  0.00    +0.000 C 
ATOM     23  N   UNL     1      -8.463  -1.784 129.769  0.00  0.00    +0.000 N 
ATOM     24  C   UNL     1      -8.394  -3.126 129.357  0.00  0.00    +0.000 C 
ATOM     25  O   UNL     1      -9.349  -3.895 129.243  0.00  0.00    +0.000 OA
ATOM     26  H   UNL     1      -9.037  -1.664 127.868  0.00  0.00    +0.000 HD
ATOM     27  H   UNL     1      -9.843  -1.256 123.036  0.00  0.00    +0.000 HD
ATOM     28  H   UNL     1      -4.616   3.424 130.563  0.00  0.00    +0.000 HD
ATOM     29  H   UNL     1      -4.335  -0.058 128.332  0.00  0.00    +0.000 HD
ATOM     30  H   UNL     1      -9.147  -1.314 129.244  0.00  0.00    +0.000 HD
ENDROOT
BRANCH  14  31
ATOM     31  C   UNL     1      -3.236   4.852 129.024  0.00  0.00    +0.000 C 
ATOM     32  O   UNL     1      -2.063   4.804 128.649  0.00  0.00    +0.000 OA
ATOM     33  N   UNL     1      -3.843   5.890 129.750  0.00  0.00    +0.000 N 
ATOM     34  C   UNL     1      -4.933   5.782 130.697  0.00  0.00    +0.000 C 
ATOM     35  C   UNL     1      -5.684   7.065 130.488  0.00  0.00    +0.000 C 
ATOM     36  C   UNL     1      -4.577   8.079 130.429  0.00  0.00    +0.000 C 
ATOM     37  C   UNL     1      -3.359   7.306 129.904  0.00  0.00    +0.000 C 
BRANCH  37  38
ATOM     38  C   UNL     1      -2.373   7.581 131.104  0.00  0.00    +0.000 C 
ATOM     39  O   UNL     1      -2.500   8.582 131.809  0.00  0.00    +0.000 OA
ATOM     40  N   UNL     1      -1.473   6.547 131.403  0.00  0.00    +0.000 N 
ATOM     41  H   UNL     1      -1.284   5.803 130.735  0.00  0.00    +0.000 HD
BRANCH  40  42
ATOM     42  C   UNL     1      -0.929   6.341 132.776  0.00  0.00    +0.000 C 
BRANCH  42  43
ATOM     43  C   UNL     1      -2.096   5.921 133.727  0.00  0.00    +0.000 C 
ATOM     44  O   UNL     1      -2.709   6.749 134.399  0.00  0.00    +0.000 OA
ATOM     45  N   UNL     1      -2.381   4.570 133.786  0.00  0.00    +0.000 N 
ATOM     46  H   UNL     1      -1.840   3.930 133.232  0.00  0.00    +0.000 HD
BRANCH  45  47
ATOM     47  C   UNL     1      -3.458   4.037 134.622  0.00  0.00    +0.000 C 
BRANCH  47  48
ATOM     48  C   UNL     1      -4.818   3.849 133.925  0.00  0.00    +0.000 C 
ATOM     49  N   UNL     1      -5.020   2.707 133.202  0.00  0.00    +0.000 N 
ATOM     50  O   UNL     1      -5.717   4.684 133.999  0.00  0.00    +0.000 OA
ATOM     51  H   UNL     1      -4.361   1.962 133.074  0.00  0.00    +0.000 HD
ATOM     52  H   UNL     1      -5.919   2.595 132.747  0.00  0.00    +0.000 HD
ENDBRANCH  47  48
ENDBRANCH  45  47
ENDBRANCH  42  43
BRANCH  42  53
ATOM     53  C   UNL     1      -0.213   7.585 133.415  0.00  0.00    +0.000 C 
BRANCH  53  54
ATOM     54  C   UNL     1      -0.254   7.647 134.938  0.00  0.00    +0.000 C 
ATOM     55  C   UNL     1       1.047   7.203 135.506  0.00  0.00    +0.000 C 
ATOM     56  C   UNL     1      -0.329   9.016 135.557  0.00  0.00    +0.000 C 
ENDBRANCH  53  54
ENDBRANCH  42  53
ENDBRANCH  40  42
ENDBRANCH  37  38
ENDBRANCH  14  31
BRANCH   1  57
ATOM     57  C   UNL     1      -5.642  -3.349 129.792  0.00  0.00    +0.000 C 
ATOM     58  C   UNL     1      -4.748  -3.914 131.039  0.00  0.00    +0.000 C 
BRANCH  57  60
ATOM     59  C   UNL     1      -3.341  -2.845 129.707  0.00  0.00    +0.000 C 
ATOM     60  C   UNL     1      -4.415  -3.607 129.029  0.00  0.00    +0.000 C 
ENDBRANCH  57  60
ENDBRANCH   1  57
BRANCH  18  61
ATOM     61  C   UNL     1      -6.888   1.290 127.621  0.00  0.00    +0.000 C 
BRANCH  61  62
ATOM     62  C   UNL     1      -7.731   2.038 128.502  0.00  0.00    +0.000 C 
ATOM     63  N   UNL     1      -7.660   3.226 129.055  0.00  0.00    +0.000 N 
ATOM     64  O   UNL     1      -8.687   1.286 128.965  0.00  0.00    +0.000 OA
ATOM     65  H   UNL     1      -7.472   4.039 128.493  0.00  0.00    +0.000 HD
ATOM     66  H   UNL     1      -8.371   3.422 129.756  0.00  0.00    +0.000 HD
ENDBRANCH  61  62
ENDBRANCH  18  61
BRANCH   5  67
ATOM     67  C   UNL     1      -6.810  -0.730 123.695  0.00  0.00    +0.000 C 
BRANCH  67  68
ATOM     68  C   UNL     1      -5.667  -1.738 123.602  0.00  0.00    +0.000 A 
ATOM     69  C   UNL     1      -5.631  -2.319 122.411  0.00  0.00    +0.000 A 
ATOM     70  C   UNL     1      -4.961  -3.521 122.412  0.00  0.00    +0.000 A 
ATOM     71  C   UNL     1      -4.216  -4.278 123.252  0.00  0.00    +0.000 A 
ATOM     72  C   UNL     1      -4.281  -3.756 124.466  0.00  0.00    +0.000 A 
ATOM     73  C   UNL     1      -4.934  -2.459 124.638  0.00  0.00    +0.000 A 
BRANCH  71  74
ATOM     74  O   UNL     1      -4.028  -5.618 122.988  0.00  0.00    +0.000 OA
ATOM     75  H   UNL     1      -3.635  -6.150 123.717  0.00  0.00    +0.000 HD
ENDBRANCH  71  74
ENDBRANCH  67  68
ENDBRANCH   5  67
BRANCH  22  76
ATOM     76  C   UNL     1      -6.801  -1.103 131.337  0.00  0.00    +0.000 C 
BRANCH  76  77
ATOM     77  C   UNL     1      -7.948  -0.845 132.412  0.00  0.00    +0.000 C 
BRANCH  77  78
ATOM     78  C   UNL     1      -8.351   0.546 132.597  0.00  0.00    +0.000 C 
ATOM     79  N   UNL     1      -9.422   0.925 131.871  0.00  0.00    +0.000 N 
ATOM     80  O   UNL     1      -7.719   1.292 133.330  0.00  0.00    +0.000 OA
ATOM     81  H   UNL     1      -9.889   0.334 131.199  0.00  0.00    +0.000 HD
ATOM     82  H   UNL     1      -9.798   1.832 132.071  0.00  0.00    +0.000 HD
ENDBRANCH  77  78
ENDBRANCH  76  77
ENDBRANCH  22  76
TORSDOF 18
ENDMDL
MODEL 7
REMARK VINA RESULT:      -8.6      5.362     10.104
REMARK  Name = CHEMBL439044
REMARK  22 active torsions:
REMARK  status: ('A' for Active; 'I' for Inactive)
REMARK    1  A    between atoms: C_1  and  C_2
REMARK    2  A    between atoms: C_2  and  C_3
REMARK    3  A    between atoms: C_3  and  C_4
REMARK    4  A    between atoms: C_3  and  C_5
REMARK    5  A    between atoms: C_9  and  C_10
REMARK    6  A    between atoms: C_10  and  C_11
REMARK    7  A    between atoms: C_14  and  O_15
REMARK    8  A    between atoms: C_26  and  C_27
REMARK    9  A    between atoms: C_33  and  C_34
REMARK   10  A    between atoms: N_36  and  C_37
REMARK   11  A    between atoms: C_37  and  C_38
REMARK   12  A    between atoms: C_37  and  C_42
REMARK   13  A    between atoms: C_38  and  C_39
REMARK   14  A    between atoms: C_39  and  C_40
REMARK   15  A    between atoms: C_39  and  C_41
REMARK   16  A    between atoms: N_44  and  C_45
REMARK   17  A    between atoms: C_45  and  C_46
REMARK   18  A    between atoms: C_52  and  C_53
REMARK   19  A    between atoms: C_53  and  C_54
REMARK   20  A    between atoms: C_60  and  C_61
REMARK   21  A    between atoms: C_61  and  C_62
REMARK   22  A    between atoms: C_62  and  C_63
REMARK                            x       y       z     vdW  Elec       q    Type
REMARK                         _______ _______ _______ _____ _____    ______ ____
ROOT
ATOM      1  C   UNL     1      -5.328   6.090 141.554  0.00  0.00    +0.000 C 
ATOM      2  N   UNL     1      -4.120   7.507 140.909  0.00  0.00    +0.000 N 
ATOM      3  C   UNL     1      -3.594   8.725 140.185  0.00  0.00    +0.000 C 
ATOM      4  O   UNL     1      -2.405   8.552 139.748  0.00  0.00    +0.000 OA
ATOM      5  C   UNL     1      -4.326  10.358 139.816  0.00  0.00    +0.000 C 
ATOM      6  N   UNL     1      -3.343  11.567 139.684  0.00  0.00    +0.000 N 
ATOM      7  C   UNL     1      -2.700  12.273 138.681  0.00  0.00    +0.000 C 
ATOM      8  O   UNL     1      -2.241  13.382 139.016  0.00  0.00    +0.000 OA
ATOM      9  C   UNL     1      -2.453  11.913 137.182  0.00  0.00    +0.000 C 
ATOM     10  C   UNL     1      -2.877  10.590 136.698  0.00  0.00    +0.000 C 
ATOM     11  S   UNL     1      -2.623  10.063 134.876  0.00  0.00    +0.000 S 
ATOM     12  S   UNL     1      -3.057   8.065 134.783  0.00  0.00    +0.000 S 
ATOM     13  C   UNL     1      -4.076   7.025 133.701  0.00  0.00    +0.000 C 
ATOM     14  C   UNL     1      -4.983   5.788 133.877  0.00  0.00    +0.000 C 
ATOM     15  N   UNL     1      -4.432   4.780 134.794  0.00  0.00    +0.000 N 
ATOM     16  C   UNL     1      -4.186   4.942 136.091  0.00  0.00    +0.000 C 
ATOM     17  O   UNL     1      -3.685   4.051 136.769  0.00  0.00    +0.000 OA
ATOM     18  C   UNL     1      -4.756   6.177 136.635  0.00  0.00    +0.000 C 
ATOM     19  N   UNL     1      -5.489   5.491 137.589  0.00  0.00    +0.000 N 
ATOM     20  C   UNL     1      -4.867   5.707 138.793  0.00  0.00    +0.000 C 
ATOM     21  O   UNL     1      -5.322   6.621 139.437  0.00  0.00    +0.000 OA
ATOM     22  C   UNL     1      -3.787   4.846 139.451  0.00  0.00    +0.000 C 
ATOM     23  N   UNL     1      -3.255   5.248 140.785  0.00  0.00    +0.000 N 
ATOM     24  C   UNL     1      -3.989   5.565 141.940  0.00  0.00    +0.000 C 
ATOM     25  O   UNL     1      -3.514   5.858 143.038  0.00  0.00    +0.000 OA
ATOM     26  H   UNL     1      -3.139   7.234 140.818  0.00  0.00    +0.000 HD
ATOM     27  H   UNL     1      -3.370  12.135 140.527  0.00  0.00    +0.000 HD
ATOM     28  H   UNL     1      -4.178   3.848 134.481  0.00  0.00    +0.000 HD
ATOM     29  H   UNL     1      -6.440   5.777 137.370  0.00  0.00    +0.000 HD
ATOM     30  H   UNL     1      -2.575   5.940 140.627  0.00  0.00    +0.000 HD
ENDROOT
BRANCH  14  31
ATOM     31  C   UNL     1      -5.118   5.096 132.513  0.00  0.00    +0.000 C 
ATOM     32  O   UNL     1      -4.167   4.361 132.243  0.00  0.00    +0.000 OA
ATOM     33  N   UNL     1      -6.317   5.219 131.791  0.00  0.00    +0.000 N 
ATOM     34  C   UNL     1      -7.156   6.392 131.669  0.00  0.00    +0.000 C 
ATOM     35  C   UNL     1      -8.537   5.808 131.598  0.00  0.00    +0.000 C 
ATOM     36  C   UNL     1      -8.355   4.669 130.636  0.00  0.00    +0.000 C 
ATOM     37  C   UNL     1      -6.885   4.252 130.789  0.00  0.00    +0.000 C 
BRANCH  37  38
ATOM     38  C   UNL     1      -6.430   4.449 129.292  0.00  0.00    +0.000 C 
ATOM     39  O   UNL     1      -7.220   4.852 128.438  0.00  0.00    +0.000 OA
ATOM     40  N   UNL     1      -5.057   4.297 129.047  0.00  0.00    +0.000 N 
ATOM     41  H   UNL     1      -4.450   3.829 129.718  0.00  0.00    +0.000 HD
BRANCH  40  42
ATOM     42  C   UNL     1      -4.367   5.001 127.930  0.00  0.00    +0.000 C 
BRANCH  42  43
ATOM     43  C   UNL     1      -4.735   4.300 126.582  0.00  0.00    +0.000 C 
ATOM     44  O   UNL     1      -4.268   3.203 126.278  0.00  0.00    +0.000 OA
ATOM     45  N   UNL     1      -5.592   4.991 125.748  0.00  0.00    +0.000 N 
ATOM     46  H   UNL     1      -5.932   5.893 126.032  0.00  0.00    +0.000 HD
BRANCH  45  47
ATOM     47  C   UNL     1      -6.034   4.447 124.462  0.00  0.00    +0.000 C 
BRANCH  47  48
ATOM     48  C   UNL     1      -7.196   3.439 124.524  0.00  0.00    +0.000 C 
ATOM     49  N   UNL     1      -6.892   2.106 124.547  0.00  0.00    +0.000 N 
ATOM     50  O   UNL     1      -8.374   3.789 124.556  0.00  0.00    +0.000 OA
ATOM     51  H   UNL     1      -5.972   1.707 124.525  0.00  0.00    +0.000 HD
ATOM     52  H   UNL     1      -7.665   1.451 124.587  0.00  0.00    +0.000 HD
ENDBRANCH  47  48
ENDBRANCH  45  47
ENDBRANCH  42  43
BRANCH  42  53
ATOM     53  C   UNL     1      -2.800   5.059 128.028  0.00  0.00    +0.000 C 
BRANCH  53  54
ATOM     54  C   UNL     1      -2.233   6.337 128.636  0.00  0.00    +0.000 C 
ATOM     55  C   UNL     1      -3.219   7.445 128.514  0.00  0.00    +0.000 C 
ATOM     56  C   UNL     1      -2.043   6.351 130.128  0.00  0.00    +0.000 C 
ENDBRANCH  53  54
ENDBRANCH  42  53
ENDBRANCH  40  42
ENDBRANCH  37  38
ENDBRANCH  14  31
BRANCH   1  57
ATOM     57  C   UNL     1      -6.385   4.495 140.979  0.00  0.00    +0.000 C 
ATOM     58  C   UNL     1      -6.987   2.981 141.111  0.00  0.00    +0.000 C 
BRANCH  57  60
ATOM     59  C   UNL     1      -8.526   3.760 141.636  0.00  0.00    +0.000 C 
ATOM     60  C   UNL     1      -7.806   4.865 140.963  0.00  0.00    +0.000 C 
ENDBRANCH  57  60
ENDBRANCH   1  57
BRANCH  18  61
ATOM     61  C   UNL     1      -3.794   7.126 137.217  0.00  0.00    +0.000 C 
BRANCH  61  62
ATOM     62  C   UNL     1      -2.546   6.438 137.082  0.00  0.00    +0.000 C 
ATOM     63  N   UNL     1      -1.688   5.916 137.927  0.00  0.00    +0.000 N 
ATOM     64  O   UNL     1      -2.120   6.504 135.855  0.00  0.00    +0.000 OA
ATOM     65  H   UNL     1      -1.998   5.280 138.641  0.00  0.00    +0.000 HD
ATOM     66  H   UNL     1      -0.809   5.608 137.517  0.00  0.00    +0.000 HD
ENDBRANCH  61  62
ENDBRANCH  18  61
BRANCH   5  67
ATOM     67  C   UNL     1      -5.636  10.821 138.782  0.00  0.00    +0.000 C 
BRANCH  67  68
ATOM     68  C   UNL     1      -6.951  10.045 138.769  0.00  0.00    +0.000 A 
ATOM     69  C   UNL     1      -6.983   9.166 137.777  0.00  0.00    +0.000 A 
ATOM     70  C   UNL     1      -8.258   8.784 137.428  0.00  0.00    +0.000 A 
ATOM     71  C   UNL     1      -9.532   8.953 137.858  0.00  0.00    +0.000 A 
ATOM     72  C   UNL     1      -9.541   9.872 138.811  0.00  0.00    +0.000 A 
ATOM     73  C   UNL     1      -8.263  10.366 139.322  0.00  0.00    +0.000 A 
BRANCH  71  74
ATOM     74  O   UNL     1     -10.585   8.703 137.005  0.00  0.00    +0.000 OA
ATOM     75  H   UNL     1     -11.090   9.491 136.701  0.00  0.00    +0.000 HD
ENDBRANCH  71  74
ENDBRANCH  67  68
ENDBRANCH   5  67
BRANCH  22  76
ATOM     76  C   UNL     1      -4.050   3.375 139.543  0.00  0.00    +0.000 C 
BRANCH  76  77
ATOM     77  C   UNL     1      -2.749   2.632 140.083  0.00  0.00    +0.000 C 
BRANCH  77  78
ATOM     78  C   UNL     1      -1.923   1.974 139.075  0.00  0.00    +0.000 C 
ATOM     79  N   UNL     1      -2.578   1.617 137.952  0.00  0.00    +0.000 N 
ATOM     80  O   UNL     1      -0.741   1.744 139.283  0.00  0.00    +0.000 OA
ATOM     81  H   UNL     1      -3.573   1.727 137.817  0.00  0.00    +0.000 HD
ATOM     82  H   UNL     1      -2.014   1.280 137.196  0.00  0.00    +0.000 HD
ENDBRANCH  77  78
ENDBRANCH  76  77
ENDBRANCH  22  76
TORSDOF 18
ENDMDL
MODEL 8
REMARK VINA RESULT:      -8.6      1.908      2.956
REMARK  Name = CHEMBL439044
REMARK  22 active torsions:
REMARK  status: ('A' for Active; 'I' for Inactive)
REMARK    1  A    between atoms: C_1  and  C_2
REMARK    2  A    between atoms: C_2  and  C_3
REMARK    3  A    between atoms: C_3  and  C_4
REMARK    4  A    between atoms: C_3  and  C_5
REMARK    5  A    between atoms: C_9  and  C_10
REMARK    6  A    between atoms: C_10  and  C_11
REMARK    7  A    between atoms: C_14  and  O_15
REMARK    8  A    between atoms: C_26  and  C_27
REMARK    9  A    between atoms: C_33  and  C_34
REMARK   10  A    between atoms: N_36  and  C_37
REMARK   11  A    between atoms: C_37  and  C_38
REMARK   12  A    between atoms: C_37  and  C_42
REMARK   13  A    between atoms: C_38  and  C_39
REMARK   14  A    between atoms: C_39  and  C_40
REMARK   15  A    between atoms: C_39  and  C_41
REMARK   16  A    between atoms: N_44  and  C_45
REMARK   17  A    between atoms: C_45  and  C_46
REMARK   18  A    between atoms: C_52  and  C_53
REMARK   19  A    between atoms: C_53  and  C_54
REMARK   20  A    between atoms: C_60  and  C_61
REMARK   21  A    between atoms: C_61  and  C_62
REMARK   22  A    between atoms: C_62  and  C_63
REMARK                            x       y       z     vdW  Elec       q    Type
REMARK                         _______ _______ _______ _____ _____    ______ ____
ROOT
ATOM      1  C   UNL     1      -3.839   3.203 134.793  0.00  0.00    +0.000 C 
ATOM      2  N   UNL     1      -4.904   1.568 135.066  0.00  0.00    +0.000 N 
ATOM      3  C   UNL     1      -5.362   0.128 135.017  0.00  0.00    +0.000 C 
ATOM      4  O   UNL     1      -6.628   0.029 134.875  0.00  0.00    +0.000 OA
ATOM      5  C   UNL     1      -4.465  -1.461 135.107  0.00  0.00    +0.000 C 
ATOM      6  N   UNL     1      -5.237  -2.684 135.700  0.00  0.00    +0.000 N 
ATOM      7  C   UNL     1      -5.954  -3.777 135.240  0.00  0.00    +0.000 C 
ATOM      8  O   UNL     1      -6.140  -4.685 136.074  0.00  0.00    +0.000 OA
ATOM      9  C   UNL     1      -6.572  -4.071 133.837  0.00  0.00    +0.000 C 
ATOM     10  C   UNL     1      -6.487  -3.030 132.800  0.00  0.00    +0.000 C 
ATOM     11  S   UNL     1      -7.209  -3.303 131.049  0.00  0.00    +0.000 S 
ATOM     12  S   UNL     1      -7.144  -1.488 130.105  0.00  0.00    +0.000 S 
ATOM     13  C   UNL     1      -6.567  -0.907 128.487  0.00  0.00    +0.000 C 
ATOM     14  C   UNL     1      -5.863   0.354 127.942  0.00  0.00    +0.000 C 
ATOM     15  N   UNL     1      -6.365   1.607 128.525  0.00  0.00    +0.000 N 
ATOM     16  C   UNL     1      -6.297   1.966 129.804  0.00  0.00    +0.000 C 
ATOM     17  O   UNL     1      -6.783   3.019 130.205  0.00  0.00    +0.000 OA
ATOM     18  C   UNL     1      -5.427   1.098 130.600  0.00  0.00    +0.000 C 
ATOM     19  N   UNL     1      -4.631   2.159 131.000  0.00  0.00    +0.000 N 
ATOM     20  C   UNL     1      -4.937   2.406 132.315  0.00  0.00    +0.000 C 
ATOM     21  O   UNL     1      -4.209   1.863 133.110  0.00  0.00    +0.000 OA
ATOM     22  C   UNL     1      -5.979   3.383 132.861  0.00  0.00    +0.000 C 
ATOM     23  N   UNL     1      -6.139   3.519 134.337  0.00  0.00    +0.000 N 
ATOM     24  C   UNL     1      -5.133   3.747 135.291  0.00  0.00    +0.000 C 
ATOM     25  O   UNL     1      -5.306   3.891 136.502  0.00  0.00    +0.000 OA
ATOM     26  H   UNL     1      -5.913   1.713 135.140  0.00  0.00    +0.000 HD
ATOM     27  H   UNL     1      -4.937  -2.860 136.655  0.00  0.00    +0.000 HD
ATOM     28  H   UNL     1      -6.832   2.313 127.964  0.00  0.00    +0.000 HD
ATOM     29  H   UNL     1      -3.715   1.874 130.663  0.00  0.00    +0.000 HD
ATOM     30  H   UNL     1      -6.712   2.778 134.634  0.00  0.00    +0.000 HD
ENDROOT
BRANCH  14  31
ATOM     31  C   UNL     1      -6.139   0.443 126.435  0.00  0.00    +0.000 C 
ATOM     32  O   UNL     1      -5.215   0.951 125.798  0.00  0.00    +0.000 OA
ATOM     33  N   UNL     1      -7.286  -0.170 125.904  0.00  0.00    +0.000 N 
ATOM     34  C   UNL     1      -8.606  -0.231 126.495  0.00  0.00    +0.000 C 
ATOM     35  C   UNL     1      -9.108  -1.574 126.051  0.00  0.00    +0.000 C 
ATOM     36  C   UNL     1      -8.717  -1.600 124.601  0.00  0.00    +0.000 C 
ATOM     37  C   UNL     1      -7.482  -0.693 124.507  0.00  0.00    +0.000 C 
BRANCH  37  38
ATOM     38  C   UNL     1      -8.029   0.337 123.446  0.00  0.00    +0.000 C 
ATOM     39  O   UNL     1      -9.122   0.168 122.905  0.00  0.00    +0.000 OA
ATOM     40  N   UNL     1      -7.278   1.512 123.293  0.00  0.00    +0.000 N 
ATOM     41  H   UNL     1      -6.320   1.573 123.630  0.00  0.00    +0.000 HD
BRANCH  40  42
ATOM     42  C   UNL     1      -7.895   2.796 122.854  0.00  0.00    +0.000 C 
BRANCH  42  43
ATOM     43  C   UNL     1      -7.100   3.347 121.626  0.00  0.00    +0.000 C 
ATOM     44  O   UNL     1      -7.674   3.826 120.649  0.00  0.00    +0.000 OA
ATOM     45  N   UNL     1      -5.724   3.244 121.692  0.00  0.00    +0.000 N 
ATOM     46  H   UNL     1      -5.302   2.829 122.503  0.00  0.00    +0.000 HD
BRANCH  45  47
ATOM     47  C   UNL     1      -4.854   3.734 120.621  0.00  0.00    +0.000 C 
BRANCH  47  48
ATOM     48  C   UNL     1      -4.925   5.246 120.337  0.00  0.00    +0.000 C 
ATOM     49  N   UNL     1      -5.544   5.658 119.190  0.00  0.00    +0.000 N 
ATOM     50  O   UNL     1      -4.450   6.083 121.101  0.00  0.00    +0.000 OA
ATOM     51  H   UNL     1      -5.964   5.066 118.498  0.00  0.00    +0.000 HD
ATOM     52  H   UNL     1      -5.583   6.655 119.014  0.00  0.00    +0.000 HD
ENDBRANCH  47  48
ENDBRANCH  45  47
ENDBRANCH  42  43
BRANCH  42  53
ATOM     53  C   UNL     1      -7.947   3.931 123.940  0.00  0.00    +0.000 C 
BRANCH  53  54
ATOM     54  C   UNL     1      -7.035   3.720 125.144  0.00  0.00    +0.000 C 
ATOM     55  C   UNL     1      -5.833   4.591 125.037  0.00  0.00    +0.000 C 
ATOM     56  C   UNL     1      -7.552   4.192 126.475  0.00  0.00    +0.000 C 
ENDBRANCH  53  54
ENDBRANCH  42  53
ENDBRANCH  40  42
ENDBRANCH  37  38
ENDBRANCH  14  31
BRANCH   1  57
ATOM     57  C   UNL     1      -3.210   4.497 133.407  0.00  0.00    +0.000 C 
ATOM     58  C   UNL     1      -2.722   5.951 132.840  0.00  0.00    +0.000 C 
BRANCH  57  60
ATOM     59  C   UNL     1      -1.204   5.297 132.462  0.00  0.00    +0.000 C 
ATOM     60  C   UNL     1      -1.880   4.074 132.951  0.00  0.00    +0.000 C 
ENDBRANCH  57  60
ENDBRANCH   1  57
BRANCH  18  61
ATOM     61  C   UNL     1      -6.070   0.402 131.725  0.00  0.00    +0.000 C 
BRANCH  61  62
ATOM     62  C   UNL     1      -7.441   0.795 131.602  0.00  0.00    +0.000 C 
ATOM     63  N   UNL     1      -8.287   0.880 130.602  0.00  0.00    +0.000 N 
ATOM     64  O   UNL     1      -7.862   1.332 132.709  0.00  0.00    +0.000 OA
ATOM     65  H   UNL     1      -8.421   0.101 129.980  0.00  0.00    +0.000 HD
ATOM     66  H   UNL     1      -9.172   1.332 130.820  0.00  0.00    +0.000 HD
ENDBRANCH  61  62
ENDBRANCH  18  61
BRANCH   5  67
ATOM     67  C   UNL     1      -3.347  -2.212 134.017  0.00  0.00    +0.000 C 
BRANCH  67  68
ATOM     68  C   UNL     1      -3.669  -2.369 132.533  0.00  0.00    +0.000 A 
ATOM     69  C   UNL     1      -3.748  -3.647 132.189  0.00  0.00    +0.000 A 
ATOM     70  C   UNL     1      -3.572  -3.859 130.841  0.00  0.00    +0.000 A 
ATOM     71  C   UNL     1      -3.436  -3.142 129.699  0.00  0.00    +0.000 A 
ATOM     72  C   UNL     1      -3.294  -1.865 130.013  0.00  0.00    +0.000 A 
ATOM     73  C   UNL     1      -3.481  -1.460 131.406  0.00  0.00    +0.000 A 
BRANCH  71  74
ATOM     74  O   UNL     1      -2.901  -3.733 128.574  0.00  0.00    +0.000 OA
ATOM     75  H   UNL     1      -2.001  -3.431 128.315  0.00  0.00    +0.000 HD
ENDBRANCH  71  74
ENDBRANCH  67  68
ENDBRANCH   5  67
BRANCH  22  76
ATOM     76  C   UNL     1      -5.952   4.780 132.323  0.00  0.00    +0.000 C 
BRANCH  76  77
ATOM     77  C   UNL     1      -6.940   5.699 133.169  0.00  0.00    +0.000 C 
BRANCH  77  78
ATOM     78  C   UNL     1      -8.250   5.946 132.574  0.00  0.00    +0.000 C 
ATOM     79  N   UNL     1      -9.297   5.578 133.340  0.00  0.00    +0.000 N 
ATOM     80  O   UNL     1      -8.352   6.417 131.451  0.00  0.00    +0.000 OA
ATOM     81  H   UNL     1      -9.211   5.108 134.229  0.00  0.00    +0.000 HD
ATOM     82  H   UNL     1     -10.205   5.850 133.014  0.00  0.00    +0.000 HD
ENDBRANCH  77  78
ENDBRANCH  76  77
ENDBRANCH  22  76
TORSDOF 18
ENDMDL
MODEL 9
REMARK VINA RESULT:      -8.6      5.529     10.291
REMARK  Name = CHEMBL439044
REMARK  22 active torsions:
REMARK  status: ('A' for Active; 'I' for Inactive)
REMARK    1  A    between atoms: C_1  and  C_2
REMARK    2  A    between atoms: C_2  and  C_3
REMARK    3  A    between atoms: C_3  and  C_4
REMARK    4  A    between atoms: C_3  and  C_5
REMARK    5  A    between atoms: C_9  and  C_10
REMARK    6  A    between atoms: C_10  and  C_11
REMARK    7  A    between atoms: C_14  and  O_15
REMARK    8  A    between atoms: C_26  and  C_27
REMARK    9  A    between atoms: C_33  and  C_34
REMARK   10  A    between atoms: N_36  and  C_37
REMARK   11  A    between atoms: C_37  and  C_38
REMARK   12  A    between atoms: C_37  and  C_42
REMARK   13  A    between atoms: C_38  and  C_39
REMARK   14  A    between atoms: C_39  and  C_40
REMARK   15  A    between atoms: C_39  and  C_41
REMARK   16  A    between atoms: N_44  and  C_45
REMARK   17  A    between atoms: C_45  and  C_46
REMARK   18  A    between atoms: C_52  and  C_53
REMARK   19  A    between atoms: C_53  and  C_54
REMARK   20  A    between atoms: C_60  and  C_61
REMARK   21  A    between atoms: C_61  and  C_62
REMARK   22  A    between atoms: C_62  and  C_63
REMARK                            x       y       z     vdW  Elec       q    Type
REMARK                         _______ _______ _______ _____ _____    ______ ____
ROOT
ATOM      1  C   UNL     1      -5.394   6.264 141.719  0.00  0.00    +0.000 C 
ATOM      2  N   UNL     1      -4.196   7.684 141.063  0.00  0.00    +0.000 N 
ATOM      3  C   UNL     1      -3.673   8.889 140.314  0.00  0.00    +0.000 C 
ATOM      4  O   UNL     1      -2.469   8.727 139.918  0.00  0.00    +0.000 OA
ATOM      5  C   UNL     1      -4.427  10.493 139.869  0.00  0.00    +0.000 C 
ATOM      6  N   UNL     1      -3.465  11.718 139.726  0.00  0.00    +0.000 N 
ATOM      7  C   UNL     1      -2.806  12.403 138.718  0.00  0.00    +0.000 C 
ATOM      8  O   UNL     1      -2.380  13.532 139.029  0.00  0.00    +0.000 OA
ATOM      9  C   UNL     1      -2.508  12.000 137.240  0.00  0.00    +0.000 C 
ATOM     10  C   UNL     1      -2.891  10.653 136.789  0.00  0.00    +0.000 C 
ATOM     11  S   UNL     1      -2.573  10.072 134.993  0.00  0.00    +0.000 S 
ATOM     12  S   UNL     1      -2.964   8.064 134.955  0.00  0.00    +0.000 S 
ATOM     13  C   UNL     1      -3.930   6.967 133.879  0.00  0.00    +0.000 C 
ATOM     14  C   UNL     1      -4.816   5.718 134.070  0.00  0.00    +0.000 C 
ATOM     15  N   UNL     1      -4.272   4.752 135.036  0.00  0.00    +0.000 N 
ATOM     16  C   UNL     1      -4.068   4.962 136.333  0.00  0.00    +0.000 C 
ATOM     17  O   UNL     1      -3.570   4.104 137.055  0.00  0.00    +0.000 OA
ATOM     18  C   UNL     1      -4.679   6.202 136.819  0.00  0.00    +0.000 C 
ATOM     19  N   UNL     1      -5.426   5.532 137.774  0.00  0.00    +0.000 N 
ATOM     20  C   UNL     1      -4.844   5.801 138.987  0.00  0.00    +0.000 C 
ATOM     21  O   UNL     1      -5.337   6.725 139.586  0.00  0.00    +0.000 OA
ATOM     22  C   UNL     1      -3.767   4.985 139.705  0.00  0.00    +0.000 C 
ATOM     23  N   UNL     1      -3.283   5.441 141.039  0.00  0.00    +0.000 N 
ATOM     24  C   UNL     1      -4.057   5.780 142.161  0.00  0.00    +0.000 C 
ATOM     25  O   UNL     1      -3.621   6.119 143.262  0.00  0.00    +0.000 OA
ATOM     26  H   UNL     1      -3.207   7.429 141.009  0.00  0.00    +0.000 HD
ATOM     27  H   UNL     1      -3.528  12.312 140.548  0.00  0.00    +0.000 HD
ATOM     28  H   UNL     1      -3.991   3.817 134.761  0.00  0.00    +0.000 HD
ATOM     29  H   UNL     1      -6.375   5.791 137.518  0.00  0.00    +0.000 HD
ATOM     30  H   UNL     1      -2.613   6.141 140.878  0.00  0.00    +0.000 HD
ENDROOT
BRANCH  14  31
ATOM     31  C   UNL     1      -4.897   4.980 132.727  0.00  0.00    +0.000 C 
ATOM     32  O   UNL     1      -4.111   4.035 132.641  0.00  0.00    +0.000 OA
ATOM     33  N   UNL     1      -5.911   5.313 131.814  0.00  0.00    +0.000 N 
ATOM     34  C   UNL     1      -6.430   6.631 131.516  0.00  0.00    +0.000 C 
ATOM     35  C   UNL     1      -7.881   6.363 131.238  0.00  0.00    +0.000 C 
ATOM     36  C   UNL     1      -7.821   5.147 130.359  0.00  0.00    +0.000 C 
ATOM     37  C   UNL     1      -6.527   4.428 130.765  0.00  0.00    +0.000 C 
BRANCH  37  38
ATOM     38  C   UNL     1      -5.816   4.413 129.357  0.00  0.00    +0.000 C 
ATOM     39  O   UNL     1      -6.338   4.949 128.380  0.00  0.00    +0.000 OA
ATOM     40  N   UNL     1      -4.507   3.908 129.340  0.00  0.00    +0.000 N 
ATOM     41  H   UNL     1      -4.150   3.345 130.109  0.00  0.00    +0.000 HD
BRANCH  40  42
ATOM     42  C   UNL     1      -3.499   4.349 128.335  0.00  0.00    +0.000 C 
BRANCH  42  43
ATOM     43  C   UNL     1      -2.685   5.546 128.922  0.00  0.00    +0.000 C 
ATOM     44  O   UNL     1      -2.203   6.416 128.198  0.00  0.00    +0.000 OA
ATOM     45  N   UNL     1      -2.518   5.557 130.294  0.00  0.00    +0.000 N 
ATOM     46  H   UNL     1      -2.914   4.814 130.842  0.00  0.00    +0.000 HD
BRANCH  45  47
ATOM     47  C   UNL     1      -1.791   6.625 130.982  0.00  0.00    +0.000 C 
BRANCH  47  48
ATOM     48  C   UNL     1      -0.914   6.184 132.169  0.00  0.00    +0.000 C 
ATOM     49  N   UNL     1      -0.023   7.085 132.682  0.00  0.00    +0.000 N 
ATOM     50  O   UNL     1      -0.991   5.062 132.664  0.00  0.00    +0.000 OA
ATOM     51  H   UNL     1       0.124   8.023 132.359  0.00  0.00    +0.000 HD
ATOM     52  H   UNL     1       0.549   6.783 133.462  0.00  0.00    +0.000 HD
ENDBRANCH  47  48
ENDBRANCH  45  47
ENDBRANCH  42  43
BRANCH  42  53
ATOM     53  C   UNL     1      -4.079   4.799 126.945  0.00  0.00    +0.000 C 
BRANCH  53  54
ATOM     54  C   UNL     1      -4.028   3.743 125.847  0.00  0.00    +0.000 C 
ATOM     55  C   UNL     1      -3.209   2.582 126.288  0.00  0.00    +0.000 C 
ATOM     56  C   UNL     1      -5.312   3.024 125.538  0.00  0.00    +0.000 C 
ENDBRANCH  53  54
ENDBRANCH  42  53
ENDBRANCH  40  42
ENDBRANCH  37  38
ENDBRANCH  14  31
BRANCH   1  57
ATOM     57  C   UNL     1      -6.402   4.630 141.167  0.00  0.00    +0.000 C 
ATOM     58  C   UNL     1      -6.951   3.097 141.318  0.00  0.00    +0.000 C 
BRANCH  57  60
ATOM     59  C   UNL     1      -8.532   3.732 141.632  0.00  0.00    +0.000 C 
ATOM     60  C   UNL     1      -7.834   4.951 141.161  0.00  0.00    +0.000 C 
ENDBRANCH  57  60
ENDBRANCH   1  57
BRANCH  18  61
ATOM     61  C   UNL     1      -3.754   7.189 137.396  0.00  0.00    +0.000 C 
BRANCH  61  62
ATOM     62  C   UNL     1      -2.486   6.533 137.300  0.00  0.00    +0.000 C 
ATOM     63  N   UNL     1      -1.648   6.018 138.169  0.00  0.00    +0.000 N 
ATOM     64  O   UNL     1      -2.015   6.628 136.091  0.00  0.00    +0.000 OA
ATOM     65  H   UNL     1      -1.970   5.364 138.861  0.00  0.00    +0.000 HD
ATOM     66  H   UNL     1      -0.747   5.737 137.790  0.00  0.00    +0.000 HD
ENDBRANCH  61  62
ENDBRANCH  18  61
BRANCH   5  67
ATOM     67  C   UNL     1      -5.715  10.894 138.783  0.00  0.00    +0.000 C 
BRANCH  67  68
ATOM     68  C   UNL     1      -7.027  10.113 138.783  0.00  0.00    +0.000 A 
ATOM     69  C   UNL     1      -7.066   9.236 137.789  0.00  0.00    +0.000 A 
ATOM     70  C   UNL     1      -8.344   8.851 137.454  0.00  0.00    +0.000 A 
ATOM     71  C   UNL     1      -9.614   9.014 137.899  0.00  0.00    +0.000 A 
ATOM     72  C   UNL     1      -9.616   9.930 138.853  0.00  0.00    +0.000 A 
ATOM     73  C   UNL     1      -8.334  10.428 139.351  0.00  0.00    +0.000 A 
BRANCH  71  74
ATOM     74  O   UNL     1     -10.675   8.761 137.057  0.00  0.00    +0.000 OA
ATOM     75  H   UNL     1     -11.326   9.492 136.953  0.00  0.00    +0.000 HD
ENDBRANCH  71  74
ENDBRANCH  67  68
ENDBRANCH   5  67
BRANCH  22  76
ATOM     76  C   UNL     1      -4.003   3.512 139.838  0.00  0.00    +0.000 C 
BRANCH  76  77
ATOM     77  C   UNL     1      -2.661   2.796 140.311  0.00  0.00    +0.000 C 
BRANCH  77  78
ATOM     78  C   UNL     1      -1.653   2.579 139.277  0.00  0.00    +0.000 C 
ATOM     79  N   UNL     1      -1.925   1.571 138.425  0.00  0.00    +0.000 N 
ATOM     80  O   UNL     1      -0.634   3.253 139.242  0.00  0.00    +0.000 OA
ATOM     81  H   UNL     1      -2.723   0.958 138.508  0.00  0.00    +0.000 HD
ATOM     82  H   UNL     1      -1.317   1.481 137.633  0.00  0.00    +0.000 HD
ENDBRANCH  77  78
ENDBRANCH  76  77
ENDBRANCH  22  76
TORSDOF 18
ENDMDL
