MODEL 1
REMARK VINA RESULT:      -9.2      0.000      0.000
REMARK  Name = CHEMBL4212928
REMARK  9 active torsions:
REMARK  status: ('A' for Active; 'I' for Inactive)
REMARK    1  A    between atoms: C_1  and  O_2
REMARK    2  A    between atoms: O_2  and  C_3
REMARK    3  A    between atoms: C_3  and  C_5
REMARK    4  A    between atoms: C_5  and  N_6
REMARK    5  A    between atoms: N_9  and  C_10
REMARK    6  A    between atoms: C_10  and  C_11
REMARK    7  A    between atoms: C_14  and  C_15
REMARK    8  A    between atoms: N_22  and  C_23
REMARK    9  A    between atoms: C_33  and  C_34
REMARK                            x       y       z     vdW  Elec       q    Type
REMARK                         _______ _______ _______ _____ _____    ______ ____
ROOT
ATOM      1  C   UNL     1      -8.512   2.150 130.555  0.00  0.00    +0.000 A 
ATOM      2  C   UNL     1      -8.657   2.371 129.157  0.00  0.00    +0.000 A 
ATOM      3  C   UNL     1      -8.426   1.343 128.199  0.00  0.00    +0.000 A 
ATOM      4  C   UNL     1      -8.023   0.072 128.619  0.00  0.00    +0.000 A 
ATOM      5  C   UNL     1      -7.772  -0.079 129.972  0.00  0.00    +0.000 A 
ATOM      6  C   UNL     1      -8.060   0.885 130.941  0.00  0.00    +0.000 A 
ATOM      7  C   UNL     1      -7.845   0.445 132.353  0.00  0.00    +0.000 C 
ENDROOT
BRANCH   4   8
ATOM      8  C   UNL     1      -7.753  -1.104 127.702  0.00  0.00    +0.000 C 
ATOM      9  O   UNL     1      -8.001  -2.223 128.147  0.00  0.00    +0.000 OA
ATOM     10  N   UNL     1      -7.331  -0.810 126.363  0.00  0.00    +0.000 N 
ATOM     11  C   UNL     1      -6.079  -0.012 126.154  0.00  0.00    +0.000 C 
ATOM     12  C   UNL     1      -6.256   1.198 125.286  0.00  0.00    +0.000 A 
ATOM     13  C   UNL     1      -5.746   2.527 125.399  0.00  0.00    +0.000 A 
ATOM     14  N   UNL     1      -6.151   3.340 124.409  0.00  0.00    +0.000 NA
ATOM     15  N   UNL     1      -6.908   2.536 123.642  0.00  0.00    +0.000 N 
ATOM     16  C   UNL     1      -7.528   3.000 122.418  0.00  0.00    +0.000 C 
ATOM     17  C   UNL     1      -7.030   1.273 124.159  0.00  0.00    +0.000 A 
ATOM     18  N   UNL     1      -7.808   0.374 123.555  0.00  0.00    +0.000 N 
ATOM     19  C   UNL     1      -8.147  -0.927 123.965  0.00  0.00    +0.000 A 
ATOM     20  C   UNL     1      -8.870  -1.637 122.965  0.00  0.00    +0.000 A 
ATOM     21  C   UNL     1      -9.284  -2.943 123.141  0.00  0.00    +0.000 A 
ATOM     22  C   UNL     1      -8.974  -3.570 124.331  0.00  0.00    +0.000 A 
ATOM     23  C   UNL     1      -8.309  -2.873 125.357  0.00  0.00    +0.000 A 
ATOM     24  C   UNL     1      -7.882  -1.537 125.220  0.00  0.00    +0.000 A 
ATOM     25  H   UNL     1      -8.215   0.605 122.656  0.00  0.00    +0.000 HD
ENDBRANCH   4   8
BRANCH   1  26
ATOM     26  C   UNL     1      -8.835   3.274 131.549  0.00  0.00    +0.000 C 
BRANCH  26  30
ATOM     27  N   UNL     1     -11.761   5.410 130.771  0.00  0.00    +0.000 N 
ATOM     28  C   UNL     1     -10.428   5.127 130.958  0.00  0.00    +0.000 C 
ATOM     29  O   UNL     1      -9.540   5.940 130.698  0.00  0.00    +0.000 OA
ATOM     30  N   UNL     1     -10.175   3.875 131.453  0.00  0.00    +0.000 N 
ATOM     31  H   UNL     1     -12.464   4.681 130.802  0.00  0.00    +0.000 HD
ATOM     32  H   UNL     1     -10.955   3.323 131.775  0.00  0.00    +0.000 HD
BRANCH  27  33
ATOM     33  C   UNL     1     -12.201   6.731 130.282  0.00  0.00    +0.000 C 
BRANCH  33  34
ATOM     34  C   UNL     1     -12.610   6.734 128.799  0.00  0.00    +0.000 C 
ATOM     35  O   UNL     1     -13.770   6.850 128.411  0.00  0.00    +0.000 OA
BRANCH  34  37
ATOM     36  C   UNL     1     -10.813   7.807 127.692  0.00  0.00    +0.000 C 
ATOM     37  O   UNL     1     -11.531   6.591 127.972  0.00  0.00    +0.000 OA
ENDBRANCH  34  37
ENDBRANCH  33  34
ENDBRANCH  27  33
ENDBRANCH  26  30
ENDBRANCH   1  26
TORSDOF 6
ENDMDL
MODEL 2
REMARK VINA RESULT:      -9.1      2.108      2.897
REMARK  Name = CHEMBL4212928
REMARK  9 active torsions:
REMARK  status: ('A' for Active; 'I' for Inactive)
REMARK    1  A    between atoms: C_1  and  O_2
REMARK    2  A    between atoms: O_2  and  C_3
REMARK    3  A    between atoms: C_3  and  C_5
REMARK    4  A    between atoms: C_5  and  N_6
REMARK    5  A    between atoms: N_9  and  C_10
REMARK    6  A    between atoms: C_10  and  C_11
REMARK    7  A    between atoms: C_14  and  C_15
REMARK    8  A    between atoms: N_22  and  C_23
REMARK    9  A    between atoms: C_33  and  C_34
REMARK                            x       y       z     vdW  Elec       q    Type
REMARK                         _______ _______ _______ _____ _____    ______ ____
ROOT
ATOM      1  C   UNL     1      -8.676   2.752 133.205  0.00  0.00    +0.000 A 
ATOM      2  C   UNL     1      -9.608   2.179 132.296  0.00  0.00    +0.000 A 
ATOM      3  C   UNL     1      -9.338   0.969 131.595  0.00  0.00    +0.000 A 
ATOM      4  C   UNL     1      -8.115   0.314 131.774  0.00  0.00    +0.000 A 
ATOM      5  C   UNL     1      -7.182   0.958 132.568  0.00  0.00    +0.000 A 
ATOM      6  C   UNL     1      -7.444   2.103 133.324  0.00  0.00    +0.000 A 
ATOM      7  C   UNL     1      -6.331   2.534 134.223  0.00  0.00    +0.000 C 
ENDROOT
BRANCH   4   8
ATOM      8  C   UNL     1      -7.712  -0.979 131.095  0.00  0.00    +0.000 C 
ATOM      9  O   UNL     1      -7.869  -2.015 131.737  0.00  0.00    +0.000 OA
ATOM     10  N   UNL     1      -7.279  -0.896 129.729  0.00  0.00    +0.000 N 
ATOM     11  C   UNL     1      -6.100  -0.034 129.391  0.00  0.00    +0.000 C 
ATOM     12  C   UNL     1      -6.361   0.973 128.311  0.00  0.00    +0.000 A 
ATOM     13  C   UNL     1      -5.979   2.343 128.181  0.00  0.00    +0.000 A 
ATOM     14  N   UNL     1      -6.429   2.918 127.053  0.00  0.00    +0.000 NA
ATOM     15  N   UNL     1      -7.085   1.918 126.440  0.00  0.00    +0.000 N 
ATOM     16  C   UNL     1      -7.708   2.087 125.143  0.00  0.00    +0.000 C 
ATOM     17  C   UNL     1      -7.106   0.765 127.181  0.00  0.00    +0.000 A 
ATOM     18  N   UNL     1      -7.779  -0.300 126.744  0.00  0.00    +0.000 N 
ATOM     19  C   UNL     1      -8.009  -1.530 127.384  0.00  0.00    +0.000 A 
ATOM     20  C   UNL     1      -8.633  -2.478 126.526  0.00  0.00    +0.000 A 
ATOM     21  C   UNL     1      -8.930  -3.762 126.936  0.00  0.00    +0.000 A 
ATOM     22  C   UNL     1      -8.600  -4.128 128.226  0.00  0.00    +0.000 A 
ATOM     23  C   UNL     1      -8.032  -3.193 129.112  0.00  0.00    +0.000 A 
ATOM     24  C   UNL     1      -7.727  -1.870 128.735  0.00  0.00    +0.000 A 
ATOM     25  H   UNL     1      -8.179  -0.279 125.813  0.00  0.00    +0.000 HD
ENDBRANCH   4   8
BRANCH   1  26
ATOM     26  C   UNL     1      -9.043   4.024 133.982  0.00  0.00    +0.000 C 
BRANCH  26  30
ATOM     27  N   UNL     1     -11.302   6.191 131.999  0.00  0.00    +0.000 N 
ATOM     28  C   UNL     1     -10.090   5.725 132.456  0.00  0.00    +0.000 C 
ATOM     29  O   UNL     1      -9.018   6.106 131.986  0.00  0.00    +0.000 OA
ATOM     30  N   UNL     1     -10.178   4.807 133.469  0.00  0.00    +0.000 N 
ATOM     31  H   UNL     1     -12.171   5.735 132.253  0.00  0.00    +0.000 HD
ATOM     32  H   UNL     1     -11.078   4.653 133.897  0.00  0.00    +0.000 HD
BRANCH  27  33
ATOM     33  C   UNL     1     -11.376   7.213 130.938  0.00  0.00    +0.000 C 
BRANCH  33  34
ATOM     34  C   UNL     1     -11.355   6.628 129.516  0.00  0.00    +0.000 C 
ATOM     35  O   UNL     1     -12.147   5.780 129.114  0.00  0.00    +0.000 OA
BRANCH  34  37
ATOM     36  C   UNL     1     -10.777   8.118 127.768  0.00  0.00    +0.000 C 
ATOM     37  O   UNL     1     -10.350   7.164 128.758  0.00  0.00    +0.000 OA
ENDBRANCH  34  37
ENDBRANCH  33  34
ENDBRANCH  27  33
ENDBRANCH  26  30
ENDBRANCH   1  26
TORSDOF 6
ENDMDL
MODEL 3
REMARK VINA RESULT:      -8.6      3.441      5.260
REMARK  Name = CHEMBL4212928
REMARK  9 active torsions:
REMARK  status: ('A' for Active; 'I' for Inactive)
REMARK    1  A    between atoms: C_1  and  O_2
REMARK    2  A    between atoms: O_2  and  C_3
REMARK    3  A    between atoms: C_3  and  C_5
REMARK    4  A    between atoms: C_5  and  N_6
REMARK    5  A    between atoms: N_9  and  C_10
REMARK    6  A    between atoms: C_10  and  C_11
REMARK    7  A    between atoms: C_14  and  C_15
REMARK    8  A    between atoms: N_22  and  C_23
REMARK    9  A    between atoms: C_33  and  C_34
REMARK                            x       y       z     vdW  Elec       q    Type
REMARK                         _______ _______ _______ _____ _____    ______ ____
ROOT
ATOM      1  C   UNL     1      -7.859   3.292 133.816  0.00  0.00    +0.000 A 
ATOM      2  C   UNL     1      -8.333   2.254 132.966  0.00  0.00    +0.000 A 
ATOM      3  C   UNL     1      -7.649   1.012 132.833  0.00  0.00    +0.000 A 
ATOM      4  C   UNL     1      -6.460   0.789 133.534  0.00  0.00    +0.000 A 
ATOM      5  C   UNL     1      -5.960   1.859 134.256  0.00  0.00    +0.000 A 
ATOM      6  C   UNL     1      -6.643   3.059 134.464  0.00  0.00    +0.000 A 
ATOM      7  C   UNL     1      -5.974   4.013 135.400  0.00  0.00    +0.000 C 
ENDROOT
BRANCH   4   8
ATOM      8  C   UNL     1      -5.645  -0.488 133.483  0.00  0.00    +0.000 C 
ATOM      9  O   UNL     1      -5.583  -1.148 134.518  0.00  0.00    +0.000 OA
ATOM     10  N   UNL     1      -5.101  -0.870 132.212  0.00  0.00    +0.000 N 
ATOM     11  C   UNL     1      -4.172   0.072 131.506  0.00  0.00    +0.000 C 
ATOM     12  C   UNL     1      -4.577   0.399 130.099  0.00  0.00    +0.000 A 
ATOM     13  C   UNL     1      -4.572   1.628 129.373  0.00  0.00    +0.000 A 
ATOM     14  N   UNL     1      -5.032   1.509 128.116  0.00  0.00    +0.000 NA
ATOM     15  N   UNL     1      -5.316   0.199 128.018  0.00  0.00    +0.000 N 
ATOM     16  C   UNL     1      -5.813  -0.391 126.791  0.00  0.00    +0.000 C 
ATOM     17  C   UNL     1      -5.104  -0.480 129.190  0.00  0.00    +0.000 A 
ATOM     18  N   UNL     1      -5.408  -1.775 129.279  0.00  0.00    +0.000 N 
ATOM     19  C   UNL     1      -5.363  -2.624 130.398  0.00  0.00    +0.000 A 
ATOM     20  C   UNL     1      -5.604  -3.984 130.055  0.00  0.00    +0.000 A 
ATOM     21  C   UNL     1      -5.582  -4.996 130.993  0.00  0.00    +0.000 A 
ATOM     22  C   UNL     1      -5.311  -4.664 132.306  0.00  0.00    +0.000 A 
ATOM     23  C   UNL     1      -5.124  -3.320 132.681  0.00  0.00    +0.000 A 
ATOM     24  C   UNL     1      -5.151  -2.258 131.755  0.00  0.00    +0.000 A 
ATOM     25  H   UNL     1      -5.691  -2.270 128.441  0.00  0.00    +0.000 HD
ENDBRANCH   4   8
BRANCH   1  26
ATOM     26  C   UNL     1      -8.669   4.587 133.972  0.00  0.00    +0.000 C 
BRANCH  26  30
ATOM     27  N   UNL     1     -11.195   5.459 131.405  0.00  0.00    +0.000 N 
ATOM     28  C   UNL     1     -10.075   5.652 132.181  0.00  0.00    +0.000 C 
ATOM     29  O   UNL     1      -9.309   6.600 132.007  0.00  0.00    +0.000 OA
ATOM     30  N   UNL     1      -9.887   4.706 133.155  0.00  0.00    +0.000 N 
ATOM     31  H   UNL     1     -11.706   4.584 131.426  0.00  0.00    +0.000 HD
ATOM     32  H   UNL     1     -10.629   4.046 133.329  0.00  0.00    +0.000 HD
BRANCH  27  33
ATOM     33  C   UNL     1     -11.560   6.411 130.339  0.00  0.00    +0.000 C 
BRANCH  33  34
ATOM     34  C   UNL     1     -12.606   7.451 130.774  0.00  0.00    +0.000 C 
ATOM     35  O   UNL     1     -13.373   7.294 131.720  0.00  0.00    +0.000 OA
BRANCH  34  37
ATOM     36  C   UNL     1     -13.011   8.356 128.624  0.00  0.00    +0.000 C 
ATOM     37  O   UNL     1     -12.579   8.565 129.981  0.00  0.00    +0.000 OA
ENDBRANCH  34  37
ENDBRANCH  33  34
ENDBRANCH  27  33
ENDBRANCH  26  30
ENDBRANCH   1  26
TORSDOF 6
ENDMDL
MODEL 4
REMARK VINA RESULT:      -8.1      3.913      5.990
REMARK  Name = CHEMBL4212928
REMARK  9 active torsions:
REMARK  status: ('A' for Active; 'I' for Inactive)
REMARK    1  A    between atoms: C_1  and  O_2
REMARK    2  A    between atoms: O_2  and  C_3
REMARK    3  A    between atoms: C_3  and  C_5
REMARK    4  A    between atoms: C_5  and  N_6
REMARK    5  A    between atoms: N_9  and  C_10
REMARK    6  A    between atoms: C_10  and  C_11
REMARK    7  A    between atoms: C_14  and  C_15
REMARK    8  A    between atoms: N_22  and  C_23
REMARK    9  A    between atoms: C_33  and  C_34
REMARK                            x       y       z     vdW  Elec       q    Type
REMARK                         _______ _______ _______ _____ _____    ______ ____
ROOT
ATOM      1  C   UNL     1      -3.611   4.824 127.199  0.00  0.00    +0.000 A 
ATOM      2  C   UNL     1      -4.950   5.189 126.888  0.00  0.00    +0.000 A 
ATOM      3  C   UNL     1      -5.837   4.309 126.203  0.00  0.00    +0.000 A 
ATOM      4  C   UNL     1      -5.393   3.047 125.795  0.00  0.00    +0.000 A 
ATOM      5  C   UNL     1      -4.053   2.768 126.002  0.00  0.00    +0.000 A 
ATOM      6  C   UNL     1      -3.182   3.578 126.735  0.00  0.00    +0.000 A 
ATOM      7  C   UNL     1      -1.821   3.002 126.955  0.00  0.00    +0.000 C 
ENDROOT
BRANCH   4   8
ATOM      8  C   UNL     1      -6.237   2.020 125.068  0.00  0.00    +0.000 C 
ATOM      9  O   UNL     1      -6.643   2.327 123.949  0.00  0.00    +0.000 OA
ATOM     10  N   UNL     1      -6.406   0.743 125.699  0.00  0.00    +0.000 N 
ATOM     11  C   UNL     1      -7.022   0.683 127.064  0.00  0.00    +0.000 C 
ATOM     12  C   UNL     1      -6.201  -0.054 128.080  0.00  0.00    +0.000 A 
ATOM     13  C   UNL     1      -5.913   0.228 129.450  0.00  0.00    +0.000 A 
ATOM     14  N   UNL     1      -5.111  -0.684 130.026  0.00  0.00    +0.000 NA
ATOM     15  N   UNL     1      -4.895  -1.569 129.038  0.00  0.00    +0.000 N 
ATOM     16  C   UNL     1      -4.098  -2.763 129.235  0.00  0.00    +0.000 C 
ATOM     17  C   UNL     1      -5.487  -1.201 127.858  0.00  0.00    +0.000 A 
ATOM     18  N   UNL     1      -5.307  -1.937 126.760  0.00  0.00    +0.000 N 
ATOM     19  C   UNL     1      -5.734  -1.689 125.444  0.00  0.00    +0.000 A 
ATOM     20  C   UNL     1      -5.491  -2.794 124.580  0.00  0.00    +0.000 A 
ATOM     21  C   UNL     1      -5.853  -2.783 123.248  0.00  0.00    +0.000 A 
ATOM     22  C   UNL     1      -6.477  -1.656 122.751  0.00  0.00    +0.000 A 
ATOM     23  C   UNL     1      -6.680  -0.529 123.570  0.00  0.00    +0.000 A 
ATOM     24  C   UNL     1      -6.312  -0.497 124.931  0.00  0.00    +0.000 A 
ATOM     25  H   UNL     1      -4.822  -2.823 126.839  0.00  0.00    +0.000 HD
ENDBRANCH   4   8
BRANCH   1  26
ATOM     26  C   UNL     1      -2.718   5.786 127.995  0.00  0.00    +0.000 C 
BRANCH  26  30
ATOM     27  N   UNL     1      -3.792   5.897 131.540  0.00  0.00    +0.000 N 
ATOM     28  C   UNL     1      -3.795   6.267 130.214  0.00  0.00    +0.000 C 
ATOM     29  O   UNL     1      -4.630   7.044 129.750  0.00  0.00    +0.000 OA
ATOM     30  N   UNL     1      -2.800   5.702 129.462  0.00  0.00    +0.000 N 
ATOM     31  H   UNL     1      -3.230   5.120 131.868  0.00  0.00    +0.000 HD
ATOM     32  H   UNL     1      -2.072   5.193 129.939  0.00  0.00    +0.000 HD
BRANCH  27  33
ATOM     33  C   UNL     1      -4.774   6.450 132.491  0.00  0.00    +0.000 C 
BRANCH  33  34
ATOM     34  C   UNL     1      -5.785   5.412 133.007  0.00  0.00    +0.000 C 
ATOM     35  O   UNL     1      -5.473   4.291 133.397  0.00  0.00    +0.000 OA
BRANCH  34  37
ATOM     36  C   UNL     1      -7.507   6.360 131.687  0.00  0.00    +0.000 C 
ATOM     37  O   UNL     1      -7.067   5.888 132.973  0.00  0.00    +0.000 OA
ENDBRANCH  34  37
ENDBRANCH  33  34
ENDBRANCH  27  33
ENDBRANCH  26  30
ENDBRANCH   1  26
TORSDOF 6
ENDMDL
MODEL 5
REMARK VINA RESULT:      -8.1      3.452      7.784
REMARK  Name = CHEMBL4212928
REMARK  9 active torsions:
REMARK  status: ('A' for Active; 'I' for Inactive)
REMARK    1  A    between atoms: C_1  and  O_2
REMARK    2  A    between atoms: O_2  and  C_3
REMARK    3  A    between atoms: C_3  and  C_5
REMARK    4  A    between atoms: C_5  and  N_6
REMARK    5  A    between atoms: N_9  and  C_10
REMARK    6  A    between atoms: C_10  and  C_11
REMARK    7  A    between atoms: C_14  and  C_15
REMARK    8  A    between atoms: N_22  and  C_23
REMARK    9  A    between atoms: C_33  and  C_34
REMARK                            x       y       z     vdW  Elec       q    Type
REMARK                         _______ _______ _______ _____ _____    ______ ____
ROOT
ATOM      1  C   UNL     1      -8.099  -2.576 127.001  0.00  0.00    +0.000 A 
ATOM      2  C   UNL     1      -6.910  -1.814 127.172  0.00  0.00    +0.000 A 
ATOM      3  C   UNL     1      -6.116  -1.903 128.351  0.00  0.00    +0.000 A 
ATOM      4  C   UNL     1      -6.508  -2.744 129.398  0.00  0.00    +0.000 A 
ATOM      5  C   UNL     1      -7.731  -3.378 129.255  0.00  0.00    +0.000 A 
ATOM      6  C   UNL     1      -8.492  -3.368 128.083  0.00  0.00    +0.000 A 
ATOM      7  C   UNL     1      -9.702  -4.245 128.110  0.00  0.00    +0.000 C 
ENDROOT
BRANCH   4   8
ATOM      8  C   UNL     1      -5.749  -2.931 130.696  0.00  0.00    +0.000 C 
ATOM      9  O   UNL     1      -4.934  -3.851 130.734  0.00  0.00    +0.000 OA
ATOM     10  N   UNL     1      -5.969  -1.964 131.732  0.00  0.00    +0.000 N 
ATOM     11  C   UNL     1      -7.359  -1.765 132.258  0.00  0.00    +0.000 C 
ATOM     12  C   UNL     1      -7.835  -0.342 132.222  0.00  0.00    +0.000 A 
ATOM     13  C   UNL     1      -9.095   0.226 131.863  0.00  0.00    +0.000 A 
ATOM     14  N   UNL     1      -9.121   1.566 131.950  0.00  0.00    +0.000 NA
ATOM     15  N   UNL     1      -7.885   1.868 132.384  0.00  0.00    +0.000 N 
ATOM     16  C   UNL     1      -7.478   3.232 132.659  0.00  0.00    +0.000 C 
ATOM     17  C   UNL     1      -7.082   0.765 132.509  0.00  0.00    +0.000 A 
ATOM     18  N   UNL     1      -5.803   0.902 132.861  0.00  0.00    +0.000 N 
ATOM     19  C   UNL     1      -4.795  -0.073 132.950  0.00  0.00    +0.000 A 
ATOM     20  C   UNL     1      -3.597   0.438 133.522  0.00  0.00    +0.000 A 
ATOM     21  C   UNL     1      -2.483  -0.351 133.730  0.00  0.00    +0.000 A 
ATOM     22  C   UNL     1      -2.550  -1.682 133.368  0.00  0.00    +0.000 A 
ATOM     23  C   UNL     1      -3.704  -2.200 132.749  0.00  0.00    +0.000 A 
ATOM     24  C   UNL     1      -4.855  -1.423 132.510  0.00  0.00    +0.000 A 
ATOM     25  H   UNL     1      -5.468   1.817 133.139  0.00  0.00    +0.000 HD
ENDBRANCH   4   8
BRANCH   1  26
ATOM     26  C   UNL     1      -8.884  -2.490 125.685  0.00  0.00    +0.000 C 
BRANCH  26  30
ATOM     27  N   UNL     1      -8.631   0.856 124.113  0.00  0.00    +0.000 N 
ATOM     28  C   UNL     1      -9.204  -0.129 124.885  0.00  0.00    +0.000 C 
ATOM     29  O   UNL     1     -10.195   0.077 125.586  0.00  0.00    +0.000 OA
ATOM     30  N   UNL     1      -8.582  -1.347 124.809  0.00  0.00    +0.000 N 
ATOM     31  H   UNL     1      -7.715   0.732 123.697  0.00  0.00    +0.000 HD
ATOM     32  H   UNL     1      -7.869  -1.476 124.108  0.00  0.00    +0.000 HD
BRANCH  27  33
ATOM     33  C   UNL     1      -9.207   2.213 124.054  0.00  0.00    +0.000 C 
BRANCH  33  34
ATOM     34  C   UNL     1      -8.317   3.288 124.700  0.00  0.00    +0.000 C 
ATOM     35  O   UNL     1      -8.753   4.282 125.274  0.00  0.00    +0.000 OA
BRANCH  34  37
ATOM     36  C   UNL     1      -6.175   4.109 124.112  0.00  0.00    +0.000 C 
ATOM     37  O   UNL     1      -6.986   3.006 124.553  0.00  0.00    +0.000 OA
ENDBRANCH  34  37
ENDBRANCH  33  34
ENDBRANCH  27  33
ENDBRANCH  26  30
ENDBRANCH   1  26
TORSDOF 6
ENDMDL
MODEL 6
REMARK VINA RESULT:      -8.1      2.573      3.433
REMARK  Name = CHEMBL4212928
REMARK  9 active torsions:
REMARK  status: ('A' for Active; 'I' for Inactive)
REMARK    1  A    between atoms: C_1  and  O_2
REMARK    2  A    between atoms: O_2  and  C_3
REMARK    3  A    between atoms: C_3  and  C_5
REMARK    4  A    between atoms: C_5  and  N_6
REMARK    5  A    between atoms: N_9  and  C_10
REMARK    6  A    between atoms: C_10  and  C_11
REMARK    7  A    between atoms: C_14  and  C_15
REMARK    8  A    between atoms: N_22  and  C_23
REMARK    9  A    between atoms: C_33  and  C_34
REMARK                            x       y       z     vdW  Elec       q    Type
REMARK                         _______ _______ _______ _____ _____    ______ ____
ROOT
ATOM      1  C   UNL     1      -7.938   3.091 133.118  0.00  0.00    +0.000 A 
ATOM      2  C   UNL     1      -6.517   3.150 133.119  0.00  0.00    +0.000 A 
ATOM      3  C   UNL     1      -5.722   2.288 132.310  0.00  0.00    +0.000 A 
ATOM      4  C   UNL     1      -6.334   1.330 131.496  0.00  0.00    +0.000 A 
ATOM      5  C   UNL     1      -7.709   1.214 131.608  0.00  0.00    +0.000 A 
ATOM      6  C   UNL     1      -8.519   2.091 132.333  0.00  0.00    +0.000 A 
ATOM      7  C   UNL     1      -9.988   1.860 132.188  0.00  0.00    +0.000 C 
ENDROOT
BRANCH   4   8
ATOM      8  C   UNL     1      -5.603   0.362 130.588  0.00  0.00    +0.000 C 
ATOM      9  O   UNL     1      -5.547  -0.810 130.955  0.00  0.00    +0.000 OA
ATOM     10  N   UNL     1      -5.129   0.870 129.333  0.00  0.00    +0.000 N 
ATOM     11  C   UNL     1      -4.169   2.021 129.330  0.00  0.00    +0.000 C 
ATOM     12  C   UNL     1      -4.601   3.184 128.487  0.00  0.00    +0.000 A 
ATOM     13  C   UNL     1      -4.545   4.593 128.715  0.00  0.00    +0.000 A 
ATOM     14  N   UNL     1      -5.055   5.318 127.707  0.00  0.00    +0.000 NA
ATOM     15  N   UNL     1      -5.424   4.384 126.813  0.00  0.00    +0.000 N 
ATOM     16  C   UNL     1      -6.000   4.730 125.530  0.00  0.00    +0.000 C 
ATOM     17  C   UNL     1      -5.214   3.107 127.265  0.00  0.00    +0.000 A 
ATOM     18  N   UNL     1      -5.595   2.064 126.527  0.00  0.00    +0.000 N 
ATOM     19  C   UNL     1      -5.564   0.694 126.840  0.00  0.00    +0.000 A 
ATOM     20  C   UNL     1      -5.902  -0.124 125.725  0.00  0.00    +0.000 A 
ATOM     21  C   UNL     1      -5.910  -1.502 125.796  0.00  0.00    +0.000 A 
ATOM     22  C   UNL     1      -5.573  -2.095 126.997  0.00  0.00    +0.000 A 
ATOM     23  C   UNL     1      -5.289  -1.310 128.130  0.00  0.00    +0.000 A 
ATOM     24  C   UNL     1      -5.282   0.099 128.100  0.00  0.00    +0.000 A 
ATOM     25  H   UNL     1      -5.938   2.228 125.587  0.00  0.00    +0.000 HD
ENDBRANCH   4   8
BRANCH   1  26
ATOM     26  C   UNL     1      -8.749   4.086 133.959  0.00  0.00    +0.000 C 
BRANCH  26  30
ATOM     27  N   UNL     1     -11.300   5.827 131.912  0.00  0.00    +0.000 N 
ATOM     28  C   UNL     1     -10.070   5.654 132.505  0.00  0.00    +0.000 C 
ATOM     29  O   UNL     1      -9.117   6.398 132.274  0.00  0.00    +0.000 OA
ATOM     30  N   UNL     1      -9.997   4.590 133.365  0.00  0.00    +0.000 N 
ATOM     31  H   UNL     1     -12.012   5.108 131.957  0.00  0.00    +0.000 HD
ATOM     32  H   UNL     1     -10.852   4.117 133.612  0.00  0.00    +0.000 HD
BRANCH  27  33
ATOM     33  C   UNL     1     -11.553   6.952 130.991  0.00  0.00    +0.000 C 
BRANCH  33  34
ATOM     34  C   UNL     1     -11.553   6.545 129.508  0.00  0.00    +0.000 C 
ATOM     35  O   UNL     1     -12.452   5.898 128.977  0.00  0.00    +0.000 OA
BRANCH  34  37
ATOM     36  C   UNL     1     -10.514   8.333 128.355  0.00  0.00    +0.000 C 
ATOM     37  O   UNL     1     -10.434   6.987 128.857  0.00  0.00    +0.000 OA
ENDBRANCH  34  37
ENDBRANCH  33  34
ENDBRANCH  27  33
ENDBRANCH  26  30
ENDBRANCH   1  26
TORSDOF 6
ENDMDL
MODEL 7
REMARK VINA RESULT:      -7.9      4.925      6.955
REMARK  Name = CHEMBL4212928
REMARK  9 active torsions:
REMARK  status: ('A' for Active; 'I' for Inactive)
REMARK    1  A    between atoms: C_1  and  O_2
REMARK    2  A    between atoms: O_2  and  C_3
REMARK    3  A    between atoms: C_3  and  C_5
REMARK    4  A    between atoms: C_5  and  N_6
REMARK    5  A    between atoms: N_9  and  C_10
REMARK    6  A    between atoms: C_10  and  C_11
REMARK    7  A    between atoms: C_14  and  C_15
REMARK    8  A    between atoms: N_22  and  C_23
REMARK    9  A    between atoms: C_33  and  C_34
REMARK                            x       y       z     vdW  Elec       q    Type
REMARK                         _______ _______ _______ _____ _____    ______ ____
ROOT
ATOM      1  C   UNL     1      -3.394   4.583 127.566  0.00  0.00    +0.000 A 
ATOM      2  C   UNL     1      -4.780   4.895 127.500  0.00  0.00    +0.000 A 
ATOM      3  C   UNL     1      -5.709   4.076 126.796  0.00  0.00    +0.000 A 
ATOM      4  C   UNL     1      -5.265   2.934 126.121  0.00  0.00    +0.000 A 
ATOM      5  C   UNL     1      -3.897   2.723 126.100  0.00  0.00    +0.000 A 
ATOM      6  C   UNL     1      -2.973   3.464 126.841  0.00  0.00    +0.000 A 
ATOM      7  C   UNL     1      -1.567   2.961 126.779  0.00  0.00    +0.000 C 
ENDROOT
BRANCH   4   8
ATOM      8  C   UNL     1      -6.151   1.981 125.345  0.00  0.00    +0.000 C 
ATOM      9  O   UNL     1      -6.575   2.376 124.261  0.00  0.00    +0.000 OA
ATOM     10  N   UNL     1      -6.336   0.667 125.889  0.00  0.00    +0.000 N 
ATOM     11  C   UNL     1      -6.923   0.524 127.261  0.00  0.00    +0.000 C 
ATOM     12  C   UNL     1      -6.097  -0.302 128.202  0.00  0.00    +0.000 A 
ATOM     13  C   UNL     1      -5.770  -0.125 129.581  0.00  0.00    +0.000 A 
ATOM     14  N   UNL     1      -4.979  -1.093 130.071  0.00  0.00    +0.000 NA
ATOM     15  N   UNL     1      -4.807  -1.911 129.018  0.00  0.00    +0.000 N 
ATOM     16  C   UNL     1      -4.035  -3.134 129.111  0.00  0.00    +0.000 C 
ATOM     17  C   UNL     1      -5.416  -1.447 127.882  0.00  0.00    +0.000 A 
ATOM     18  N   UNL     1      -5.280  -2.107 126.731  0.00  0.00    +0.000 N 
ATOM     19  C   UNL     1      -5.731  -1.757 125.447  0.00  0.00    +0.000 A 
ATOM     20  C   UNL     1      -5.535  -2.802 124.502  0.00  0.00    +0.000 A 
ATOM     21  C   UNL     1      -5.928  -2.689 123.183  0.00  0.00    +0.000 A 
ATOM     22  C   UNL     1      -6.535  -1.515 122.782  0.00  0.00    +0.000 A 
ATOM     23  C   UNL     1      -6.691  -0.444 123.683  0.00  0.00    +0.000 A 
ATOM     24  C   UNL     1      -6.291  -0.518 125.033  0.00  0.00    +0.000 A 
ATOM     25  H   UNL     1      -4.815  -3.007 126.735  0.00  0.00    +0.000 HD
ENDBRANCH   4   8
BRANCH   1  26
ATOM     26  C   UNL     1      -2.446   5.463 128.391  0.00  0.00    +0.000 C 
BRANCH  26  30
ATOM     27  N   UNL     1      -3.337   7.270 131.502  0.00  0.00    +0.000 N 
ATOM     28  C   UNL     1      -2.810   6.242 130.754  0.00  0.00    +0.000 C 
ATOM     29  O   UNL     1      -2.160   5.327 131.259  0.00  0.00    +0.000 OA
ATOM     30  N   UNL     1      -3.066   6.325 129.410  0.00  0.00    +0.000 N 
ATOM     31  H   UNL     1      -3.699   8.108 131.063  0.00  0.00    +0.000 HD
ATOM     32  H   UNL     1      -3.723   7.021 129.092  0.00  0.00    +0.000 HD
BRANCH  27  33
ATOM     33  C   UNL     1      -3.184   7.304 132.969  0.00  0.00    +0.000 C 
BRANCH  33  34
ATOM     34  C   UNL     1      -2.203   8.383 133.460  0.00  0.00    +0.000 C 
ATOM     35  O   UNL     1      -1.183   8.704 132.857  0.00  0.00    +0.000 OA
BRANCH  34  37
ATOM     36  C   UNL     1      -2.213  10.306 134.842  0.00  0.00    +0.000 C 
ATOM     37  O   UNL     1      -2.604   8.934 134.646  0.00  0.00    +0.000 OA
ENDBRANCH  34  37
ENDBRANCH  33  34
ENDBRANCH  27  33
ENDBRANCH  26  30
ENDBRANCH   1  26
TORSDOF 6
ENDMDL
MODEL 8
REMARK VINA RESULT:      -7.9      1.796      2.142
REMARK  Name = CHEMBL4212928
REMARK  9 active torsions:
REMARK  status: ('A' for Active; 'I' for Inactive)
REMARK    1  A    between atoms: C_1  and  O_2
REMARK    2  A    between atoms: O_2  and  C_3
REMARK    3  A    between atoms: C_3  and  C_5
REMARK    4  A    between atoms: C_5  and  N_6
REMARK    5  A    between atoms: N_9  and  C_10
REMARK    6  A    between atoms: C_10  and  C_11
REMARK    7  A    between atoms: C_14  and  C_15
REMARK    8  A    between atoms: N_22  and  C_23
REMARK    9  A    between atoms: C_33  and  C_34
REMARK                            x       y       z     vdW  Elec       q    Type
REMARK                         _______ _______ _______ _____ _____    ______ ____
ROOT
ATOM      1  C   UNL     1      -8.028   1.041 130.902  0.00  0.00    +0.000 A 
ATOM      2  C   UNL     1      -8.366  -0.258 130.430  0.00  0.00    +0.000 A 
ATOM      3  C   UNL     1      -7.607  -0.919 129.422  0.00  0.00    +0.000 A 
ATOM      4  C   UNL     1      -6.503  -0.283 128.846  0.00  0.00    +0.000 A 
ATOM      5  C   UNL     1      -6.272   1.025 129.238  0.00  0.00    +0.000 A 
ATOM      6  C   UNL     1      -6.950   1.670 130.274  0.00  0.00    +0.000 A 
ATOM      7  C   UNL     1      -6.430   3.028 130.619  0.00  0.00    +0.000 C 
ENDROOT
BRANCH   4   8
ATOM      8  C   UNL     1      -5.614  -0.880 127.774  0.00  0.00    +0.000 C 
ATOM      9  O   UNL     1      -4.993  -1.899 128.072  0.00  0.00    +0.000 OA
ATOM     10  N   UNL     1      -5.649  -0.270 126.477  0.00  0.00    +0.000 N 
ATOM     11  C   UNL     1      -5.294   1.181 126.345  0.00  0.00    +0.000 C 
ATOM     12  C   UNL     1      -6.333   2.011 125.651  0.00  0.00    +0.000 A 
ATOM     13  C   UNL     1      -6.842   3.316 125.928  0.00  0.00    +0.000 A 
ATOM     14  N   UNL     1      -7.794   3.711 125.066  0.00  0.00    +0.000 NA
ATOM     15  N   UNL     1      -7.890   2.672 124.218  0.00  0.00    +0.000 N 
ATOM     16  C   UNL     1      -8.789   2.687 123.082  0.00  0.00    +0.000 C 
ATOM     17  C   UNL     1      -7.072   1.628 124.564  0.00  0.00    +0.000 A 
ATOM     18  N   UNL     1      -7.102   0.493 123.864  0.00  0.00    +0.000 N 
ATOM     19  C   UNL     1      -6.429  -0.717 124.105  0.00  0.00    +0.000 A 
ATOM     20  C   UNL     1      -6.588  -1.645 123.038  0.00  0.00    +0.000 A 
ATOM     21  C   UNL     1      -5.993  -2.891 123.047  0.00  0.00    +0.000 A 
ATOM     22  C   UNL     1      -5.214  -3.232 124.135  0.00  0.00    +0.000 A 
ATOM     23  C   UNL     1      -5.085  -2.355 125.229  0.00  0.00    +0.000 A 
ATOM     24  C   UNL     1      -5.688  -1.081 125.261  0.00  0.00    +0.000 A 
ATOM     25  H   UNL     1      -7.653   0.457 123.015  0.00  0.00    +0.000 HD
ENDBRANCH   4   8
BRANCH   1  26
ATOM     26  C   UNL     1      -8.840   1.682 132.036  0.00  0.00    +0.000 C 
BRANCH  26  30
ATOM     27  N   UNL     1     -10.885   4.662 131.220  0.00  0.00    +0.000 N 
ATOM     28  C   UNL     1      -9.880   3.962 131.848  0.00  0.00    +0.000 C 
ATOM     29  O   UNL     1      -9.026   4.516 132.541  0.00  0.00    +0.000 OA
ATOM     30  N   UNL     1      -9.911   2.609 131.638  0.00  0.00    +0.000 N 
ATOM     31  H   UNL     1     -11.460   4.231 130.506  0.00  0.00    +0.000 HD
ATOM     32  H   UNL     1     -10.719   2.215 131.182  0.00  0.00    +0.000 HD
BRANCH  27  33
ATOM     33  C   UNL     1     -11.014   6.123 131.379  0.00  0.00    +0.000 C 
BRANCH  33  34
ATOM     34  C   UNL     1     -12.362   6.680 130.892  0.00  0.00    +0.000 C 
ATOM     35  O   UNL     1     -13.149   7.291 131.611  0.00  0.00    +0.000 OA
BRANCH  34  37
ATOM     36  C   UNL     1     -12.356   7.516 128.677  0.00  0.00    +0.000 C 
ATOM     37  O   UNL     1     -12.578   6.408 129.569  0.00  0.00    +0.000 OA
ENDBRANCH  34  37
ENDBRANCH  33  34
ENDBRANCH  27  33
ENDBRANCH  26  30
ENDBRANCH   1  26
TORSDOF 6
ENDMDL
MODEL 9
REMARK VINA RESULT:      -7.9      3.675      8.022
REMARK  Name = CHEMBL4212928
REMARK  9 active torsions:
REMARK  status: ('A' for Active; 'I' for Inactive)
REMARK    1  A    between atoms: C_1  and  O_2
REMARK    2  A    between atoms: O_2  and  C_3
REMARK    3  A    between atoms: C_3  and  C_5
REMARK    4  A    between atoms: C_5  and  N_6
REMARK    5  A    between atoms: N_9  and  C_10
REMARK    6  A    between atoms: C_10  and  C_11
REMARK    7  A    between atoms: C_14  and  C_15
REMARK    8  A    between atoms: N_22  and  C_23
REMARK    9  A    between atoms: C_33  and  C_34
REMARK                            x       y       z     vdW  Elec       q    Type
REMARK                         _______ _______ _______ _____ _____    ______ ____
ROOT
ATOM      1  C   UNL     1      -7.316  -0.947 130.661  0.00  0.00    +0.000 A 
ATOM      2  C   UNL     1      -8.436  -0.135 130.992  0.00  0.00    +0.000 A 
ATOM      3  C   UNL     1      -8.325   1.274 131.165  0.00  0.00    +0.000 A 
ATOM      4  C   UNL     1      -7.082   1.901 131.031  0.00  0.00    +0.000 A 
ATOM      5  C   UNL     1      -5.992   1.071 130.830  0.00  0.00    +0.000 A 
ATOM      6  C   UNL     1      -6.079  -0.301 130.583  0.00  0.00    +0.000 A 
ATOM      7  C   UNL     1      -4.784  -0.965 130.246  0.00  0.00    +0.000 C 
ENDROOT
BRANCH   4   8
ATOM      8  C   UNL     1      -6.835   3.388 131.184  0.00  0.00    +0.000 C 
ATOM      9  O   UNL     1      -7.333   3.936 132.165  0.00  0.00    +0.000 OA
ATOM     10  N   UNL     1      -5.961   4.010 130.231  0.00  0.00    +0.000 N 
ATOM     11  C   UNL     1      -6.307   3.941 128.774  0.00  0.00    +0.000 C 
ATOM     12  C   UNL     1      -5.213   3.394 127.905  0.00  0.00    +0.000 A 
ATOM     13  C   UNL     1      -5.243   2.483 126.805  0.00  0.00    +0.000 A 
ATOM     14  N   UNL     1      -4.029   2.228 126.291  0.00  0.00    +0.000 NA
ATOM     15  N   UNL     1      -3.212   2.987 127.041  0.00  0.00    +0.000 N 
ATOM     16  C   UNL     1      -1.784   3.050 126.802  0.00  0.00    +0.000 C 
ATOM     17  C   UNL     1      -3.875   3.653 128.038  0.00  0.00    +0.000 A 
ATOM     18  N   UNL     1      -3.197   4.393 128.916  0.00  0.00    +0.000 N 
ATOM     19  C   UNL     1      -3.663   5.069 130.057  0.00  0.00    +0.000 A 
ATOM     20  C   UNL     1      -2.660   5.889 130.647  0.00  0.00    +0.000 A 
ATOM     21  C   UNL     1      -2.903   6.664 131.763  0.00  0.00    +0.000 A 
ATOM     22  C   UNL     1      -4.169   6.637 132.313  0.00  0.00    +0.000 A 
ATOM     23  C   UNL     1      -5.163   5.793 131.783  0.00  0.00    +0.000 A 
ATOM     24  C   UNL     1      -4.950   4.978 130.653  0.00  0.00    +0.000 A 
ATOM     25  H   UNL     1      -2.206   4.542 128.768  0.00  0.00    +0.000 HD
ENDBRANCH   4   8
BRANCH   1  26
ATOM     26  C   UNL     1      -7.502  -2.452 130.422  0.00  0.00    +0.000 C 
BRANCH  26  30
ATOM     27  N   UNL     1      -8.712  -3.475 127.072  0.00  0.00    +0.000 N 
ATOM     28  C   UNL     1      -7.847  -2.895 127.972  0.00  0.00    +0.000 C 
ATOM     29  O   UNL     1      -6.743  -2.463 127.639  0.00  0.00    +0.000 OA
ATOM     30  N   UNL     1      -8.314  -2.841 129.258  0.00  0.00    +0.000 N 
ATOM     31  H   UNL     1      -9.524  -3.995 127.383  0.00  0.00    +0.000 HD
ATOM     32  H   UNL     1      -9.279  -3.081 129.426  0.00  0.00    +0.000 HD
BRANCH  27  33
ATOM     33  C   UNL     1      -8.372  -3.573 125.640  0.00  0.00    +0.000 C 
BRANCH  33  34
ATOM     34  C   UNL     1      -9.338  -2.802 124.724  0.00  0.00    +0.000 C 
ATOM     35  O   UNL     1      -9.821  -3.266 123.695  0.00  0.00    +0.000 OA
BRANCH  34  37
ATOM     36  C   UNL     1      -8.563  -0.572 124.908  0.00  0.00    +0.000 C 
ATOM     37  O   UNL     1      -9.588  -1.541 125.193  0.00  0.00    +0.000 OA
ENDBRANCH  34  37
ENDBRANCH  33  34
ENDBRANCH  27  33
ENDBRANCH  26  30
ENDBRANCH   1  26
TORSDOF 6
ENDMDL
