MODEL 1
REMARK VINA RESULT:     -10.7      0.000      0.000
REMARK  Name = CHEMBL287629
REMARK  7 active torsions:
REMARK  status: ('A' for Active; 'I' for Inactive)
REMARK    1  A    between atoms: C_2  and  C_3
REMARK    2  A    between atoms: C_3  and  N_4
REMARK    3  A    between atoms: C_6  and  C_7
REMARK    4  A    between atoms: N_15  and  C_16
REMARK    5  A    between atoms: C_16  and  C_17
REMARK    6  A    between atoms: C_21  and  C_22
REMARK    7  A    between atoms: C_27  and  N_28
REMARK                            x       y       z     vdW  Elec       q    Type
REMARK                         _______ _______ _______ _____ _____    ______ ____
ROOT
ATOM      1  C   UNL     1      -8.432   1.323 124.701  0.00  0.00    +0.000 A 
ATOM      2  C   UNL     1      -9.147   0.512 123.832  0.00  0.00    +0.000 A 
ATOM      3  C   UNL     1      -8.894  -0.813 124.267  0.00  0.00    +0.000 A 
ATOM      4  C   UNL     1      -9.011  -1.482 125.529  0.00  0.00    +0.000 A 
ATOM      5  C   UNL     1      -8.300  -2.643 125.912  0.00  0.00    +0.000 A 
ATOM      6  C   UNL     1      -7.505  -3.225 124.939  0.00  0.00    +0.000 A 
ATOM      7  C   UNL     1      -7.169  -2.387 123.844  0.00  0.00    +0.000 A 
ATOM      8  C   UNL     1      -7.571  -0.965 123.869  0.00  0.00    +0.000 A 
ATOM      9  O   UNL     1      -7.218   0.356 124.865  0.00  0.00    +0.000 OA
ENDROOT
BRANCH   5  10
ATOM     10  C   UNL     1      -8.308  -3.124 127.349  0.00  0.00    +0.000 C 
ATOM     11  O   UNL     1      -8.912  -4.174 127.581  0.00  0.00    +0.000 OA
ATOM     12  N   UNL     1      -7.572  -2.381 128.351  0.00  0.00    +0.000 N 
ATOM     13  C   UNL     1      -6.366  -2.891 129.018  0.00  0.00    +0.000 C 
ATOM     14  C   UNL     1      -6.248  -2.464 130.567  0.00  0.00    +0.000 C 
ATOM     15  C   UNL     1      -5.979  -0.601 131.070  0.00  0.00    +0.000 C 
ATOM     16  C   UNL     1      -7.605  -0.439 130.092  0.00  0.00    +0.000 C 
ATOM     17  C   UNL     1      -7.709  -0.940 128.560  0.00  0.00    +0.000 C 
BRANCH  15  18
ATOM     18  N   UNL     1      -4.487   0.377 131.876  0.00  0.00    +0.000 N 
ATOM     19  C   UNL     1      -4.830   0.894 130.588  0.00  0.00    +0.000 C 
ATOM     20  O   UNL     1      -4.516   0.503 129.478  0.00  0.00    +0.000 OA
ATOM     21  C   UNL     1      -5.320   2.092 131.177  0.00  0.00    +0.000 C 
ATOM     22  C   UNL     1      -3.949   2.511 130.490  0.00  0.00    +0.000 C 
ATOM     23  C   UNL     1      -3.767   3.219 131.681  0.00  0.00    +0.000 A 
ATOM     24  C   UNL     1      -3.699   4.799 131.418  0.00  0.00    +0.000 A 
ATOM     25  C   UNL     1      -3.050   5.740 132.134  0.00  0.00    +0.000 A 
ATOM     26  C   UNL     1      -2.412   5.005 133.092  0.00  0.00    +0.000 A 
ATOM     27  C   UNL     1      -2.658   3.259 133.311  0.00  0.00    +0.000 A 
ATOM     28  C   UNL     1      -3.561   2.067 132.518  0.00  0.00    +0.000 A 
ENDBRANCH  15  18
ENDBRANCH   5  10
BRANCH   1  29
ATOM     29  C   UNL     1      -8.596   2.922 124.698  0.00  0.00    +0.000 C 
BRANCH  29  32
ATOM     30  O   UNL     1      -5.876   5.376 124.559  0.00  0.00    +0.000 OA
ATOM     31  C   UNL     1      -6.604   4.517 125.068  0.00  0.00    +0.000 C 
ATOM     32  N   UNL     1      -7.591   3.902 124.271  0.00  0.00    +0.000 N 
ATOM     33  H   UNL     1      -7.590   4.220 123.311  0.00  0.00    +0.000 HD
BRANCH  31  34
ATOM     34  C   UNL     1      -6.448   4.137 126.581  0.00  0.00    +0.000 C 
BRANCH  34  35
ATOM     35  N   UNL     1      -5.043   4.106 127.062  0.00  0.00    +0.000 N 
ATOM     36  C   UNL     1      -4.501   5.200 127.729  0.00  0.00    +0.000 A 
ATOM     37  C   UNL     1      -3.171   5.350 127.879  0.00  0.00    +0.000 A 
ATOM     38  C   UNL     1      -2.296   4.251 127.521  0.00  0.00    +0.000 A 
ATOM     39  C   UNL     1      -2.810   3.103 127.063  0.00  0.00    +0.000 A 
ATOM     40  C   UNL     1      -4.243   3.037 126.659  0.00  0.00    +0.000 A 
ATOM     41  O   UNL     1      -4.642   2.072 126.014  0.00  0.00    +0.000 OA
BRANCH  37  42
ATOM     42  C   UNL     1      -2.529   6.595 128.414  0.00  0.00    +0.000 C 
ATOM     43  F   UNL     1      -1.565   6.323 129.331  0.00  0.00    +0.000 F 
ATOM     44  F   UNL     1      -1.936   7.315 127.426  0.00  0.00    +0.000 F 
ATOM     45  F   UNL     1      -3.427   7.416 129.016  0.00  0.00    +0.000 F 
ENDBRANCH  37  42
ENDBRANCH  34  35
ENDBRANCH  31  34
ENDBRANCH  29  32
ENDBRANCH   1  29
TORSDOF 7
ENDMDL
MODEL 2
REMARK VINA RESULT:     -10.7      4.735      7.540
REMARK  Name = CHEMBL287629
REMARK  7 active torsions:
REMARK  status: ('A' for Active; 'I' for Inactive)
REMARK    1  A    between atoms: C_2  and  C_3
REMARK    2  A    between atoms: C_3  and  N_4
REMARK    3  A    between atoms: C_6  and  C_7
REMARK    4  A    between atoms: N_15  and  C_16
REMARK    5  A    between atoms: C_16  and  C_17
REMARK    6  A    between atoms: C_21  and  C_22
REMARK    7  A    between atoms: C_27  and  N_28
REMARK                            x       y       z     vdW  Elec       q    Type
REMARK                         _______ _______ _______ _____ _____    ______ ____
ROOT
ATOM      1  C   UNL     1      -7.971  -2.838 127.846  0.00  0.00    +0.000 A 
ATOM      2  C   UNL     1      -8.258  -3.491 129.035  0.00  0.00    +0.000 A 
ATOM      3  C   UNL     1      -7.451  -2.856 130.012  0.00  0.00    +0.000 A 
ATOM      4  C   UNL     1      -7.264  -1.493 130.411  0.00  0.00    +0.000 A 
ATOM      5  C   UNL     1      -6.118  -0.975 131.056  0.00  0.00    +0.000 A 
ATOM      6  C   UNL     1      -5.146  -1.895 131.415  0.00  0.00    +0.000 A 
ATOM      7  C   UNL     1      -5.210  -3.142 130.741  0.00  0.00    +0.000 A 
ATOM      8  C   UNL     1      -6.194  -3.331 129.654  0.00  0.00    +0.000 A 
ATOM      9  O   UNL     1      -6.456  -2.611 128.146  0.00  0.00    +0.000 OA
ENDROOT
BRANCH   5  10
ATOM     10  C   UNL     1      -5.916   0.519 131.208  0.00  0.00    +0.000 C 
ATOM     11  O   UNL     1      -4.758   0.911 131.370  0.00  0.00    +0.000 OA
ATOM     12  N   UNL     1      -7.056   1.406 131.097  0.00  0.00    +0.000 N 
ATOM     13  C   UNL     1      -7.250   2.345 129.984  0.00  0.00    +0.000 C 
ATOM     14  C   UNL     1      -7.922   3.743 130.420  0.00  0.00    +0.000 C 
ATOM     15  C   UNL     1      -9.761   3.809 131.057  0.00  0.00    +0.000 C 
ATOM     16  C   UNL     1      -9.025   2.596 132.326  0.00  0.00    +0.000 C 
ATOM     17  C   UNL     1      -8.297   1.234 131.851  0.00  0.00    +0.000 C 
BRANCH  15  18
ATOM     18  N   UNL     1     -11.416   4.560 130.327  0.00  0.00    +0.000 N 
ATOM     19  C   UNL     1     -10.790   5.449 131.254  0.00  0.00    +0.000 C 
ATOM     20  O   UNL     1     -10.830   5.467 132.471  0.00  0.00    +0.000 OA
ATOM     21  C   UNL     1     -10.470   6.352 130.203  0.00  0.00    +0.000 C 
ATOM     22  C   UNL     1     -11.649   7.060 130.999  0.00  0.00    +0.000 C 
ATOM     23  C   UNL     1     -12.115   7.346 129.713  0.00  0.00    +0.000 A 
ATOM     24  C   UNL     1     -12.146   8.925 129.439  0.00  0.00    +0.000 A 
ATOM     25  C   UNL     1     -12.959   9.617 128.614  0.00  0.00    +0.000 A 
ATOM     26  C   UNL     1     -13.791   8.649 128.128  0.00  0.00    +0.000 A 
ATOM     27  C   UNL     1     -13.575   6.917 128.459  0.00  0.00    +0.000 A 
ATOM     28  C   UNL     1     -12.493   5.999 129.380  0.00  0.00    +0.000 A 
ENDBRANCH  15  18
ENDBRANCH   5  10
BRANCH   1  29
ATOM     29  C   UNL     1      -8.818  -3.103 126.506  0.00  0.00    +0.000 C 
BRANCH  29  32
ATOM     30  O   UNL     1      -7.269  -2.617 123.220  0.00  0.00    +0.000 OA
ATOM     31  C   UNL     1      -7.598  -2.322 124.374  0.00  0.00    +0.000 C 
ATOM     32  N   UNL     1      -8.280  -3.279 125.152  0.00  0.00    +0.000 N 
ATOM     33  H   UNL     1      -8.416  -4.162 124.679  0.00  0.00    +0.000 HD
BRANCH  31  34
ATOM     34  C   UNL     1      -7.286  -0.898 124.950  0.00  0.00    +0.000 C 
BRANCH  34  35
ATOM     35  N   UNL     1      -7.880   0.220 124.174  0.00  0.00    +0.000 N 
ATOM     36  C   UNL     1      -7.092   0.981 123.316  0.00  0.00    +0.000 A 
ATOM     37  C   UNL     1      -7.497   2.183 122.862  0.00  0.00    +0.000 A 
ATOM     38  C   UNL     1      -8.863   2.601 123.105  0.00  0.00    +0.000 A 
ATOM     39  C   UNL     1      -9.708   1.794 123.758  0.00  0.00    +0.000 A 
ATOM     40  C   UNL     1      -9.190   0.595 124.475  0.00  0.00    +0.000 A 
ATOM     41  O   UNL     1      -9.918   0.007 125.270  0.00  0.00    +0.000 OA
BRANCH  37  42
ATOM     42  C   UNL     1      -6.615   3.124 122.098  0.00  0.00    +0.000 C 
ATOM     43  F   UNL     1      -5.883   3.922 122.917  0.00  0.00    +0.000 F 
ATOM     44  F   UNL     1      -5.731   2.454 121.313  0.00  0.00    +0.000 F 
ATOM     45  F   UNL     1      -7.326   3.943 121.281  0.00  0.00    +0.000 F 
ENDBRANCH  37  42
ENDBRANCH  34  35
ENDBRANCH  31  34
ENDBRANCH  29  32
ENDBRANCH   1  29
TORSDOF 7
ENDMDL
MODEL 3
REMARK VINA RESULT:     -10.6      4.463      6.766
REMARK  Name = CHEMBL287629
REMARK  7 active torsions:
REMARK  status: ('A' for Active; 'I' for Inactive)
REMARK    1  A    between atoms: C_2  and  C_3
REMARK    2  A    between atoms: C_3  and  N_4
REMARK    3  A    between atoms: C_6  and  C_7
REMARK    4  A    between atoms: N_15  and  C_16
REMARK    5  A    between atoms: C_16  and  C_17
REMARK    6  A    between atoms: C_21  and  C_22
REMARK    7  A    between atoms: C_27  and  N_28
REMARK                            x       y       z     vdW  Elec       q    Type
REMARK                         _______ _______ _______ _____ _____    ______ ____
ROOT
ATOM      1  C   UNL     1      -7.766  -2.320 127.644  0.00  0.00    +0.000 A 
ATOM      2  C   UNL     1      -8.408  -3.353 128.310  0.00  0.00    +0.000 A 
ATOM      3  C   UNL     1      -7.957  -3.268 129.651  0.00  0.00    +0.000 A 
ATOM      4  C   UNL     1      -7.920  -2.214 130.620  0.00  0.00    +0.000 A 
ATOM      5  C   UNL     1      -7.042  -2.144 131.725  0.00  0.00    +0.000 A 
ATOM      6  C   UNL     1      -6.224  -3.243 131.931  0.00  0.00    +0.000 A 
ATOM      7  C   UNL     1      -6.059  -4.098 130.810  0.00  0.00    +0.000 A 
ATOM      8  C   UNL     1      -6.647  -3.712 129.510  0.00  0.00    +0.000 A 
ATOM      9  O   UNL     1      -6.426  -2.422 128.439  0.00  0.00    +0.000 OA
ENDROOT
BRANCH   5  10
ATOM     10  C   UNL     1      -6.913  -0.874 132.541  0.00  0.00    +0.000 C 
ATOM     11  O   UNL     1      -6.263  -0.948 133.588  0.00  0.00    +0.000 OA
ATOM     12  N   UNL     1      -7.490   0.356 132.039  0.00  0.00    +0.000 N 
ATOM     13  C   UNL     1      -6.692   1.504 131.589  0.00  0.00    +0.000 C 
ATOM     14  C   UNL     1      -7.347   2.933 131.943  0.00  0.00    +0.000 C 
ATOM     15  C   UNL     1      -9.008   3.504 131.100  0.00  0.00    +0.000 C 
ATOM     16  C   UNL     1      -9.599   1.886 131.911  0.00  0.00    +0.000 C 
ATOM     17  C   UNL     1      -8.875   0.479 131.585  0.00  0.00    +0.000 C 
BRANCH  15  18
ATOM     18  N   UNL     1      -9.453   4.910 129.812  0.00  0.00    +0.000 N 
ATOM     19  C   UNL     1     -10.614   4.412 130.482  0.00  0.00    +0.000 C 
ATOM     20  O   UNL     1     -11.282   3.419 130.257  0.00  0.00    +0.000 OA
ATOM     21  C   UNL     1     -10.770   5.646 131.170  0.00  0.00    +0.000 C 
ATOM     22  C   UNL     1     -11.934   5.638 130.089  0.00  0.00    +0.000 C 
ATOM     23  C   UNL     1     -11.546   6.969 129.912  0.00  0.00    +0.000 A 
ATOM     24  C   UNL     1     -12.726   7.979 130.308  0.00  0.00    +0.000 A 
ATOM     25  C   UNL     1     -12.966   9.217 129.826  0.00  0.00    +0.000 A 
ATOM     26  C   UNL     1     -12.001   9.362 128.872  0.00  0.00    +0.000 A 
ATOM     27  C   UNL     1     -10.700   8.181 128.607  0.00  0.00    +0.000 A 
ATOM     28  C   UNL     1     -10.288   6.683 129.277  0.00  0.00    +0.000 A 
ENDBRANCH  15  18
ENDBRANCH   5  10
BRANCH   1  29
ATOM     29  C   UNL     1      -8.143  -1.918 126.134  0.00  0.00    +0.000 C 
BRANCH  29  32
ATOM     30  O   UNL     1      -6.391  -1.045 123.035  0.00  0.00    +0.000 OA
ATOM     31  C   UNL     1      -7.188  -0.897 123.968  0.00  0.00    +0.000 C 
ATOM     32  N   UNL     1      -7.227  -1.869 124.989  0.00  0.00    +0.000 N 
ATOM     33  H   UNL     1      -6.552  -2.611 124.867  0.00  0.00    +0.000 HD
BRANCH  31  34
ATOM     34  C   UNL     1      -8.156   0.335 124.000  0.00  0.00    +0.000 C 
BRANCH  34  35
ATOM     35  N   UNL     1      -7.469   1.651 124.041  0.00  0.00    +0.000 N 
ATOM     36  C   UNL     1      -7.103   2.293 122.862  0.00  0.00    +0.000 A 
ATOM     37  C   UNL     1      -6.202   3.295 122.851  0.00  0.00    +0.000 A 
ATOM     38  C   UNL     1      -5.757   3.852 124.113  0.00  0.00    +0.000 A 
ATOM     39  C   UNL     1      -6.250   3.385 125.266  0.00  0.00    +0.000 A 
ATOM     40  C   UNL     1      -7.039   2.121 125.282  0.00  0.00    +0.000 A 
ATOM     41  O   UNL     1      -7.271   1.569 126.354  0.00  0.00    +0.000 OA
BRANCH  37  42
ATOM     42  C   UNL     1      -5.631   3.887 121.598  0.00  0.00    +0.000 C 
ATOM     43  F   UNL     1      -4.945   2.974 120.864  0.00  0.00    +0.000 F 
ATOM     44  F   UNL     1      -6.605   4.384 120.791  0.00  0.00    +0.000 F 
ATOM     45  F   UNL     1      -4.775   4.908 121.858  0.00  0.00    +0.000 F 
ENDBRANCH  37  42
ENDBRANCH  34  35
ENDBRANCH  31  34
ENDBRANCH  29  32
ENDBRANCH   1  29
TORSDOF 7
ENDMDL
MODEL 4
REMARK VINA RESULT:     -10.5      6.477      9.429
REMARK  Name = CHEMBL287629
REMARK  7 active torsions:
REMARK  status: ('A' for Active; 'I' for Inactive)
REMARK    1  A    between atoms: C_2  and  C_3
REMARK    2  A    between atoms: C_3  and  N_4
REMARK    3  A    between atoms: C_6  and  C_7
REMARK    4  A    between atoms: N_15  and  C_16
REMARK    5  A    between atoms: C_16  and  C_17
REMARK    6  A    between atoms: C_21  and  C_22
REMARK    7  A    between atoms: C_27  and  N_28
REMARK                            x       y       z     vdW  Elec       q    Type
REMARK                         _______ _______ _______ _____ _____    ______ ____
ROOT
ATOM      1  C   UNL     1      -5.894   4.267 128.975  0.00  0.00    +0.000 A 
ATOM      2  C   UNL     1      -4.799   3.825 128.249  0.00  0.00    +0.000 A 
ATOM      3  C   UNL     1      -3.676   4.437 128.859  0.00  0.00    +0.000 A 
ATOM      4  C   UNL     1      -3.188   4.498 130.204  0.00  0.00    +0.000 A 
ATOM      5  C   UNL     1      -2.343   5.503 130.728  0.00  0.00    +0.000 A 
ATOM      6  C   UNL     1      -1.877   6.445 129.826  0.00  0.00    +0.000 A 
ATOM      7  C   UNL     1      -2.611   6.545 128.615  0.00  0.00    +0.000 A 
ATOM      8  C   UNL     1      -3.850   5.755 128.450  0.00  0.00    +0.000 A 
ATOM      9  O   UNL     1      -5.344   5.703 129.241  0.00  0.00    +0.000 OA
ENDROOT
BRANCH   5  10
ATOM     10  C   UNL     1      -2.089   5.612 132.217  0.00  0.00    +0.000 C 
ATOM     11  O   UNL     1      -0.911   5.632 132.582  0.00  0.00    +0.000 OA
ATOM     12  N   UNL     1      -3.212   5.749 133.122  0.00  0.00    +0.000 N 
ATOM     13  C   UNL     1      -3.500   6.972 133.883  0.00  0.00    +0.000 C 
ATOM     14  C   UNL     1      -4.087   6.699 135.359  0.00  0.00    +0.000 C 
ATOM     15  C   UNL     1      -5.847   5.899 135.598  0.00  0.00    +0.000 C 
ATOM     16  C   UNL     1      -5.011   4.533 134.569  0.00  0.00    +0.000 C 
ATOM     17  C   UNL     1      -4.371   4.855 133.121  0.00  0.00    +0.000 C 
BRANCH  15  18
ATOM     18  N   UNL     1      -7.551   6.570 136.293  0.00  0.00    +0.000 N 
ATOM     19  C   UNL     1      -6.573   6.425 137.326  0.00  0.00    +0.000 C 
ATOM     20  O   UNL     1      -6.233   5.436 137.949  0.00  0.00    +0.000 OA
ATOM     21  C   UNL     1      -6.494   7.836 137.477  0.00  0.00    +0.000 C 
ATOM     22  C   UNL     1      -7.281   7.337 138.763  0.00  0.00    +0.000 C 
ATOM     23  C   UNL     1      -8.087   8.446 138.490  0.00  0.00    +0.000 A 
ATOM     24  C   UNL     1      -8.022   9.523 139.675  0.00  0.00    +0.000 A 
ATOM     25  C   UNL     1      -8.967  10.408 140.056  0.00  0.00    +0.000 A 
ATOM     26  C   UNL     1     -10.011  10.110 139.228  0.00  0.00    +0.000 A 
ATOM     27  C   UNL     1      -9.901   8.940 137.895  0.00  0.00    +0.000 A 
ATOM     28  C   UNL     1      -8.698   7.908 137.304  0.00  0.00    +0.000 A 
ENDBRANCH  15  18
ENDBRANCH   5  10
BRANCH   1  29
ATOM     29  C   UNL     1      -7.365   3.656 128.752  0.00  0.00    +0.000 C 
BRANCH  29  32
ATOM     30  O   UNL     1      -9.714   3.340 131.548  0.00  0.00    +0.000 OA
ATOM     31  C   UNL     1      -9.054   3.923 130.682  0.00  0.00    +0.000 C 
ATOM     32  N   UNL     1      -8.270   3.158 129.794  0.00  0.00    +0.000 N 
ATOM     33  H   UNL     1      -8.349   2.161 129.942  0.00  0.00    +0.000 HD
BRANCH  31  34
ATOM     34  C   UNL     1      -9.066   5.488 130.590  0.00  0.00    +0.000 C 
BRANCH  34  35
ATOM     35  N   UNL     1     -10.421   6.081 130.448  0.00  0.00    +0.000 N 
ATOM     36  C   UNL     1     -10.941   6.359 129.188  0.00  0.00    +0.000 A 
ATOM     37  C   UNL     1     -11.992   7.185 129.022  0.00  0.00    +0.000 A 
ATOM     38  C   UNL     1     -12.724   7.632 130.190  0.00  0.00    +0.000 A 
ATOM     39  C   UNL     1     -12.366   7.214 131.410  0.00  0.00    +0.000 A 
ATOM     40  C   UNL     1     -11.063   6.518 131.607  0.00  0.00    +0.000 A 
ATOM     41  O   UNL     1     -10.629   6.363 132.745  0.00  0.00    +0.000 OA
BRANCH  37  42
ATOM     42  C   UNL     1     -12.467   7.669 127.685  0.00  0.00    +0.000 C 
ATOM     43  F   UNL     1     -13.543   8.491 127.788  0.00  0.00    +0.000 F 
ATOM     44  F   UNL     1     -11.501   8.370 127.035  0.00  0.00    +0.000 F 
ATOM     45  F   UNL     1     -12.828   6.646 126.869  0.00  0.00    +0.000 F 
ENDBRANCH  37  42
ENDBRANCH  34  35
ENDBRANCH  31  34
ENDBRANCH  29  32
ENDBRANCH   1  29
TORSDOF 7
ENDMDL
MODEL 5
REMARK VINA RESULT:     -10.5      6.664     10.118
REMARK  Name = CHEMBL287629
REMARK  7 active torsions:
REMARK  status: ('A' for Active; 'I' for Inactive)
REMARK    1  A    between atoms: C_2  and  C_3
REMARK    2  A    between atoms: C_3  and  N_4
REMARK    3  A    between atoms: C_6  and  C_7
REMARK    4  A    between atoms: N_15  and  C_16
REMARK    5  A    between atoms: C_16  and  C_17
REMARK    6  A    between atoms: C_21  and  C_22
REMARK    7  A    between atoms: C_27  and  N_28
REMARK                            x       y       z     vdW  Elec       q    Type
REMARK                         _______ _______ _______ _____ _____    ______ ____
ROOT
ATOM      1  C   UNL     1      -5.938   4.404 128.807  0.00  0.00    +0.000 A 
ATOM      2  C   UNL     1      -4.922   4.045 127.934  0.00  0.00    +0.000 A 
ATOM      3  C   UNL     1      -3.744   4.617 128.478  0.00  0.00    +0.000 A 
ATOM      4  C   UNL     1      -3.119   4.563 129.766  0.00  0.00    +0.000 A 
ATOM      5  C   UNL     1      -2.230   5.530 130.289  0.00  0.00    +0.000 A 
ATOM      6  C   UNL     1      -1.866   6.556 129.433  0.00  0.00    +0.000 A 
ATOM      7  C   UNL     1      -2.723   6.753 128.319  0.00  0.00    +0.000 A 
ATOM      8  C   UNL     1      -3.967   5.963 128.211  0.00  0.00    +0.000 A 
ATOM      9  O   UNL     1      -5.371   5.818 129.144  0.00  0.00    +0.000 OA
ENDROOT
BRANCH   5  10
ATOM     10  C   UNL     1      -1.823   5.508 131.748  0.00  0.00    +0.000 C 
ATOM     11  O   UNL     1      -1.511   4.413 132.223  0.00  0.00    +0.000 OA
ATOM     12  N   UNL     1      -1.759   6.752 132.487  0.00  0.00    +0.000 N 
ATOM     13  C   UNL     1      -0.505   7.351 132.965  0.00  0.00    +0.000 C 
ATOM     14  C   UNL     1      -0.635   8.081 134.395  0.00  0.00    +0.000 C 
ATOM     15  C   UNL     1      -1.712   9.691 134.599  0.00  0.00    +0.000 C 
ATOM     16  C   UNL     1      -3.041   8.495 133.944  0.00  0.00    +0.000 C 
ATOM     17  C   UNL     1      -2.849   7.726 132.537  0.00  0.00    +0.000 C 
BRANCH  15  18
ATOM     18  N   UNL     1      -1.281  11.565 134.970  0.00  0.00    +0.000 N 
ATOM     19  C   UNL     1      -1.599  11.353 133.593  0.00  0.00    +0.000 C 
ATOM     20  O   UNL     1      -0.902  10.941 132.683  0.00  0.00    +0.000 OA
ATOM     21  C   UNL     1      -2.806  12.090 133.737  0.00  0.00    +0.000 C 
ATOM     22  C   UNL     1      -1.845  13.048 132.910  0.00  0.00    +0.000 C 
ATOM     23  C   UNL     1      -2.357  14.022 133.771  0.00  0.00    +0.000 A 
ATOM     24  C   UNL     1      -3.183  15.137 132.969  0.00  0.00    +0.000 A 
ATOM     25  C   UNL     1      -3.373  16.433 133.292  0.00  0.00    +0.000 A 
ATOM     26  C   UNL     1      -2.631  16.573 134.429  0.00  0.00    +0.000 A 
ATOM     27  C   UNL     1      -1.836  15.214 135.253  0.00  0.00    +0.000 A 
ATOM     28  C   UNL     1      -1.682  13.556 134.953  0.00  0.00    +0.000 A 
ENDBRANCH  15  18
ENDBRANCH   5  10
BRANCH   1  29
ATOM     29  C   UNL     1      -7.420   3.793 128.682  0.00  0.00    +0.000 C 
BRANCH  29  32
ATOM     30  O   UNL     1      -9.580   3.439 131.622  0.00  0.00    +0.000 OA
ATOM     31  C   UNL     1      -8.987   4.033 130.715  0.00  0.00    +0.000 C 
ATOM     32  N   UNL     1      -8.248   3.280 129.780  0.00  0.00    +0.000 N 
ATOM     33  H   UNL     1      -8.299   2.282 129.933  0.00  0.00    +0.000 HD
BRANCH  31  34
ATOM     34  C   UNL     1      -9.034   5.596 130.624  0.00  0.00    +0.000 C 
BRANCH  34  35
ATOM     35  N   UNL     1     -10.402   6.159 130.483  0.00  0.00    +0.000 N 
ATOM     36  C   UNL     1     -10.913   6.464 129.225  0.00  0.00    +0.000 A 
ATOM     37  C   UNL     1     -11.984   7.268 129.072  0.00  0.00    +0.000 A 
ATOM     38  C   UNL     1     -12.741   7.659 130.244  0.00  0.00    +0.000 A 
ATOM     39  C   UNL     1     -12.387   7.212 131.455  0.00  0.00    +0.000 A 
ATOM     40  C   UNL     1     -11.069   6.544 131.647  0.00  0.00    +0.000 A 
ATOM     41  O   UNL     1     -10.644   6.364 132.784  0.00  0.00    +0.000 OA
BRANCH  37  42
ATOM     42  C   UNL     1     -12.455   7.782 127.745  0.00  0.00    +0.000 C 
ATOM     43  F   UNL     1     -11.614   8.711 127.225  0.00  0.00    +0.000 F 
ATOM     44  F   UNL     1     -12.548   6.783 126.827  0.00  0.00    +0.000 F 
ATOM     45  F   UNL     1     -13.681   8.359 127.825  0.00  0.00    +0.000 F 
ENDBRANCH  37  42
ENDBRANCH  34  35
ENDBRANCH  31  34
ENDBRANCH  29  32
ENDBRANCH   1  29
TORSDOF 7
ENDMDL
MODEL 6
REMARK VINA RESULT:     -10.5      5.288      7.776
REMARK  Name = CHEMBL287629
REMARK  7 active torsions:
REMARK  status: ('A' for Active; 'I' for Inactive)
REMARK    1  A    between atoms: C_2  and  C_3
REMARK    2  A    between atoms: C_3  and  N_4
REMARK    3  A    between atoms: C_6  and  C_7
REMARK    4  A    between atoms: N_15  and  C_16
REMARK    5  A    between atoms: C_16  and  C_17
REMARK    6  A    between atoms: C_21  and  C_22
REMARK    7  A    between atoms: C_27  and  N_28
REMARK                            x       y       z     vdW  Elec       q    Type
REMARK                         _______ _______ _______ _____ _____    ______ ____
ROOT
ATOM      1  C   UNL     1      -5.943  -2.091 128.179  0.00  0.00    +0.000 A 
ATOM      2  C   UNL     1      -6.888  -3.079 128.412  0.00  0.00    +0.000 A 
ATOM      3  C   UNL     1      -7.082  -3.084 129.816  0.00  0.00    +0.000 A 
ATOM      4  C   UNL     1      -7.407  -2.072 130.776  0.00  0.00    +0.000 A 
ATOM      5  C   UNL     1      -7.116  -2.126 132.158  0.00  0.00    +0.000 A 
ATOM      6  C   UNL     1      -6.559  -3.306 132.623  0.00  0.00    +0.000 A 
ATOM      7  C   UNL     1      -5.971  -4.134 131.631  0.00  0.00    +0.000 A 
ATOM      8  C   UNL     1      -5.884  -3.648 130.238  0.00  0.00    +0.000 A 
ATOM      9  O   UNL     1      -5.113  -2.350 129.475  0.00  0.00    +0.000 OA
ENDROOT
BRANCH   5  10
ATOM     10  C   UNL     1      -7.275  -0.904 133.038  0.00  0.00    +0.000 C 
ATOM     11  O   UNL     1      -6.889  -1.003 134.206  0.00  0.00    +0.000 OA
ATOM     12  N   UNL     1      -7.803   0.319 132.468  0.00  0.00    +0.000 N 
ATOM     13  C   UNL     1      -7.006   1.538 132.277  0.00  0.00    +0.000 C 
ATOM     14  C   UNL     1      -7.827   2.901 132.528  0.00  0.00    +0.000 C 
ATOM     15  C   UNL     1      -9.277   3.425 131.337  0.00  0.00    +0.000 C 
ATOM     16  C   UNL     1      -9.926   1.728 131.906  0.00  0.00    +0.000 C 
ATOM     17  C   UNL     1      -9.046   0.388 131.701  0.00  0.00    +0.000 C 
BRANCH  15  18
ATOM     18  N   UNL     1      -9.503   4.878 130.045  0.00  0.00    +0.000 N 
ATOM     19  C   UNL     1     -10.758   4.381 130.514  0.00  0.00    +0.000 C 
ATOM     20  O   UNL     1     -11.398   3.408 130.157  0.00  0.00    +0.000 OA
ATOM     21  C   UNL     1     -11.001   5.595 131.213  0.00  0.00    +0.000 C 
ATOM     22  C   UNL     1     -11.988   5.642 129.968  0.00  0.00    +0.000 C 
ATOM     23  C   UNL     1     -11.560   6.971 129.898  0.00  0.00    +0.000 A 
ATOM     24  C   UNL     1     -12.773   7.989 130.145  0.00  0.00    +0.000 A 
ATOM     25  C   UNL     1     -12.922   9.246 129.675  0.00  0.00    +0.000 A 
ATOM     26  C   UNL     1     -11.821   9.404 128.883  0.00  0.00    +0.000 A 
ATOM     27  C   UNL     1     -10.510   8.208 128.778  0.00  0.00    +0.000 A 
ATOM     28  C   UNL     1     -10.224   6.682 129.451  0.00  0.00    +0.000 A 
ENDBRANCH  15  18
ENDBRANCH   5  10
BRANCH   1  29
ATOM     29  C   UNL     1      -5.573  -1.603 126.692  0.00  0.00    +0.000 C 
BRANCH  29  32
ATOM     30  O   UNL     1      -5.437   1.941 125.768  0.00  0.00    +0.000 OA
ATOM     31  C   UNL     1      -5.949   0.896 126.182  0.00  0.00    +0.000 C 
ATOM     32  N   UNL     1      -5.145  -0.257 126.296  0.00  0.00    +0.000 N 
ATOM     33  H   UNL     1      -4.179  -0.103 126.041  0.00  0.00    +0.000 HD
BRANCH  31  34
ATOM     34  C   UNL     1      -7.472   0.847 126.548  0.00  0.00    +0.000 C 
BRANCH  34  35
ATOM     35  N   UNL     1      -8.360   0.474 125.417  0.00  0.00    +0.000 N 
ATOM     36  C   UNL     1      -8.371  -0.828 124.927  0.00  0.00    +0.000 A 
ATOM     37  C   UNL     1      -8.891  -1.126 123.720  0.00  0.00    +0.000 A 
ATOM     38  C   UNL     1      -9.637  -0.109 123.006  0.00  0.00    +0.000 A 
ATOM     39  C   UNL     1      -9.815   1.101 123.550  0.00  0.00    +0.000 A 
ATOM     40  C   UNL     1      -9.029   1.502 124.751  0.00  0.00    +0.000 A 
ATOM     41  O   UNL     1      -9.010   2.681 125.092  0.00  0.00    +0.000 OA
BRANCH  37  42
ATOM     42  C   UNL     1      -8.755  -2.468 123.065  0.00  0.00    +0.000 C 
ATOM     43  F   UNL     1      -8.380  -2.369 121.764  0.00  0.00    +0.000 F 
ATOM     44  F   UNL     1      -7.820  -3.234 123.684  0.00  0.00    +0.000 F 
ATOM     45  F   UNL     1      -9.918  -3.169 123.089  0.00  0.00    +0.000 F 
ENDBRANCH  37  42
ENDBRANCH  34  35
ENDBRANCH  31  34
ENDBRANCH  29  32
ENDBRANCH   1  29
TORSDOF 7
ENDMDL
MODEL 7
REMARK VINA RESULT:     -10.4      3.047      7.824
REMARK  Name = CHEMBL287629
REMARK  7 active torsions:
REMARK  status: ('A' for Active; 'I' for Inactive)
REMARK    1  A    between atoms: C_2  and  C_3
REMARK    2  A    between atoms: C_3  and  N_4
REMARK    3  A    between atoms: C_6  and  C_7
REMARK    4  A    between atoms: N_15  and  C_16
REMARK    5  A    between atoms: C_16  and  C_17
REMARK    6  A    between atoms: C_21  and  C_22
REMARK    7  A    between atoms: C_27  and  N_28
REMARK                            x       y       z     vdW  Elec       q    Type
REMARK                         _______ _______ _______ _____ _____    ______ ____
ROOT
ATOM      1  C   UNL     1      -3.691   4.884 127.797  0.00  0.00    +0.000 A 
ATOM      2  C   UNL     1      -2.611   5.731 127.997  0.00  0.00    +0.000 A 
ATOM      3  C   UNL     1      -2.702   6.135 129.352  0.00  0.00    +0.000 A 
ATOM      4  C   UNL     1      -2.811   5.428 130.593  0.00  0.00    +0.000 A 
ATOM      5  C   UNL     1      -3.350   5.949 131.792  0.00  0.00    +0.000 A 
ATOM      6  C   UNL     1      -3.705   7.288 131.775  0.00  0.00    +0.000 A 
ATOM      7  C   UNL     1      -3.882   7.855 130.485  0.00  0.00    +0.000 A 
ATOM      8  C   UNL     1      -3.801   6.985 129.292  0.00  0.00    +0.000 A 
ATOM      9  O   UNL     1      -4.679   5.657 128.725  0.00  0.00    +0.000 OA
ENDROOT
BRANCH   5  10
ATOM     10  C   UNL     1      -3.649   5.046 132.971  0.00  0.00    +0.000 C 
ATOM     11  O   UNL     1      -3.357   5.475 134.090  0.00  0.00    +0.000 OA
ATOM     12  N   UNL     1      -4.307   3.775 132.744  0.00  0.00    +0.000 N 
ATOM     13  C   UNL     1      -5.677   3.479 133.182  0.00  0.00    +0.000 C 
ATOM     14  C   UNL     1      -5.890   1.960 133.678  0.00  0.00    +0.000 C 
ATOM     15  C   UNL     1      -5.758   0.475 132.425  0.00  0.00    +0.000 C 
ATOM     16  C   UNL     1      -4.028   1.239 132.201  0.00  0.00    +0.000 C 
ATOM     17  C   UNL     1      -3.850   2.785 131.769  0.00  0.00    +0.000 C 
BRANCH  15  18
ATOM     18  N   UNL     1      -7.058  -0.795 131.696  0.00  0.00    +0.000 N 
ATOM     19  C   UNL     1      -6.864   0.327 130.831  0.00  0.00    +0.000 C 
ATOM     20  O   UNL     1      -7.354   1.441 130.872  0.00  0.00    +0.000 OA
ATOM     21  C   UNL     1      -6.222  -0.500 129.869  0.00  0.00    +0.000 C 
ATOM     22  C   UNL     1      -7.645  -0.179 129.238  0.00  0.00    +0.000 C 
ATOM     23  C   UNL     1      -7.614  -1.537 128.907  0.00  0.00    +0.000 A 
ATOM     24  C   UNL     1      -7.616  -1.752 127.319  0.00  0.00    +0.000 A 
ATOM     25  C   UNL     1      -8.098  -2.799 126.616  0.00  0.00    +0.000 A 
ATOM     26  C   UNL     1      -8.642  -3.590 127.587  0.00  0.00    +0.000 A 
ATOM     27  C   UNL     1      -8.481  -3.257 129.326  0.00  0.00    +0.000 A 
ATOM     28  C   UNL     1      -7.775  -2.028 130.250  0.00  0.00    +0.000 A 
ENDBRANCH  15  18
ENDBRANCH   5  10
BRANCH   1  29
ATOM     29  C   UNL     1      -3.861   4.029 126.445  0.00  0.00    +0.000 C 
BRANCH  29  32
ATOM     30  O   UNL     1      -5.266   0.659 126.131  0.00  0.00    +0.000 OA
ATOM     31  C   UNL     1      -5.267   1.894 126.115  0.00  0.00    +0.000 C 
ATOM     32  N   UNL     1      -4.057   2.579 126.348  0.00  0.00    +0.000 N 
ATOM     33  H   UNL     1      -3.265   1.965 126.484  0.00  0.00    +0.000 HD
BRANCH  31  34
ATOM     34  C   UNL     1      -6.598   2.685 125.869  0.00  0.00    +0.000 C 
BRANCH  34  35
ATOM     35  N   UNL     1      -7.013   2.754 124.445  0.00  0.00    +0.000 N 
ATOM     36  C   UNL     1      -6.097   3.106 123.458  0.00  0.00    +0.000 A 
ATOM     37  C   UNL     1      -6.493   3.502 122.233  0.00  0.00    +0.000 A 
ATOM     38  C   UNL     1      -7.889   3.363 121.867  0.00  0.00    +0.000 A 
ATOM     39  C   UNL     1      -8.762   2.835 122.733  0.00  0.00    +0.000 A 
ATOM     40  C   UNL     1      -8.374   2.643 124.159  0.00  0.00    +0.000 A 
ATOM     41  O   UNL     1      -9.243   2.398 124.992  0.00  0.00    +0.000 OA
BRANCH  37  42
ATOM     42  C   UNL     1      -5.565   4.074 121.203  0.00  0.00    +0.000 C 
ATOM     43  F   UNL     1      -4.780   3.124 120.635  0.00  0.00    +0.000 F 
ATOM     44  F   UNL     1      -6.249   4.671 120.192  0.00  0.00    +0.000 F 
ATOM     45  F   UNL     1      -4.736   5.012 121.726  0.00  0.00    +0.000 F 
ENDBRANCH  37  42
ENDBRANCH  34  35
ENDBRANCH  31  34
ENDBRANCH  29  32
ENDBRANCH   1  29
TORSDOF 7
ENDMDL
MODEL 8
REMARK VINA RESULT:     -10.3      5.101      7.653
REMARK  Name = CHEMBL287629
REMARK  7 active torsions:
REMARK  status: ('A' for Active; 'I' for Inactive)
REMARK    1  A    between atoms: C_2  and  C_3
REMARK    2  A    between atoms: C_3  and  N_4
REMARK    3  A    between atoms: C_6  and  C_7
REMARK    4  A    between atoms: N_15  and  C_16
REMARK    5  A    between atoms: C_16  and  C_17
REMARK    6  A    between atoms: C_21  and  C_22
REMARK    7  A    between atoms: C_27  and  N_28
REMARK                            x       y       z     vdW  Elec       q    Type
REMARK                         _______ _______ _______ _____ _____    ______ ____
ROOT
ATOM      1  C   UNL     1      -6.600   0.031 127.161  0.00  0.00    +0.000 A 
ATOM      2  C   UNL     1      -7.563  -0.962 127.251  0.00  0.00    +0.000 A 
ATOM      3  C   UNL     1      -7.552  -1.368 128.609  0.00  0.00    +0.000 A 
ATOM      4  C   UNL     1      -7.668  -0.669 129.855  0.00  0.00    +0.000 A 
ATOM      5  C   UNL     1      -7.183  -1.126 131.101  0.00  0.00    +0.000 A 
ATOM      6  C   UNL     1      -6.643  -2.401 131.121  0.00  0.00    +0.000 A 
ATOM      7  C   UNL     1      -6.260  -2.920 129.856  0.00  0.00    +0.000 A 
ATOM      8  C   UNL     1      -6.344  -2.055 128.661  0.00  0.00    +0.000 A 
ATOM      9  O   UNL     1      -5.610  -0.608 128.184  0.00  0.00    +0.000 OA
ENDROOT
BRANCH   5  10
ATOM     10  C   UNL     1      -7.134  -0.206 132.304  0.00  0.00    +0.000 C 
ATOM     11  O   UNL     1      -6.485  -0.596 133.278  0.00  0.00    +0.000 OA
ATOM     12  N   UNL     1      -7.782   1.088 132.237  0.00  0.00    +0.000 N 
ATOM     13  C   UNL     1      -7.053   2.363 132.224  0.00  0.00    +0.000 C 
ATOM     14  C   UNL     1      -7.794   3.546 133.029  0.00  0.00    +0.000 C 
ATOM     15  C   UNL     1      -9.483   4.278 132.392  0.00  0.00    +0.000 C 
ATOM     16  C   UNL     1      -9.978   2.450 132.588  0.00  0.00    +0.000 C 
ATOM     17  C   UNL     1      -9.170   1.281 131.820  0.00  0.00    +0.000 C 
BRANCH  15  18
ATOM     18  N   UNL     1     -10.008   6.012 131.649  0.00  0.00    +0.000 N 
ATOM     19  C   UNL     1      -9.915   5.005 130.639  0.00  0.00    +0.000 C 
ATOM     20  O   UNL     1      -8.941   4.579 130.046  0.00  0.00    +0.000 OA
ATOM     21  C   UNL     1     -11.325   5.029 130.458  0.00  0.00    +0.000 C 
ATOM     22  C   UNL     1     -10.740   5.750 129.168  0.00  0.00    +0.000 C 
ATOM     23  C   UNL     1     -11.791   6.641 129.401  0.00  0.00    +0.000 A 
ATOM     24  C   UNL     1     -12.844   6.633 128.192  0.00  0.00    +0.000 A 
ATOM     25  C   UNL     1     -13.647   7.633 127.773  0.00  0.00    +0.000 A 
ATOM     26  C   UNL     1     -13.288   8.669 128.587  0.00  0.00    +0.000 A 
ATOM     27  C   UNL     1     -12.159   8.499 129.949  0.00  0.00    +0.000 A 
ATOM     28  C   UNL     1     -11.233   7.235 130.587  0.00  0.00    +0.000 A 
ENDBRANCH  15  18
ENDBRANCH   5  10
BRANCH   1  29
ATOM     29  C   UNL     1      -6.418   0.919 125.832  0.00  0.00    +0.000 C 
BRANCH  29  32
ATOM     30  O   UNL     1      -8.747   2.037 123.233  0.00  0.00    +0.000 OA
ATOM     31  C   UNL     1      -7.868   1.334 123.742  0.00  0.00    +0.000 C 
ATOM     32  N   UNL     1      -7.483   1.585 125.075  0.00  0.00    +0.000 N 
ATOM     33  H   UNL     1      -8.006   2.332 125.512  0.00  0.00    +0.000 HD
BRANCH  31  34
ATOM     34  C   UNL     1      -7.176   0.201 122.910  0.00  0.00    +0.000 C 
BRANCH  34  35
ATOM     35  N   UNL     1      -7.209  -1.137 123.554  0.00  0.00    +0.000 N 
ATOM     36  C   UNL     1      -6.030  -1.844 123.775  0.00  0.00    +0.000 A 
ATOM     37  C   UNL     1      -6.036  -3.165 124.038  0.00  0.00    +0.000 A 
ATOM     38  C   UNL     1      -7.300  -3.824 124.297  0.00  0.00    +0.000 A 
ATOM     39  C   UNL     1      -8.440  -3.122 124.290  0.00  0.00    +0.000 A 
ATOM     40  C   UNL     1      -8.455  -1.732 123.751  0.00  0.00    +0.000 A 
ATOM     41  O   UNL     1      -9.531  -1.190 123.516  0.00  0.00    +0.000 OA
BRANCH  37  42
ATOM     42  C   UNL     1      -4.797  -4.008 124.092  0.00  0.00    +0.000 C 
ATOM     43  F   UNL     1      -4.261  -4.054 125.338  0.00  0.00    +0.000 F 
ATOM     44  F   UNL     1      -5.049  -5.292 123.727  0.00  0.00    +0.000 F 
ATOM     45  F   UNL     1      -3.827  -3.546 123.261  0.00  0.00    +0.000 F 
ENDBRANCH  37  42
ENDBRANCH  34  35
ENDBRANCH  31  34
ENDBRANCH  29  32
ENDBRANCH   1  29
TORSDOF 7
ENDMDL
MODEL 9
REMARK VINA RESULT:     -10.3      3.250      5.896
REMARK  Name = CHEMBL287629
REMARK  7 active torsions:
REMARK  status: ('A' for Active; 'I' for Inactive)
REMARK    1  A    between atoms: C_2  and  C_3
REMARK    2  A    between atoms: C_3  and  N_4
REMARK    3  A    between atoms: C_6  and  C_7
REMARK    4  A    between atoms: N_15  and  C_16
REMARK    5  A    between atoms: C_16  and  C_17
REMARK    6  A    between atoms: C_21  and  C_22
REMARK    7  A    between atoms: C_27  and  N_28
REMARK                            x       y       z     vdW  Elec       q    Type
REMARK                         _______ _______ _______ _____ _____    ______ ____
ROOT
ATOM      1  C   UNL     1      -8.229  -2.913 127.099  0.00  0.00    +0.000 A 
ATOM      2  C   UNL     1      -8.535  -3.882 128.042  0.00  0.00    +0.000 A 
ATOM      3  C   UNL     1      -8.214  -3.298 129.293  0.00  0.00    +0.000 A 
ATOM      4  C   UNL     1      -8.578  -2.071 129.938  0.00  0.00    +0.000 A 
ATOM      5  C   UNL     1      -7.834  -1.423 130.951  0.00  0.00    +0.000 A 
ATOM      6  C   UNL     1      -6.716  -2.095 131.417  0.00  0.00    +0.000 A 
ATOM      7  C   UNL     1      -6.218  -3.115 130.565  0.00  0.00    +0.000 A 
ATOM      8  C   UNL     1      -6.825  -3.306 129.230  0.00  0.00    +0.000 A 
ATOM      9  O   UNL     1      -6.976  -2.352 127.843  0.00  0.00    +0.000 OA
ENDROOT
BRANCH   5  10
ATOM     10  C   UNL     1      -8.172  -0.012 131.386  0.00  0.00    +0.000 C 
ATOM     11  O   UNL     1      -9.292   0.168 131.871  0.00  0.00    +0.000 OA
ATOM     12  N   UNL     1      -7.169   1.026 131.276  0.00  0.00    +0.000 N 
ATOM     13  C   UNL     1      -6.531   1.668 132.433  0.00  0.00    +0.000 C 
ATOM     14  C   UNL     1      -6.227   3.237 132.225  0.00  0.00    +0.000 C 
ATOM     15  C   UNL     1      -4.910   3.831 130.919  0.00  0.00    +0.000 C 
ATOM     16  C   UNL     1      -6.082   2.861 129.774  0.00  0.00    +0.000 C 
ATOM     17  C   UNL     1      -6.419   1.306 130.052  0.00  0.00    +0.000 C 
BRANCH  15  18
ATOM     18  N   UNL     1      -3.154   4.685 131.067  0.00  0.00    +0.000 N 
ATOM     19  C   UNL     1      -4.190   5.636 130.812  0.00  0.00    +0.000 C 
ATOM     20  O   UNL     1      -4.718   5.955 129.762  0.00  0.00    +0.000 OA
ATOM     21  C   UNL     1      -4.043   6.179 132.117  0.00  0.00    +0.000 C 
ATOM     22  C   UNL     1      -3.410   7.271 131.153  0.00  0.00    +0.000 C 
ATOM     23  C   UNL     1      -2.421   7.321 132.139  0.00  0.00    +0.000 A 
ATOM     24  C   UNL     1      -2.364   8.762 132.838  0.00  0.00    +0.000 A 
ATOM     25  C   UNL     1      -1.305   9.376 133.407  0.00  0.00    +0.000 A 
ATOM     26  C   UNL     1      -0.286   8.497 133.175  0.00  0.00    +0.000 A 
ATOM     27  C   UNL     1      -0.524   6.889 132.459  0.00  0.00    +0.000 A 
ATOM     28  C   UNL     1      -1.851   6.031 131.854  0.00  0.00    +0.000 A 
ENDBRANCH  15  18
ENDBRANCH   5  10
BRANCH   1  29
ATOM     29  C   UNL     1      -8.630  -3.078 125.551  0.00  0.00    +0.000 C 
BRANCH  29  32
ATOM     30  O   UNL     1      -6.299  -2.142 122.882  0.00  0.00    +0.000 OA
ATOM     31  C   UNL     1      -6.978  -1.983 123.902  0.00  0.00    +0.000 C 
ATOM     32  N   UNL     1      -7.713  -3.076 124.406  0.00  0.00    +0.000 N 
ATOM     33  H   UNL     1      -7.586  -3.928 123.875  0.00  0.00    +0.000 HD
BRANCH  31  34
ATOM     34  C   UNL     1      -7.041  -0.585 124.606  0.00  0.00    +0.000 C 
BRANCH  34  35
ATOM     35  N   UNL     1      -7.615   0.497 123.765  0.00  0.00    +0.000 N 
ATOM     36  C   UNL     1      -6.785   1.314 123.004  0.00  0.00    +0.000 A 
ATOM     37  C   UNL     1      -7.214   2.491 122.505  0.00  0.00    +0.000 A 
ATOM     38  C   UNL     1      -8.623   2.817 122.589  0.00  0.00    +0.000 A 
ATOM     39  C   UNL     1      -9.483   1.951 123.141  0.00  0.00    +0.000 A 
ATOM     40  C   UNL     1      -8.972   0.783 123.913  0.00  0.00    +0.000 A 
ATOM     41  O   UNL     1      -9.747   0.143 124.618  0.00  0.00    +0.000 OA
BRANCH  37  42
ATOM     42  C   UNL     1      -6.313   3.493 121.848  0.00  0.00    +0.000 C 
ATOM     43  F   UNL     1      -5.291   2.903 121.177  0.00  0.00    +0.000 F 
ATOM     44  F   UNL     1      -6.986   4.252 120.944  0.00  0.00    +0.000 F 
ATOM     45  F   UNL     1      -5.757   4.347 122.744  0.00  0.00    +0.000 F 
ENDBRANCH  37  42
ENDBRANCH  34  35
ENDBRANCH  31  34
ENDBRANCH  29  32
ENDBRANCH   1  29
TORSDOF 7
ENDMDL
