MODEL 1
REMARK VINA RESULT:      -9.2      0.000      0.000
REMARK  Name = CHEMBL427227
REMARK  12 active torsions:
REMARK  status: ('A' for Active; 'I' for Inactive)
REMARK    1  A    between atoms: CD1_1  and  CG1_2
REMARK    2  A    between atoms: CG1_2  and  CB_3
REMARK    3  A    between atoms: CB_3  and  CG2_4
REMARK    4  A    between atoms: CB_3  and  CA_5
REMARK    5  A    between atoms: C_9  and  C_10
REMARK    6  A    between atoms: N_21  and  C_22
REMARK    7  A    between atoms: C_22  and  C_23
REMARK    8  A    between atoms: C_22  and  C_29
REMARK    9  A    between atoms: N_25  and  C_26
REMARK   10  A    between atoms: C_26  and  C_27
REMARK   11  A    between atoms: C_26  and  C_28
REMARK   12  A    between atoms: C_32  and  N_33
REMARK                            x       y       z     vdW  Elec       q    Type
REMARK                         _______ _______ _______ _____ _____    ______ ____
ROOT
ATOM      1  CA  ILE A   2      -7.093   1.946 132.820  0.00  0.00    +0.000 C 
ATOM      2  C   ILE A   2      -6.295   0.815 133.543  0.00  0.00    +0.000 C 
ATOM      3  O   ILE A   2      -6.363   0.395 134.670  0.00  0.00    +0.000 OA
ATOM      4  N   UNK A   1      -5.501   0.114 132.721  0.00  0.00    +0.000 N 
ATOM      5  C   UNK A   1      -5.541   0.242 131.301  0.00  0.00    +0.000 C 
ATOM      6  C   UNK A   1      -5.476   1.726 130.932  0.00  0.00    +0.000 C 
ATOM      7  O   UNK A   1      -4.883   2.012 129.902  0.00  0.00    +0.000 OA
ATOM      8  N   ILE A   2      -6.149   2.613 131.791  0.00  0.00    +0.000 N 
ATOM      9  H   UNK A   1      -5.049  -0.647 133.211  0.00  0.00    +0.000 HD
ENDROOT
BRANCH   5  10
ATOM     10  C   UNK A   1      -4.293  -0.411 130.679  0.00  0.00    +0.000 C 
ATOM     11  C   UNK A   1      -4.642  -1.362 129.527  0.00  0.00    +0.000 C 
ATOM     12  C   UNK A   1      -4.789  -2.669 130.248  0.00  0.00    +0.000 A 
ATOM     13  C   UNK A   1      -5.509  -3.778 129.844  0.00  0.00    +0.000 A 
ATOM     14  C   UNK A   1      -5.633  -4.844 130.737  0.00  0.00    +0.000 A 
ATOM     15  C   UNK A   1      -5.059  -4.783 132.017  0.00  0.00    +0.000 A 
ATOM     16  C   UNK A   1      -4.341  -3.658 132.423  0.00  0.00    +0.000 A 
ATOM     17  C   UNK A   1      -4.197  -2.618 131.519  0.00  0.00    +0.000 A 
ATOM     18  C   UNK A   1      -3.563  -1.280 131.752  0.00  0.00    +0.000 C 
ENDBRANCH   5  10
BRANCH   1  19
ATOM     19  CB  ILE A   2      -7.711   2.894 133.831  0.00  0.00    +0.000 C 
ATOM     20  CG2 ILE A   2      -9.109   3.381 133.479  0.00  0.00    +0.000 C 
BRANCH  19  22
ATOM     21  CD1 ILE A   2      -7.750   5.149 135.025  0.00  0.00    +0.000 C 
ATOM     22  CG1 ILE A   2      -6.906   3.921 134.612  0.00  0.00    +0.000 C 
ENDBRANCH  19  22
ENDBRANCH   1  19
BRANCH   8  23
ATOM     23  C   UNK A   0      -5.920   4.147 131.674  0.00  0.00    +0.000 C 
BRANCH  23  24
ATOM     24  C   UNK A   0      -7.084   4.926 130.965  0.00  0.00    +0.000 A 
ATOM     25  C   UNK A   0      -7.849   4.366 129.934  0.00  0.00    +0.000 A 
ATOM     26  C   UNK A   0      -8.928   5.011 129.347  0.00  0.00    +0.000 A 
ATOM     27  C   UNK A   0      -9.419   6.189 129.868  0.00  0.00    +0.000 A 
ATOM     28  C   UNK A   0      -8.686   6.789 130.897  0.00  0.00    +0.000 A 
ATOM     29  C   UNK A   0      -7.499   6.206 131.393  0.00  0.00    +0.000 A 
BRANCH  27  30
ATOM     30  N   UNK A   0     -10.626   6.677 129.444  0.00  0.00    +0.000 N 
ATOM     31  C   UNK A   0     -10.736   7.553 128.287  0.00  0.00    +0.000 C 
ATOM     32  C   UNK A   0     -11.720   8.674 128.641  0.00  0.00    +0.000 C 
ATOM     33  O   UNK A   0     -12.994   8.152 129.076  0.00  0.00    +0.000 OA
ATOM     34  C   UNK A   0     -12.821   7.311 130.235  0.00  0.00    +0.000 C 
ATOM     35  C   UNK A   0     -11.896   6.124 129.925  0.00  0.00    +0.000 C 
ENDBRANCH  27  30
ENDBRANCH  23  24
BRANCH  23  36
ATOM     36  C   UNK A   0      -4.421   4.593 131.072  0.00  0.00    +0.000 C 
ATOM     37  O   UNK A   0      -3.383   4.614 131.732  0.00  0.00    +0.000 OA
ATOM     38  N   UNK A   0      -4.257   4.960 129.744  0.00  0.00    +0.000 N 
ATOM     39  H   UNK A   0      -4.800   4.505 129.039  0.00  0.00    +0.000 HD
BRANCH  38  40
ATOM     40  C   UNK A   0      -3.002   5.396 129.171  0.00  0.00    +0.000 C 
ATOM     41  C   UNK A   0      -2.684   4.418 128.060  0.00  0.00    +0.000 C 
ATOM     42  C   UNK A   0      -3.108   6.800 128.562  0.00  0.00    +0.000 C 
ENDBRANCH  38  40
ENDBRANCH  23  36
ENDBRANCH   8  23
TORSDOF 8
ENDMDL
MODEL 2
REMARK VINA RESULT:      -8.5      3.591      4.605
REMARK  Name = CHEMBL427227
REMARK  12 active torsions:
REMARK  status: ('A' for Active; 'I' for Inactive)
REMARK    1  A    between atoms: CD1_1  and  CG1_2
REMARK    2  A    between atoms: CG1_2  and  CB_3
REMARK    3  A    between atoms: CB_3  and  CG2_4
REMARK    4  A    between atoms: CB_3  and  CA_5
REMARK    5  A    between atoms: C_9  and  C_10
REMARK    6  A    between atoms: N_21  and  C_22
REMARK    7  A    between atoms: C_22  and  C_23
REMARK    8  A    between atoms: C_22  and  C_29
REMARK    9  A    between atoms: N_25  and  C_26
REMARK   10  A    between atoms: C_26  and  C_27
REMARK   11  A    between atoms: C_26  and  C_28
REMARK   12  A    between atoms: C_32  and  N_33
REMARK                            x       y       z     vdW  Elec       q    Type
REMARK                         _______ _______ _______ _____ _____    ______ ____
ROOT
ATOM      1  CA  ILE A   2      -8.035  -0.207 129.860  0.00  0.00    +0.000 C 
ATOM      2  C   ILE A   2      -7.570  -1.640 129.450  0.00  0.00    +0.000 C 
ATOM      3  O   ILE A   2      -7.664  -2.697 130.020  0.00  0.00    +0.000 OA
ATOM      4  N   UNK A   1      -7.112  -1.713 128.192  0.00  0.00    +0.000 N 
ATOM      5  C   UNK A   1      -7.236  -0.645 127.254  0.00  0.00    +0.000 C 
ATOM      6  C   UNK A   1      -6.744   0.650 127.904  0.00  0.00    +0.000 C 
ATOM      7  O   UNK A   1      -6.186   1.455 127.173  0.00  0.00    +0.000 OA
ATOM      8  N   ILE A   2      -7.025   0.808 129.272  0.00  0.00    +0.000 N 
ATOM      9  H   UNK A   1      -6.879  -2.664 127.941  0.00  0.00    +0.000 HD
ENDROOT
BRANCH   5  10
ATOM     10  C   UNK A   1      -6.318  -0.897 126.045  0.00  0.00    +0.000 C 
ATOM     11  C   UNK A   1      -6.831  -0.220 124.767  0.00  0.00    +0.000 C 
ATOM     12  C   UNK A   1      -7.675  -1.305 124.169  0.00  0.00    +0.000 A 
ATOM     13  C   UNK A   1      -8.723  -1.163 123.278  0.00  0.00    +0.000 A 
ATOM     14  C   UNK A   1      -9.472  -2.296 122.957  0.00  0.00    +0.000 A 
ATOM     15  C   UNK A   1      -9.182  -3.542 123.537  0.00  0.00    +0.000 A 
ATOM     16  C   UNK A   1      -8.128  -3.678 124.441  0.00  0.00    +0.000 A 
ATOM     17  C   UNK A   1      -7.371  -2.555 124.730  0.00  0.00    +0.000 A 
ATOM     18  C   UNK A   1      -6.265  -2.426 125.734  0.00  0.00    +0.000 C 
ENDBRANCH   5  10
BRANCH   1  19
ATOM     19  CB  ILE A   2      -8.231  -0.119 131.362  0.00  0.00    +0.000 C 
ATOM     20  CG2 ILE A   2      -9.365   0.794 131.806  0.00  0.00    +0.000 C 
BRANCH  19  22
ATOM     21  CD1 ILE A   2      -7.084  -1.450 133.213  0.00  0.00    +0.000 C 
ATOM     22  CG1 ILE A   2      -7.082  -0.162 132.358  0.00  0.00    +0.000 C 
ENDBRANCH  19  22
ENDBRANCH   1  19
BRANCH   8  23
ATOM     23  C   UNK A   0      -6.338   1.938 130.091  0.00  0.00    +0.000 C 
BRANCH  23  24
ATOM     24  C   UNK A   0      -7.175   3.263 130.200  0.00  0.00    +0.000 A 
ATOM     25  C   UNK A   0      -7.940   3.762 129.139  0.00  0.00    +0.000 A 
ATOM     26  C   UNK A   0      -8.743   4.889 129.240  0.00  0.00    +0.000 A 
ATOM     27  C   UNK A   0      -8.967   5.493 130.459  0.00  0.00    +0.000 A 
ATOM     28  C   UNK A   0      -8.222   5.031 131.548  0.00  0.00    +0.000 A 
ATOM     29  C   UNK A   0      -7.289   3.979 131.411  0.00  0.00    +0.000 A 
BRANCH  27  30
ATOM     30  N   UNK A   0      -9.951   6.435 130.587  0.00  0.00    +0.000 N 
ATOM     31  C   UNK A   0     -10.815   6.487 131.758  0.00  0.00    +0.000 C 
ATOM     32  C   UNK A   0     -12.247   6.738 131.272  0.00  0.00    +0.000 C 
ATOM     33  O   UNK A   0     -12.336   7.924 130.453  0.00  0.00    +0.000 OA
ATOM     34  C   UNK A   0     -11.475   7.802 129.302  0.00  0.00    +0.000 C 
ATOM     35  C   UNK A   0     -10.009   7.617 129.722  0.00  0.00    +0.000 C 
ENDBRANCH  27  30
ENDBRANCH  23  24
BRANCH  23  36
ATOM     36  C   UNK A   0      -4.746   2.247 129.671  0.00  0.00    +0.000 C 
ATOM     37  O   UNK A   0      -3.786   1.563 130.026  0.00  0.00    +0.000 OA
ATOM     38  N   UNK A   0      -4.408   3.318 128.856  0.00  0.00    +0.000 N 
ATOM     39  H   UNK A   0      -5.027   3.586 128.118  0.00  0.00    +0.000 HD
BRANCH  38  40
ATOM     40  C   UNK A   0      -3.052   3.665 128.491  0.00  0.00    +0.000 C 
ATOM     41  C   UNK A   0      -2.860   3.174 127.072  0.00  0.00    +0.000 C 
ATOM     42  C   UNK A   0      -2.824   5.181 128.512  0.00  0.00    +0.000 C 
ENDBRANCH  38  40
ENDBRANCH  23  36
ENDBRANCH   8  23
TORSDOF 8
ENDMDL
MODEL 3
REMARK VINA RESULT:      -8.3      3.671      4.872
REMARK  Name = CHEMBL427227
REMARK  12 active torsions:
REMARK  status: ('A' for Active; 'I' for Inactive)
REMARK    1  A    between atoms: CD1_1  and  CG1_2
REMARK    2  A    between atoms: CG1_2  and  CB_3
REMARK    3  A    between atoms: CB_3  and  CG2_4
REMARK    4  A    between atoms: CB_3  and  CA_5
REMARK    5  A    between atoms: C_9  and  C_10
REMARK    6  A    between atoms: N_21  and  C_22
REMARK    7  A    between atoms: C_22  and  C_23
REMARK    8  A    between atoms: C_22  and  C_29
REMARK    9  A    between atoms: N_25  and  C_26
REMARK   10  A    between atoms: C_26  and  C_27
REMARK   11  A    between atoms: C_26  and  C_28
REMARK   12  A    between atoms: C_32  and  N_33
REMARK                            x       y       z     vdW  Elec       q    Type
REMARK                         _______ _______ _______ _____ _____    ______ ____
ROOT
ATOM      1  CA  ILE A   2      -8.225   0.659 129.611  0.00  0.00    +0.000 C 
ATOM      2  C   ILE A   2      -7.220  -0.213 128.795  0.00  0.00    +0.000 C 
ATOM      3  O   ILE A   2      -6.615  -1.211 129.092  0.00  0.00    +0.000 OA
ATOM      4  N   UNK A   1      -7.129   0.144 127.506  0.00  0.00    +0.000 N 
ATOM      5  C   UNK A   1      -8.013   1.079 126.892  0.00  0.00    +0.000 C 
ATOM      6  C   UNK A   1      -8.099   2.333 127.765  0.00  0.00    +0.000 C 
ATOM      7  O   UNK A   1      -8.236   3.401 127.184  0.00  0.00    +0.000 OA
ATOM      8  N   ILE A   2      -8.060   2.129 129.155  0.00  0.00    +0.000 N 
ATOM      9  H   UNK A   1      -6.518  -0.480 126.995  0.00  0.00    +0.000 HD
ENDROOT
BRANCH   5  10
ATOM     10  C   UNK A   1      -7.440   1.536 125.538  0.00  0.00    +0.000 C 
ATOM     11  C   UNK A   1      -8.425   1.324 124.382  0.00  0.00    +0.000 C 
ATOM     12  C   UNK A   1      -8.051  -0.050 123.913  0.00  0.00    +0.000 A 
ATOM     13  C   UNK A   1      -8.840  -0.948 123.218  0.00  0.00    +0.000 A 
ATOM     14  C   UNK A   1      -8.342  -2.234 123.005  0.00  0.00    +0.000 A 
ATOM     15  C   UNK A   1      -7.084  -2.613 123.501  0.00  0.00    +0.000 A 
ATOM     16  C   UNK A   1      -6.295  -1.706 124.209  0.00  0.00    +0.000 A 
ATOM     17  C   UNK A   1      -6.784  -0.422 124.388  0.00  0.00    +0.000 A 
ATOM     18  C   UNK A   1      -6.175   0.689 125.190  0.00  0.00    +0.000 C 
ENDBRANCH   5  10
BRANCH   1  19
ATOM     19  CB  ILE A   2      -8.046   0.427 131.101  0.00  0.00    +0.000 C 
ATOM     20  CG2 ILE A   2      -9.310   0.597 131.930  0.00  0.00    +0.000 C 
BRANCH  19  22
ATOM     21  CD1 ILE A   2      -6.396  -0.234 132.932  0.00  0.00    +0.000 C 
ATOM     22  CG1 ILE A   2      -6.785   0.810 131.859  0.00  0.00    +0.000 C 
ENDBRANCH  19  22
ENDBRANCH   1  19
BRANCH   8  23
ATOM     23  C   UNK A   0      -7.859   3.332 130.122  0.00  0.00    +0.000 C 
BRANCH  23  24
ATOM     24  C   UNK A   0      -9.037   4.370 130.120  0.00  0.00    +0.000 A 
ATOM     25  C   UNK A   0      -8.866   5.706 129.736  0.00  0.00    +0.000 A 
ATOM     26  C   UNK A   0      -9.908   6.618 129.658  0.00  0.00    +0.000 A 
ATOM     27  C   UNK A   0     -11.218   6.212 129.795  0.00  0.00    +0.000 A 
ATOM     28  C   UNK A   0     -11.439   4.886 130.183  0.00  0.00    +0.000 A 
ATOM     29  C   UNK A   0     -10.367   3.996 130.410  0.00  0.00    +0.000 A 
BRANCH  27  30
ATOM     30  N   UNK A   0     -12.238   7.061 129.466  0.00  0.00    +0.000 N 
ATOM     31  C   UNK A   0     -13.262   6.692 128.499  0.00  0.00    +0.000 C 
ATOM     32  C   UNK A   0     -13.511   7.906 127.595  0.00  0.00    +0.000 C 
ATOM     33  O   UNK A   0     -13.856   9.082 128.360  0.00  0.00    +0.000 OA
ATOM     34  C   UNK A   0     -12.796   9.407 129.282  0.00  0.00    +0.000 C 
ATOM     35  C   UNK A   0     -12.542   8.253 130.265  0.00  0.00    +0.000 C 
ENDBRANCH  27  30
ENDBRANCH  23  24
BRANCH  23  36
ATOM     36  C   UNK A   0      -6.368   4.088 130.007  0.00  0.00    +0.000 C 
ATOM     37  O   UNK A   0      -5.705   4.169 128.973  0.00  0.00    +0.000 OA
ATOM     38  N   UNK A   0      -5.784   4.702 131.105  0.00  0.00    +0.000 N 
ATOM     39  H   UNK A   0      -6.366   5.165 131.774  0.00  0.00    +0.000 HD
BRANCH  38  40
ATOM     40  C   UNK A   0      -4.483   5.335 131.085  0.00  0.00    +0.000 C 
ATOM     41  C   UNK A   0      -4.603   6.571 131.950  0.00  0.00    +0.000 C 
ATOM     42  C   UNK A   0      -3.399   4.431 131.684  0.00  0.00    +0.000 C 
ENDBRANCH  38  40
ENDBRANCH  23  36
ENDBRANCH   8  23
TORSDOF 8
ENDMDL
MODEL 4
REMARK VINA RESULT:      -8.2      2.265      9.039
REMARK  Name = CHEMBL427227
REMARK  12 active torsions:
REMARK  status: ('A' for Active; 'I' for Inactive)
REMARK    1  A    between atoms: CD1_1  and  CG1_2
REMARK    2  A    between atoms: CG1_2  and  CB_3
REMARK    3  A    between atoms: CB_3  and  CG2_4
REMARK    4  A    between atoms: CB_3  and  CA_5
REMARK    5  A    between atoms: C_9  and  C_10
REMARK    6  A    between atoms: N_21  and  C_22
REMARK    7  A    between atoms: C_22  and  C_23
REMARK    8  A    between atoms: C_22  and  C_29
REMARK    9  A    between atoms: N_25  and  C_26
REMARK   10  A    between atoms: C_26  and  C_27
REMARK   11  A    between atoms: C_26  and  C_28
REMARK   12  A    between atoms: C_32  and  N_33
REMARK                            x       y       z     vdW  Elec       q    Type
REMARK                         _______ _______ _______ _____ _____    ______ ____
ROOT
ATOM      1  CA  ILE A   2      -7.584   3.009 128.432  0.00  0.00    +0.000 C 
ATOM      2  C   ILE A   2      -8.177   4.367 127.940  0.00  0.00    +0.000 C 
ATOM      3  O   ILE A   2      -8.403   4.777 126.830  0.00  0.00    +0.000 OA
ATOM      4  N   UNK A   1      -8.631   5.143 128.935  0.00  0.00    +0.000 N 
ATOM      5  C   UNK A   1      -8.759   4.688 130.281  0.00  0.00    +0.000 C 
ATOM      6  C   UNK A   1      -7.450   4.021 130.709  0.00  0.00    +0.000 C 
ATOM      7  O   UNK A   1      -7.123   4.151 131.880  0.00  0.00    +0.000 OA
ATOM      8  N   ILE A   2      -6.773   3.283 129.722  0.00  0.00    +0.000 N 
ATOM      9  H   UNK A   1      -9.064   5.983 128.576  0.00  0.00    +0.000 HD
ENDROOT
BRANCH   5  10
ATOM     10  C   UNK A   1      -8.959   5.888 131.225  0.00  0.00    +0.000 C 
ATOM     11  C   UNK A   1     -10.364   5.921 131.841  0.00  0.00    +0.000 C 
ATOM     12  C   UNK A   1     -11.110   6.761 130.849  0.00  0.00    +0.000 A 
ATOM     13  C   UNK A   1     -12.473   6.781 130.617  0.00  0.00    +0.000 A 
ATOM     14  C   UNK A   1     -12.947   7.535 129.543  0.00  0.00    +0.000 A 
ATOM     15  C   UNK A   1     -12.063   8.238 128.708  0.00  0.00    +0.000 A 
ATOM     16  C   UNK A   1     -10.689   8.208 128.942  0.00  0.00    +0.000 A 
ATOM     17  C   UNK A   1     -10.230   7.483 130.029  0.00  0.00    +0.000 A 
ATOM     18  C   UNK A   1      -8.807   7.219 130.423  0.00  0.00    +0.000 C 
ENDBRANCH   5  10
BRANCH   1  19
ATOM     19  CB  ILE A   2      -6.805   2.332 127.319  0.00  0.00    +0.000 C 
ATOM     20  CG2 ILE A   2      -6.819   0.811 127.364  0.00  0.00    +0.000 C 
BRANCH  19  22
ATOM     21  CD1 ILE A   2      -4.477   1.796 126.423  0.00  0.00    +0.000 C 
ATOM     22  CG1 ILE A   2      -5.517   2.896 126.738  0.00  0.00    +0.000 C 
ENDBRANCH  19  22
ENDBRANCH   1  19
BRANCH   8  23
ATOM     23  C   UNK A   0      -5.313   2.803 129.961  0.00  0.00    +0.000 C 
BRANCH  23  24
ATOM     24  C   UNK A   0      -5.195   1.371 130.594  0.00  0.00    +0.000 A 
ATOM     25  C   UNK A   0      -6.134   0.867 131.503  0.00  0.00    +0.000 A 
ATOM     26  C   UNK A   0      -6.086  -0.422 132.016  0.00  0.00    +0.000 A 
ATOM     27  C   UNK A   0      -5.193  -1.348 131.522  0.00  0.00    +0.000 A 
ATOM     28  C   UNK A   0      -4.233  -0.891 130.614  0.00  0.00    +0.000 A 
ATOM     29  C   UNK A   0      -4.187   0.461 130.207  0.00  0.00    +0.000 A 
BRANCH  27  30
ATOM     30  N   UNK A   0      -5.325  -2.670 131.849  0.00  0.00    +0.000 N 
ATOM     31  C   UNK A   0      -4.776  -3.214 133.082  0.00  0.00    +0.000 C 
ATOM     32  C   UNK A   0      -4.120  -4.561 132.749  0.00  0.00    +0.000 C 
ATOM     33  O   UNK A   0      -5.044  -5.460 132.098  0.00  0.00    +0.000 OA
ATOM     34  C   UNK A   0      -5.535  -4.874 130.876  0.00  0.00    +0.000 C 
ATOM     35  C   UNK A   0      -6.267  -3.550 131.150  0.00  0.00    +0.000 C 
ENDBRANCH  27  30
ENDBRANCH  23  24
BRANCH  23  36
ATOM     36  C   UNK A   0      -4.326   3.907 130.744  0.00  0.00    +0.000 C 
ATOM     37  O   UNK A   0      -3.796   3.715 131.838  0.00  0.00    +0.000 OA
ATOM     38  N   UNK A   0      -4.025   5.136 130.175  0.00  0.00    +0.000 N 
ATOM     39  H   UNK A   0      -3.915   5.204 129.184  0.00  0.00    +0.000 HD
BRANCH  38  40
ATOM     40  C   UNK A   0      -3.215   6.151 130.815  0.00  0.00    +0.000 C 
ATOM     41  C   UNK A   0      -2.052   6.410 129.882  0.00  0.00    +0.000 C 
ATOM     42  C   UNK A   0      -3.986   7.463 131.002  0.00  0.00    +0.000 C 
ENDBRANCH  38  40
ENDBRANCH  23  36
ENDBRANCH   8  23
TORSDOF 8
ENDMDL
MODEL 5
REMARK VINA RESULT:      -8.2      1.225      1.732
REMARK  Name = CHEMBL427227
REMARK  12 active torsions:
REMARK  status: ('A' for Active; 'I' for Inactive)
REMARK    1  A    between atoms: CD1_1  and  CG1_2
REMARK    2  A    between atoms: CG1_2  and  CB_3
REMARK    3  A    between atoms: CB_3  and  CG2_4
REMARK    4  A    between atoms: CB_3  and  CA_5
REMARK    5  A    between atoms: C_9  and  C_10
REMARK    6  A    between atoms: N_21  and  C_22
REMARK    7  A    between atoms: C_22  and  C_23
REMARK    8  A    between atoms: C_22  and  C_29
REMARK    9  A    between atoms: N_25  and  C_26
REMARK   10  A    between atoms: C_26  and  C_27
REMARK   11  A    between atoms: C_26  and  C_28
REMARK   12  A    between atoms: C_32  and  N_33
REMARK                            x       y       z     vdW  Elec       q    Type
REMARK                         _______ _______ _______ _____ _____    ______ ____
ROOT
ATOM      1  CA  ILE A   2      -6.402   2.542 132.499  0.00  0.00    +0.000 C 
ATOM      2  C   ILE A   2      -5.225   1.609 132.925  0.00  0.00    +0.000 C 
ATOM      3  O   ILE A   2      -4.693   1.443 133.993  0.00  0.00    +0.000 OA
ATOM      4  N   UNK A   1      -4.843   0.758 131.962  0.00  0.00    +0.000 N 
ATOM      5  C   UNK A   1      -5.572   0.573 130.751  0.00  0.00    +0.000 C 
ATOM      6  C   UNK A   1      -5.873   1.941 130.135  0.00  0.00    +0.000 C 
ATOM      7  O   UNK A   1      -5.885   2.006 128.914  0.00  0.00    +0.000 OA
ATOM      8  N   ILE A   2      -6.154   2.983 131.036  0.00  0.00    +0.000 N 
ATOM      9  H   UNK A   1      -4.123   0.130 132.293  0.00  0.00    +0.000 HD
ENDROOT
BRANCH   5  10
ATOM     10  C   UNK A   1      -4.707  -0.180 129.724  0.00  0.00    +0.000 C 
ATOM     11  C   UNK A   1      -5.517  -1.190 128.902  0.00  0.00    +0.000 C 
ATOM     12  C   UNK A   1      -5.371  -2.436 129.724  0.00  0.00    +0.000 A 
ATOM     13  C   UNK A   1      -6.210  -3.534 129.746  0.00  0.00    +0.000 A 
ATOM     14  C   UNK A   1      -5.967  -4.529 130.694  0.00  0.00    +0.000 A 
ATOM     15  C   UNK A   1      -4.912  -4.408 131.614  0.00  0.00    +0.000 A 
ATOM     16  C   UNK A   1      -4.074  -3.294 131.592  0.00  0.00    +0.000 A 
ATOM     17  C   UNK A   1      -4.303  -2.327 130.627  0.00  0.00    +0.000 A 
ATOM     18  C   UNK A   1      -3.610  -1.007 130.467  0.00  0.00    +0.000 C 
ENDBRANCH   5  10
BRANCH   1  19
ATOM     19  CB  ILE A   2      -6.570   3.678 133.491  0.00  0.00    +0.000 C 
ATOM     20  CG2 ILE A   2      -5.269   4.218 134.069  0.00  0.00    +0.000 C 
BRANCH  19  22
ATOM     21  CD1 ILE A   2      -9.107   3.745 133.756  0.00  0.00    +0.000 C 
ATOM     22  CG1 ILE A   2      -7.734   3.770 134.466  0.00  0.00    +0.000 C 
ENDBRANCH  19  22
ENDBRANCH   1  19
BRANCH   8  23
ATOM     23  C   UNK A   0      -6.197   4.459 130.544  0.00  0.00    +0.000 C 
BRANCH  23  24
ATOM     24  C   UNK A   0      -7.635   5.087 130.499  0.00  0.00    +0.000 A 
ATOM     25  C   UNK A   0      -7.876   6.443 130.753  0.00  0.00    +0.000 A 
ATOM     26  C   UNK A   0      -9.128   7.030 130.645  0.00  0.00    +0.000 A 
ATOM     27  C   UNK A   0     -10.193   6.337 130.110  0.00  0.00    +0.000 A 
ATOM     28  C   UNK A   0     -10.002   4.977 129.843  0.00  0.00    +0.000 A 
ATOM     29  C   UNK A   0      -8.766   4.343 130.097  0.00  0.00    +0.000 A 
BRANCH  27  30
ATOM     30  N   UNK A   0     -11.343   6.997 129.774  0.00  0.00    +0.000 N 
ATOM     31  C   UNK A   0     -11.750   7.172 128.387  0.00  0.00    +0.000 C 
ATOM     32  C   UNK A   0     -12.253   8.612 128.226  0.00  0.00    +0.000 C 
ATOM     33  O   UNK A   0     -13.305   8.922 129.165  0.00  0.00    +0.000 OA
ATOM     34  C   UNK A   0     -12.834   8.749 130.517  0.00  0.00    +0.000 C 
ATOM     35  C   UNK A   0     -12.378   7.303 130.766  0.00  0.00    +0.000 C 
ENDBRANCH  27  30
ENDBRANCH  23  24
BRANCH  23  36
ATOM     36  C   UNK A   0      -5.348   4.757 129.131  0.00  0.00    +0.000 C 
ATOM     37  O   UNK A   0      -5.858   5.144 128.080  0.00  0.00    +0.000 OA
ATOM     38  N   UNK A   0      -3.971   4.597 129.069  0.00  0.00    +0.000 N 
ATOM     39  H   UNK A   0      -3.415   4.819 129.870  0.00  0.00    +0.000 HD
BRANCH  38  40
ATOM     40  C   UNK A   0      -3.184   4.796 127.871  0.00  0.00    +0.000 C 
ATOM     41  C   UNK A   0      -2.299   5.994 128.144  0.00  0.00    +0.000 C 
ATOM     42  C   UNK A   0      -2.284   3.591 127.572  0.00  0.00    +0.000 C 
ENDBRANCH  38  40
ENDBRANCH  23  36
ENDBRANCH   8  23
TORSDOF 8
ENDMDL
MODEL 6
REMARK VINA RESULT:      -8.2      3.386      9.006
REMARK  Name = CHEMBL427227
REMARK  12 active torsions:
REMARK  status: ('A' for Active; 'I' for Inactive)
REMARK    1  A    between atoms: CD1_1  and  CG1_2
REMARK    2  A    between atoms: CG1_2  and  CB_3
REMARK    3  A    between atoms: CB_3  and  CG2_4
REMARK    4  A    between atoms: CB_3  and  CA_5
REMARK    5  A    between atoms: C_9  and  C_10
REMARK    6  A    between atoms: N_21  and  C_22
REMARK    7  A    between atoms: C_22  and  C_23
REMARK    8  A    between atoms: C_22  and  C_29
REMARK    9  A    between atoms: N_25  and  C_26
REMARK   10  A    between atoms: C_26  and  C_27
REMARK   11  A    between atoms: C_26  and  C_28
REMARK   12  A    between atoms: C_32  and  N_33
REMARK                            x       y       z     vdW  Elec       q    Type
REMARK                         _______ _______ _______ _____ _____    ______ ____
ROOT
ATOM      1  CA  ILE A   2      -7.104   5.173 129.726  0.00  0.00    +0.000 C 
ATOM      2  C   ILE A   2      -7.582   6.255 130.745  0.00  0.00    +0.000 C 
ATOM      3  O   ILE A   2      -6.984   7.147 131.291  0.00  0.00    +0.000 OA
ATOM      4  N   UNK A   1      -8.910   6.264 130.931  0.00  0.00    +0.000 N 
ATOM      5  C   UNK A   1      -9.814   5.512 130.124  0.00  0.00    +0.000 C 
ATOM      6  C   UNK A   1      -9.320   4.067 130.033  0.00  0.00    +0.000 C 
ATOM      7  O   UNK A   1     -10.175   3.195 129.975  0.00  0.00    +0.000 OA
ATOM      8  N   ILE A   2      -7.927   3.886 129.977  0.00  0.00    +0.000 N 
ATOM      9  H   UNK A   1      -9.188   7.016 131.547  0.00  0.00    +0.000 HD
ENDROOT
BRANCH   5  10
ATOM     10  C   UNK A   1     -11.197   5.453 130.798  0.00  0.00    +0.000 C 
ATOM     11  C   UNK A   1     -12.320   5.124 129.806  0.00  0.00    +0.000 C 
ATOM     12  C   UNK A   1     -12.750   6.493 129.372  0.00  0.00    +0.000 A 
ATOM     13  C   UNK A   1     -13.394   6.842 128.200  0.00  0.00    +0.000 A 
ATOM     14  C   UNK A   1     -13.576   8.198 127.926  0.00  0.00    +0.000 A 
ATOM     15  C   UNK A   1     -13.100   9.183 128.808  0.00  0.00    +0.000 A 
ATOM     16  C   UNK A   1     -12.443   8.825 129.985  0.00  0.00    +0.000 A 
ATOM     17  C   UNK A   1     -12.296   7.476 130.264  0.00  0.00    +0.000 A 
ATOM     18  C   UNK A   1     -11.548   6.850 131.402  0.00  0.00    +0.000 C 
ENDBRANCH   5  10
BRANCH   1  19
ATOM     19  CB  ILE A   2      -5.599   4.995 129.803  0.00  0.00    +0.000 C 
ATOM     20  CG2 ILE A   2      -4.951   4.476 128.527  0.00  0.00    +0.000 C 
BRANCH  19  22
ATOM     21  CD1 ILE A   2      -3.768   3.502 130.766  0.00  0.00    +0.000 C 
ATOM     22  CG1 ILE A   2      -4.875   4.540 131.061  0.00  0.00    +0.000 C 
ENDBRANCH  19  22
ENDBRANCH   1  19
BRANCH   8  23
ATOM     23  C   UNK A   0      -7.310   2.470 130.164  0.00  0.00    +0.000 C 
BRANCH  23  24
ATOM     24  C   UNK A   0      -7.723   1.430 129.064  0.00  0.00    +0.000 A 
ATOM     25  C   UNK A   0      -8.054   1.804 127.756  0.00  0.00    +0.000 A 
ATOM     26  C   UNK A   0      -8.350   0.894 126.752  0.00  0.00    +0.000 A 
ATOM     27  C   UNK A   0      -8.168  -0.459 126.945  0.00  0.00    +0.000 A 
ATOM     28  C   UNK A   0      -7.841  -0.882 128.237  0.00  0.00    +0.000 A 
ATOM     29  C   UNK A   0      -7.688   0.038 129.298  0.00  0.00    +0.000 A 
BRANCH  27  30
ATOM     30  N   UNK A   0      -8.216  -1.317 125.880  0.00  0.00    +0.000 N 
ATOM     31  C   UNK A   0      -9.099  -2.474 125.867  0.00  0.00    +0.000 C 
ATOM     32  C   UNK A   0      -8.308  -3.659 125.298  0.00  0.00    +0.000 C 
ATOM     33  O   UNK A   0      -7.752  -3.359 124.000  0.00  0.00    +0.000 OA
ATOM     34  C   UNK A   0      -6.873  -2.219 124.084  0.00  0.00    +0.000 C 
ATOM     35  C   UNK A   0      -7.624  -0.975 124.583  0.00  0.00    +0.000 C 
ENDBRANCH  27  30
ENDBRANCH  23  24
BRANCH  23  36
ATOM     36  C   UNK A   0      -7.462   1.832 131.706  0.00  0.00    +0.000 C 
ATOM     37  O   UNK A   0      -8.533   1.670 132.291  0.00  0.00    +0.000 OA
ATOM     38  N   UNK A   0      -6.353   1.420 132.430  0.00  0.00    +0.000 N 
ATOM     39  H   UNK A   0      -5.581   1.003 131.949  0.00  0.00    +0.000 HD
BRANCH  38  40
ATOM     40  C   UNK A   0      -6.410   0.900 133.779  0.00  0.00    +0.000 C 
ATOM     41  C   UNK A   0      -5.736  -0.454 133.737  0.00  0.00    +0.000 C 
ATOM     42  C   UNK A   0      -5.644   1.790 134.767  0.00  0.00    +0.000 C 
ENDBRANCH  38  40
ENDBRANCH  23  36
ENDBRANCH   8  23
TORSDOF 8
ENDMDL
MODEL 7
REMARK VINA RESULT:      -8.2      3.478      7.821
REMARK  Name = CHEMBL427227
REMARK  12 active torsions:
REMARK  status: ('A' for Active; 'I' for Inactive)
REMARK    1  A    between atoms: CD1_1  and  CG1_2
REMARK    2  A    between atoms: CG1_2  and  CB_3
REMARK    3  A    between atoms: CB_3  and  CG2_4
REMARK    4  A    between atoms: CB_3  and  CA_5
REMARK    5  A    between atoms: C_9  and  C_10
REMARK    6  A    between atoms: N_21  and  C_22
REMARK    7  A    between atoms: C_22  and  C_23
REMARK    8  A    between atoms: C_22  and  C_29
REMARK    9  A    between atoms: N_25  and  C_26
REMARK   10  A    between atoms: C_26  and  C_27
REMARK   11  A    between atoms: C_26  and  C_28
REMARK   12  A    between atoms: C_32  and  N_33
REMARK                            x       y       z     vdW  Elec       q    Type
REMARK                         _______ _______ _______ _____ _____    ______ ____
ROOT
ATOM      1  CA  ILE A   2      -6.273   3.050 132.073  0.00  0.00    +0.000 C 
ATOM      2  C   ILE A   2      -5.853   4.332 132.860  0.00  0.00    +0.000 C 
ATOM      3  O   ILE A   2      -6.007   4.639 134.014  0.00  0.00    +0.000 OA
ATOM      4  N   UNK A   1      -5.072   5.161 132.151  0.00  0.00    +0.000 N 
ATOM      5  C   UNK A   1      -4.506   4.810 130.890  0.00  0.00    +0.000 C 
ATOM      6  C   UNK A   1      -5.606   4.247 129.988  0.00  0.00    +0.000 C 
ATOM      7  O   UNK A   1      -5.515   4.487 128.792  0.00  0.00    +0.000 OA
ATOM      8  N   ILE A   2      -6.592   3.468 130.617  0.00  0.00    +0.000 N 
ATOM      9  H   UNK A   1      -4.769   5.946 132.711  0.00  0.00    +0.000 HD
ENDROOT
BRANCH   5  10
ATOM     10  C   UNK A   1      -3.972   6.070 130.184  0.00  0.00    +0.000 C 
ATOM     11  C   UNK A   1      -2.457   6.016 129.954  0.00  0.00    +0.000 C 
ATOM     12  C   UNK A   1      -1.939   6.670 131.200  0.00  0.00    +0.000 A 
ATOM     13  C   UNK A   1      -0.689   6.524 131.771  0.00  0.00    +0.000 A 
ATOM     14  C   UNK A   1      -0.460   7.113 133.016  0.00  0.00    +0.000 A 
ATOM     15  C   UNK A   1      -1.478   7.819 133.678  0.00  0.00    +0.000 A 
ATOM     16  C   UNK A   1      -2.740   7.957 133.100  0.00  0.00    +0.000 A 
ATOM     17  C   UNK A   1      -2.948   7.395 131.851  0.00  0.00    +0.000 A 
ATOM     18  C   UNK A   1      -4.231   7.323 131.079  0.00  0.00    +0.000 C 
ENDBRANCH   5  10
BRANCH   1  19
ATOM     19  CB  ILE A   2      -7.396   2.326 132.793  0.00  0.00    +0.000 C 
ATOM     20  CG2 ILE A   2      -7.371   0.811 132.654  0.00  0.00    +0.000 C 
BRANCH  19  22
ATOM     21  CD1 ILE A   2      -9.874   1.942 132.323  0.00  0.00    +0.000 C 
ATOM     22  CG1 ILE A   2      -8.804   2.886 132.918  0.00  0.00    +0.000 C 
ENDBRANCH  19  22
ENDBRANCH   1  19
BRANCH   8  23
ATOM     23  C   UNK A   0      -7.895   3.083 129.859  0.00  0.00    +0.000 C 
BRANCH  23  24
ATOM     24  C   UNK A   0      -7.719   1.930 128.808  0.00  0.00    +0.000 A 
ATOM     25  C   UNK A   0      -6.787   0.897 128.968  0.00  0.00    +0.000 A 
ATOM     26  C   UNK A   0      -6.668  -0.169 128.088  0.00  0.00    +0.000 A 
ATOM     27  C   UNK A   0      -7.590  -0.363 127.081  0.00  0.00    +0.000 A 
ATOM     28  C   UNK A   0      -8.539   0.644 126.880  0.00  0.00    +0.000 A 
ATOM     29  C   UNK A   0      -8.564   1.806 127.683  0.00  0.00    +0.000 A 
BRANCH  27  30
ATOM     30  N   UNK A   0      -7.612  -1.543 126.389  0.00  0.00    +0.000 N 
ATOM     31  C   UNK A   0      -6.399  -2.306 126.134  0.00  0.00    +0.000 C 
ATOM     32  C   UNK A   0      -6.450  -2.795 124.682  0.00  0.00    +0.000 C 
ATOM     33  O   UNK A   0      -7.654  -3.544 124.410  0.00  0.00    +0.000 OA
ATOM     34  C   UNK A   0      -8.817  -2.729 124.662  0.00  0.00    +0.000 C 
ATOM     35  C   UNK A   0      -8.862  -2.262 126.125  0.00  0.00    +0.000 C 
ENDBRANCH  27  30
ENDBRANCH  23  24
BRANCH  23  36
ATOM     36  C   UNK A   0      -8.747   4.376 129.220  0.00  0.00    +0.000 C 
ATOM     37  O   UNK A   0      -8.565   4.844 128.096  0.00  0.00    +0.000 OA
ATOM     38  N   UNK A   0      -9.754   5.004 129.939  0.00  0.00    +0.000 N 
ATOM     39  H   UNK A   0     -10.336   4.460 130.543  0.00  0.00    +0.000 HD
BRANCH  38  40
ATOM     40  C   UNK A   0     -10.499   6.150 129.464  0.00  0.00    +0.000 C 
ATOM     41  C   UNK A   0     -11.861   6.066 130.116  0.00  0.00    +0.000 C 
ATOM     42  C   UNK A   0      -9.843   7.471 129.884  0.00  0.00    +0.000 C 
ENDBRANCH  38  40
ENDBRANCH  23  36
ENDBRANCH   8  23
TORSDOF 8
ENDMDL
MODEL 8
REMARK VINA RESULT:      -7.8      3.252      8.254
REMARK  Name = CHEMBL427227
REMARK  12 active torsions:
REMARK  status: ('A' for Active; 'I' for Inactive)
REMARK    1  A    between atoms: CD1_1  and  CG1_2
REMARK    2  A    between atoms: CG1_2  and  CB_3
REMARK    3  A    between atoms: CB_3  and  CG2_4
REMARK    4  A    between atoms: CB_3  and  CA_5
REMARK    5  A    between atoms: C_9  and  C_10
REMARK    6  A    between atoms: N_21  and  C_22
REMARK    7  A    between atoms: C_22  and  C_23
REMARK    8  A    between atoms: C_22  and  C_29
REMARK    9  A    between atoms: N_25  and  C_26
REMARK   10  A    between atoms: C_26  and  C_27
REMARK   11  A    between atoms: C_26  and  C_28
REMARK   12  A    between atoms: C_32  and  N_33
REMARK                            x       y       z     vdW  Elec       q    Type
REMARK                         _______ _______ _______ _____ _____    ______ ____
ROOT
ATOM      1  CA  ILE A   2      -7.398   4.250 131.246  0.00  0.00    +0.000 C 
ATOM      2  C   ILE A   2      -7.333   5.789 131.505  0.00  0.00    +0.000 C 
ATOM      3  O   ILE A   2      -8.028   6.510 132.172  0.00  0.00    +0.000 OA
ATOM      4  N   UNK A   1      -6.233   6.367 131.001  0.00  0.00    +0.000 N 
ATOM      5  C   UNK A   1      -5.134   5.627 130.474  0.00  0.00    +0.000 C 
ATOM      6  C   UNK A   1      -5.662   4.585 129.486  0.00  0.00    +0.000 C 
ATOM      7  O   UNK A   1      -4.953   4.329 128.523  0.00  0.00    +0.000 OA
ATOM      8  N   ILE A   2      -6.893   3.987 129.807  0.00  0.00    +0.000 N 
ATOM      9  H   UNK A   1      -6.193   7.349 131.241  0.00  0.00    +0.000 HD
ENDROOT
BRANCH   5  10
ATOM     10  C   UNK A   1      -4.210   6.557 129.667  0.00  0.00    +0.000 C 
ATOM     11  C   UNK A   1      -2.763   6.050 129.620  0.00  0.00    +0.000 C 
ATOM     12  C   UNK A   1      -2.165   6.731 130.815  0.00  0.00    +0.000 A 
ATOM     13  C   UNK A   1      -1.054   6.341 131.539  0.00  0.00    +0.000 A 
ATOM     14  C   UNK A   1      -0.752   7.040 132.708  0.00  0.00    +0.000 A 
ATOM     15  C   UNK A   1      -1.565   8.098 133.148  0.00  0.00    +0.000 A 
ATOM     16  C   UNK A   1      -2.689   8.482 132.418  0.00  0.00    +0.000 A 
ATOM     17  C   UNK A   1      -2.963   7.803 131.242  0.00  0.00    +0.000 A 
ATOM     18  C   UNK A   1      -4.155   7.962 130.346  0.00  0.00    +0.000 C 
ENDBRANCH   5  10
BRANCH   1  19
ATOM     19  CB  ILE A   2      -8.788   3.718 131.544  0.00  0.00    +0.000 C 
ATOM     20  CG2 ILE A   2      -9.928   4.570 131.003  0.00  0.00    +0.000 C 
BRANCH  19  22
ATOM     21  CD1 ILE A   2      -8.675   3.767 134.093  0.00  0.00    +0.000 C 
ATOM     22  CG1 ILE A   2      -9.148   3.001 132.836  0.00  0.00    +0.000 C 
ENDBRANCH  19  22
ENDBRANCH   1  19
BRANCH   8  23
ATOM     23  C   UNK A   0      -7.652   3.133 128.752  0.00  0.00    +0.000 C 
BRANCH  23  24
ATOM     24  C   UNK A   0      -7.193   1.633 128.676  0.00  0.00    +0.000 A 
ATOM     25  C   UNK A   0      -5.846   1.254 128.697  0.00  0.00    +0.000 A 
ATOM     26  C   UNK A   0      -5.424  -0.068 128.706  0.00  0.00    +0.000 A 
ATOM     27  C   UNK A   0      -6.326  -1.099 128.865  0.00  0.00    +0.000 A 
ATOM     28  C   UNK A   0      -7.685  -0.769 128.846  0.00  0.00    +0.000 A 
ATOM     29  C   UNK A   0      -8.117   0.565 128.685  0.00  0.00    +0.000 A 
BRANCH  27  30
ATOM     30  N   UNK A   0      -5.880  -2.366 129.128  0.00  0.00    +0.000 N 
ATOM     31  C   UNK A   0      -6.781  -3.421 129.567  0.00  0.00    +0.000 C 
ATOM     32  C   UNK A   0      -6.084  -4.193 130.694  0.00  0.00    +0.000 C 
ATOM     33  O   UNK A   0      -4.792  -4.690 130.284  0.00  0.00    +0.000 OA
ATOM     34  C   UNK A   0      -3.941  -3.598 129.881  0.00  0.00    +0.000 C 
ATOM     35  C   UNK A   0      -4.553  -2.822 128.703  0.00  0.00    +0.000 C 
ENDBRANCH  27  30
ENDBRANCH  23  24
BRANCH  23  36
ATOM     36  C   UNK A   0      -7.759   3.824 127.229  0.00  0.00    +0.000 C 
ATOM     37  O   UNK A   0      -8.216   4.944 127.002  0.00  0.00    +0.000 OA
ATOM     38  N   UNK A   0      -7.306   3.157 126.100  0.00  0.00    +0.000 N 
ATOM     39  H   UNK A   0      -6.498   2.572 126.168  0.00  0.00    +0.000 HD
BRANCH  38  40
ATOM     40  C   UNK A   0      -7.407   3.677 124.754  0.00  0.00    +0.000 C 
ATOM     41  C   UNK A   0      -6.040   3.495 124.129  0.00  0.00    +0.000 C 
ATOM     42  C   UNK A   0      -8.428   2.900 123.915  0.00  0.00    +0.000 C 
ENDBRANCH  38  40
ENDBRANCH  23  36
ENDBRANCH   8  23
TORSDOF 8
ENDMDL
MODEL 9
REMARK VINA RESULT:      -7.8      1.852      3.478
REMARK  Name = CHEMBL427227
REMARK  12 active torsions:
REMARK  status: ('A' for Active; 'I' for Inactive)
REMARK    1  A    between atoms: CD1_1  and  CG1_2
REMARK    2  A    between atoms: CG1_2  and  CB_3
REMARK    3  A    between atoms: CB_3  and  CG2_4
REMARK    4  A    between atoms: CB_3  and  CA_5
REMARK    5  A    between atoms: C_9  and  C_10
REMARK    6  A    between atoms: N_21  and  C_22
REMARK    7  A    between atoms: C_22  and  C_23
REMARK    8  A    between atoms: C_22  and  C_29
REMARK    9  A    between atoms: N_25  and  C_26
REMARK   10  A    between atoms: C_26  and  C_27
REMARK   11  A    between atoms: C_26  and  C_28
REMARK   12  A    between atoms: C_32  and  N_33
REMARK                            x       y       z     vdW  Elec       q    Type
REMARK                         _______ _______ _______ _____ _____    ______ ____
ROOT
ATOM      1  CA  ILE A   2      -5.276   2.536 130.606  0.00  0.00    +0.000 C 
ATOM      2  C   ILE A   2      -6.031   1.597 129.613  0.00  0.00    +0.000 C 
ATOM      3  O   ILE A   2      -6.027   1.550 128.410  0.00  0.00    +0.000 OA
ATOM      4  N   UNK A   1      -6.682   0.594 130.219  0.00  0.00    +0.000 N 
ATOM      5  C   UNK A   1      -6.527   0.287 131.603  0.00  0.00    +0.000 C 
ATOM      6  C   UNK A   1      -6.691   1.570 132.421  0.00  0.00    +0.000 C 
ATOM      7  O   UNK A   1      -7.213   1.460 133.521  0.00  0.00    +0.000 OA
ATOM      8  N   ILE A   2      -6.181   2.746 131.845  0.00  0.00    +0.000 N 
ATOM      9  H   UNK A   1      -7.106  -0.028 129.543  0.00  0.00    +0.000 HD
ENDROOT
BRANCH   5  10
ATOM     10  C   UNK A   1      -7.650  -0.662 132.061  0.00  0.00    +0.000 C 
ATOM     11  C   UNK A   1      -7.183  -1.644 133.144  0.00  0.00    +0.000 C 
ATOM     12  C   UNK A   1      -6.731  -2.811 132.318  0.00  0.00    +0.000 A 
ATOM     13  C   UNK A   1      -5.826  -3.793 132.673  0.00  0.00    +0.000 A 
ATOM     14  C   UNK A   1      -5.435  -4.712 131.698  0.00  0.00    +0.000 A 
ATOM     15  C   UNK A   1      -5.932  -4.628 130.387  0.00  0.00    +0.000 A 
ATOM     16  C   UNK A   1      -6.839  -3.630 130.032  0.00  0.00    +0.000 A 
ATOM     17  C   UNK A   1      -7.245  -2.742 131.015  0.00  0.00    +0.000 A 
ATOM     18  C   UNK A   1      -8.123  -1.537 130.857  0.00  0.00    +0.000 C 
ENDBRANCH   5  10
BRANCH   1  19
ATOM     19  CB  ILE A   2      -4.839   3.811 129.908  0.00  0.00    +0.000 C 
ATOM     20  CG2 ILE A   2      -5.870   4.403 128.957  0.00  0.00    +0.000 C 
BRANCH  19  22
ATOM     21  CD1 ILE A   2      -3.058   5.579 129.449  0.00  0.00    +0.000 C 
ATOM     22  CG1 ILE A   2      -3.408   4.073 129.467  0.00  0.00    +0.000 C 
ENDBRANCH  19  22
ENDBRANCH   1  19
BRANCH   8  23
ATOM     23  C   UNK A   0      -6.535   4.136 132.448  0.00  0.00    +0.000 C 
BRANCH  23  24
ATOM     24  C   UNK A   0      -7.782   4.830 131.793  0.00  0.00    +0.000 A 
ATOM     25  C   UNK A   0      -7.879   6.218 131.639  0.00  0.00    +0.000 A 
ATOM     26  C   UNK A   0      -8.939   6.843 130.997  0.00  0.00    +0.000 A 
ATOM     27  C   UNK A   0      -9.888   6.110 130.316  0.00  0.00    +0.000 A 
ATOM     28  C   UNK A   0      -9.834   4.719 130.444  0.00  0.00    +0.000 A 
ATOM     29  C   UNK A   0      -8.840   4.088 131.225  0.00  0.00    +0.000 A 
BRANCH  27  30
ATOM     30  N   UNK A   0     -10.772   6.738 129.482  0.00  0.00    +0.000 N 
ATOM     31  C   UNK A   0     -10.440   7.036 128.096  0.00  0.00    +0.000 C 
ATOM     32  C   UNK A   0     -10.935   8.455 127.791  0.00  0.00    +0.000 C 
ATOM     33  O   UNK A   0     -12.342   8.605 128.078  0.00  0.00    +0.000 OA
ATOM     34  C   UNK A   0     -12.603   8.317 129.467  0.00  0.00    +0.000 C 
ATOM     35  C   UNK A   0     -12.191   6.880 129.823  0.00  0.00    +0.000 C 
ENDBRANCH  27  30
ENDBRANCH  23  24
BRANCH  23  36
ATOM     36  C   UNK A   0      -5.243   5.194 132.590  0.00  0.00    +0.000 C 
ATOM     37  O   UNK A   0      -5.274   6.380 132.263  0.00  0.00    +0.000 OA
ATOM     38  N   UNK A   0      -4.029   4.783 133.120  0.00  0.00    +0.000 N 
ATOM     39  H   UNK A   0      -4.019   4.111 133.860  0.00  0.00    +0.000 HD
BRANCH  38  40
ATOM     40  C   UNK A   0      -2.862   5.633 133.231  0.00  0.00    +0.000 C 
ATOM     41  C   UNK A   0      -2.749   6.001 134.695  0.00  0.00    +0.000 C 
ATOM     42  C   UNK A   0      -1.580   4.900 132.818  0.00  0.00    +0.000 C 
ENDBRANCH  38  40
ENDBRANCH  23  36
ENDBRANCH   8  23
TORSDOF 8
ENDMDL
