MODEL 1
REMARK VINA RESULT:      -8.0      0.000      0.000
REMARK  Name = CHEMBL467184
REMARK  8 active torsions:
REMARK  status: ('A' for Active; 'I' for Inactive)
REMARK    1  A    between atoms: C_1  and  O_2
REMARK    2  A    between atoms: O_2  and  C_3
REMARK    3  A    between atoms: C_6  and  N_7
REMARK    4  A    between atoms: C_8  and  C_9
REMARK    5  A    between atoms: C_12  and  C_13
REMARK    6  A    between atoms: C_16  and  C_17
REMARK    7  A    between atoms: C_22  and  O_23
REMARK    8  A    between atoms: O_23  and  C_24
REMARK                            x       y       z     vdW  Elec       q    Type
REMARK                         _______ _______ _______ _____ _____    ______ ____
ROOT
ATOM      1  N   UNL     1      -8.768  -0.754 124.720  0.00  0.00    +0.000 N 
ATOM      2  C   UNL     1      -9.485  -0.796 123.530  0.00  0.00    +0.000 A 
ATOM      3  C   UNL     1      -9.733   0.296 122.559  0.00  0.00    +0.000 C 
ATOM      4  N   UNL     1      -9.827  -2.049 123.280  0.00  0.00    +0.000 NA
ATOM      5  N   UNL     1      -9.351  -2.843 124.280  0.00  0.00    +0.000 NA
ATOM      6  C   UNL     1      -8.735  -2.072 125.162  0.00  0.00    +0.000 A 
ENDROOT
BRANCH   1  10
ATOM      7  C   UNL     1      -6.965   2.598 126.617  0.00  0.00    +0.000 A 
ATOM      8  C   UNL     1      -6.348   1.980 125.522  0.00  0.00    +0.000 A 
ATOM      9  C   UNL     1      -6.927   0.865 124.886  0.00  0.00    +0.000 A 
ATOM     10  C   UNL     1      -8.131   0.349 125.366  0.00  0.00    +0.000 A 
ATOM     11  C   UNL     1      -8.788   1.011 126.417  0.00  0.00    +0.000 A 
ATOM     12  C   UNL     1      -8.198   2.119 127.049  0.00  0.00    +0.000 A 
BRANCH   7  14
ATOM     13  C   UNL     1      -5.537   4.459 126.187  0.00  0.00    +0.000 C 
ATOM     14  O   UNL     1      -6.337   3.714 127.103  0.00  0.00    +0.000 OA
ENDBRANCH   7  14
ENDBRANCH   1  10
BRANCH   6  15
ATOM     15  C   UNL     1      -8.208  -2.521 126.440  0.00  0.00    +0.000 A 
ATOM     16  C   UNL     1      -8.958  -3.346 127.280  0.00  0.00    +0.000 A 
ATOM     17  C   UNL     1      -8.463  -3.695 128.537  0.00  0.00    +0.000 A 
ATOM     18  C   UNL     1      -7.167  -3.319 128.930  0.00  0.00    +0.000 A 
ATOM     19  C   UNL     1      -6.372  -2.619 128.016  0.00  0.00    +0.000 A 
ATOM     20  C   UNL     1      -6.928  -2.122 126.842  0.00  0.00    +0.000 A 
BRANCH  18  21
ATOM     21  C   UNL     1      -6.695  -3.573 130.296  0.00  0.00    +0.000 A 
ATOM     22  C   UNL     1      -5.834  -4.682 130.475  0.00  0.00    +0.000 A 
ATOM     23  C   UNL     1      -5.381  -5.069 131.735  0.00  0.00    +0.000 A 
ATOM     24  C   UNL     1      -5.728  -4.317 132.846  0.00  0.00    +0.000 A 
ATOM     25  C   UNL     1      -6.561  -3.207 132.696  0.00  0.00    +0.000 A 
ATOM     26  C   UNL     1      -7.071  -2.829 131.440  0.00  0.00    +0.000 A 
BRANCH  26  27
ATOM     27  O   UNL     1      -7.919  -1.755 131.560  0.00  0.00    +0.000 OA
ATOM     28  C   UNL     1      -7.459  -0.437 131.321  0.00  0.00    +0.000 C 
ENDBRANCH  26  27
ENDBRANCH  18  21
ENDBRANCH   6  15
TORSDOF 5
ENDMDL
MODEL 2
REMARK VINA RESULT:      -7.9      3.365      6.938
REMARK  Name = CHEMBL467184
REMARK  8 active torsions:
REMARK  status: ('A' for Active; 'I' for Inactive)
REMARK    1  A    between atoms: C_1  and  O_2
REMARK    2  A    between atoms: O_2  and  C_3
REMARK    3  A    between atoms: C_6  and  N_7
REMARK    4  A    between atoms: C_8  and  C_9
REMARK    5  A    between atoms: C_12  and  C_13
REMARK    6  A    between atoms: C_16  and  C_17
REMARK    7  A    between atoms: C_22  and  O_23
REMARK    8  A    between atoms: O_23  and  C_24
REMARK                            x       y       z     vdW  Elec       q    Type
REMARK                         _______ _______ _______ _____ _____    ______ ____
ROOT
ATOM      1  N   UNL     1      -6.579  -2.019 131.812  0.00  0.00    +0.000 N 
ATOM      2  C   UNL     1      -5.957  -2.560 132.932  0.00  0.00    +0.000 A 
ATOM      3  C   UNL     1      -5.802  -1.966 134.281  0.00  0.00    +0.000 C 
ATOM      4  N   UNL     1      -5.617  -3.811 132.671  0.00  0.00    +0.000 NA
ATOM      5  N   UNL     1      -6.002  -4.116 131.401  0.00  0.00    +0.000 NA
ATOM      6  C   UNL     1      -6.559  -3.040 130.867  0.00  0.00    +0.000 A 
ENDROOT
BRANCH   1  10
ATOM      7  C   UNL     1      -8.289   1.845 131.342  0.00  0.00    +0.000 A 
ATOM      8  C   UNL     1      -9.059   0.778 131.819  0.00  0.00    +0.000 A 
ATOM      9  C   UNL     1      -8.511  -0.510 131.974  0.00  0.00    +0.000 A 
ATOM     10  C   UNL     1      -7.179  -0.736 131.627  0.00  0.00    +0.000 A 
ATOM     11  C   UNL     1      -6.385   0.348 131.219  0.00  0.00    +0.000 A 
ATOM     12  C   UNL     1      -6.943   1.628 131.060  0.00  0.00    +0.000 A 
BRANCH   7  14
ATOM     13  C   UNL     1      -9.949   3.227 130.331  0.00  0.00    +0.000 C 
ATOM     14  O   UNL     1      -8.917   3.062 131.301  0.00  0.00    +0.000 OA
ENDBRANCH   7  14
ENDBRANCH   1  10
BRANCH   6  15
ATOM     15  C   UNL     1      -6.977  -2.915 129.481  0.00  0.00    +0.000 A 
ATOM     16  C   UNL     1      -6.114  -2.400 128.511  0.00  0.00    +0.000 A 
ATOM     17  C   UNL     1      -6.568  -2.214 127.204  0.00  0.00    +0.000 A 
ATOM     18  C   UNL     1      -7.851  -2.642 126.819  0.00  0.00    +0.000 A 
ATOM     19  C   UNL     1      -8.646  -3.293 127.768  0.00  0.00    +0.000 A 
ATOM     20  C   UNL     1      -8.264  -3.316 129.105  0.00  0.00    +0.000 A 
BRANCH  18  21
ATOM     21  C   UNL     1      -8.374  -2.331 125.484  0.00  0.00    +0.000 A 
ATOM     22  C   UNL     1      -8.791  -3.428 124.694  0.00  0.00    +0.000 A 
ATOM     23  C   UNL     1      -9.236  -3.267 123.383  0.00  0.00    +0.000 A 
ATOM     24  C   UNL     1      -9.336  -1.992 122.847  0.00  0.00    +0.000 A 
ATOM     25  C   UNL     1      -8.949  -0.890 123.612  0.00  0.00    +0.000 A 
ATOM     26  C   UNL     1      -8.449  -1.035 124.920  0.00  0.00    +0.000 A 
BRANCH  26  27
ATOM     27  O   UNL     1      -8.071   0.181 125.435  0.00  0.00    +0.000 OA
ATOM     28  C   UNL     1      -8.986   0.973 126.172  0.00  0.00    +0.000 C 
ENDBRANCH  26  27
ENDBRANCH  18  21
ENDBRANCH   6  15
TORSDOF 5
ENDMDL
MODEL 3
REMARK VINA RESULT:      -7.9      6.553      9.881
REMARK  Name = CHEMBL467184
REMARK  8 active torsions:
REMARK  status: ('A' for Active; 'I' for Inactive)
REMARK    1  A    between atoms: C_1  and  O_2
REMARK    2  A    between atoms: O_2  and  C_3
REMARK    3  A    between atoms: C_6  and  N_7
REMARK    4  A    between atoms: C_8  and  C_9
REMARK    5  A    between atoms: C_12  and  C_13
REMARK    6  A    between atoms: C_16  and  C_17
REMARK    7  A    between atoms: C_22  and  O_23
REMARK    8  A    between atoms: O_23  and  C_24
REMARK                            x       y       z     vdW  Elec       q    Type
REMARK                         _______ _______ _______ _____ _____    ______ ____
ROOT
ATOM      1  N   UNL     1      -6.723   2.886 132.011  0.00  0.00    +0.000 N 
ATOM      2  C   UNL     1      -6.313   1.729 132.663  0.00  0.00    +0.000 A 
ATOM      3  C   UNL     1      -4.966   1.112 132.696  0.00  0.00    +0.000 C 
ATOM      4  N   UNL     1      -7.307   1.288 133.417  0.00  0.00    +0.000 NA
ATOM      5  N   UNL     1      -8.369   2.129 133.281  0.00  0.00    +0.000 NA
ATOM      6  C   UNL     1      -8.037   3.078 132.420  0.00  0.00    +0.000 A 
ENDROOT
BRANCH   1  10
ATOM      7  C   UNL     1      -4.618   5.577 129.480  0.00  0.00    +0.000 A 
ATOM      8  C   UNL     1      -5.223   4.429 128.954  0.00  0.00    +0.000 A 
ATOM      9  C   UNL     1      -5.918   3.523 129.778  0.00  0.00    +0.000 A 
ATOM     10  C   UNL     1      -5.990   3.760 131.151  0.00  0.00    +0.000 A 
ATOM     11  C   UNL     1      -5.448   4.948 131.669  0.00  0.00    +0.000 A 
ATOM     12  C   UNL     1      -4.750   5.842 130.840  0.00  0.00    +0.000 A 
BRANCH   7  14
ATOM     13  C   UNL     1      -2.723   6.068 128.116  0.00  0.00    +0.000 C 
ATOM     14  O   UNL     1      -4.032   6.413 128.567  0.00  0.00    +0.000 OA
ENDBRANCH   7  14
ENDBRANCH   1  10
BRANCH   6  15
ATOM     15  C   UNL     1      -8.943   4.091 131.904  0.00  0.00    +0.000 A 
ATOM     16  C   UNL     1      -9.731   3.848 130.777  0.00  0.00    +0.000 A 
ATOM     17  C   UNL     1     -10.530   4.864 130.253  0.00  0.00    +0.000 A 
ATOM     18  C   UNL     1     -10.641   6.103 130.909  0.00  0.00    +0.000 A 
ATOM     19  C   UNL     1      -9.961   6.278 132.118  0.00  0.00    +0.000 A 
ATOM     20  C   UNL     1      -9.032   5.334 132.542  0.00  0.00    +0.000 A 
BRANCH  18  21
ATOM     21  C   UNL     1     -11.376   7.214 130.292  0.00  0.00    +0.000 A 
ATOM     22  C   UNL     1     -12.444   7.761 131.041  0.00  0.00    +0.000 A 
ATOM     23  C   UNL     1     -13.263   8.768 130.531  0.00  0.00    +0.000 A 
ATOM     24  C   UNL     1     -12.995   9.298 129.279  0.00  0.00    +0.000 A 
ATOM     25  C   UNL     1     -11.935   8.790 128.526  0.00  0.00    +0.000 A 
ATOM     26  C   UNL     1     -11.127   7.739 129.001  0.00  0.00    +0.000 A 
BRANCH  26  27
ATOM     27  O   UNL     1     -10.203   7.366 128.055  0.00  0.00    +0.000 OA
ATOM     28  C   UNL     1     -10.563   7.275 126.687  0.00  0.00    +0.000 C 
ENDBRANCH  26  27
ENDBRANCH  18  21
ENDBRANCH   6  15
TORSDOF 5
ENDMDL
MODEL 4
REMARK VINA RESULT:      -7.9      2.690      4.180
REMARK  Name = CHEMBL467184
REMARK  8 active torsions:
REMARK  status: ('A' for Active; 'I' for Inactive)
REMARK    1  A    between atoms: C_1  and  O_2
REMARK    2  A    between atoms: O_2  and  C_3
REMARK    3  A    between atoms: C_6  and  N_7
REMARK    4  A    between atoms: C_8  and  C_9
REMARK    5  A    between atoms: C_12  and  C_13
REMARK    6  A    between atoms: C_16  and  C_17
REMARK    7  A    between atoms: C_22  and  O_23
REMARK    8  A    between atoms: O_23  and  C_24
REMARK                            x       y       z     vdW  Elec       q    Type
REMARK                         _______ _______ _______ _____ _____    ______ ____
ROOT
ATOM      1  N   UNL     1      -7.900   0.049 125.675  0.00  0.00    +0.000 N 
ATOM      2  C   UNL     1      -8.353   1.182 125.008  0.00  0.00    +0.000 A 
ATOM      3  C   UNL     1      -8.350   1.464 123.553  0.00  0.00    +0.000 C 
ATOM      4  N   UNL     1      -8.955   1.978 125.877  0.00  0.00    +0.000 NA
ATOM      5  N   UNL     1      -8.914   1.396 127.108  0.00  0.00    +0.000 NA
ATOM      6  C   UNL     1      -8.261   0.249 127.002  0.00  0.00    +0.000 A 
ENDROOT
BRANCH   1  10
ATOM      7  C   UNL     1      -6.051  -3.494 124.224  0.00  0.00    +0.000 A 
ATOM      8  C   UNL     1      -5.288  -2.490 124.832  0.00  0.00    +0.000 A 
ATOM      9  C   UNL     1      -5.883  -1.306 125.311  0.00  0.00    +0.000 A 
ATOM     10  C   UNL     1      -7.257  -1.119 125.162  0.00  0.00    +0.000 A 
ATOM     11  C   UNL     1      -8.034  -2.156 124.620  0.00  0.00    +0.000 A 
ATOM     12  C   UNL     1      -7.430  -3.330 124.137  0.00  0.00    +0.000 A 
BRANCH   7  14
ATOM     13  C   UNL     1      -3.987  -4.473 123.539  0.00  0.00    +0.000 C 
ATOM     14  O   UNL     1      -5.368  -4.625 123.862  0.00  0.00    +0.000 OA
ENDBRANCH   7  14
ENDBRANCH   1  10
BRANCH   6  15
ATOM     15  C   UNL     1      -7.887  -0.605 128.117  0.00  0.00    +0.000 A 
ATOM     16  C   UNL     1      -7.203  -0.092 129.221  0.00  0.00    +0.000 A 
ATOM     17  C   UNL     1      -6.783  -0.948 130.240  0.00  0.00    +0.000 A 
ATOM     18  C   UNL     1      -7.135  -2.309 130.227  0.00  0.00    +0.000 A 
ATOM     19  C   UNL     1      -7.949  -2.775 129.188  0.00  0.00    +0.000 A 
ATOM     20  C   UNL     1      -8.215  -1.965 128.090  0.00  0.00    +0.000 A 
BRANCH  18  21
ATOM     21  C   UNL     1      -6.587  -3.234 131.226  0.00  0.00    +0.000 A 
ATOM     22  C   UNL     1      -7.164  -3.188 132.517  0.00  0.00    +0.000 A 
ATOM     23  C   UNL     1      -6.679  -3.963 133.570  0.00  0.00    +0.000 A 
ATOM     24  C   UNL     1      -5.643  -4.854 133.342  0.00  0.00    +0.000 A 
ATOM     25  C   UNL     1      -5.068  -4.934 132.072  0.00  0.00    +0.000 A 
ATOM     26  C   UNL     1      -5.508  -4.124 131.008  0.00  0.00    +0.000 A 
BRANCH  26  27
ATOM     27  O   UNL     1      -4.743  -4.332 129.886  0.00  0.00    +0.000 OA
ATOM     28  C   UNL     1      -3.642  -3.490 129.592  0.00  0.00    +0.000 C 
ENDBRANCH  26  27
ENDBRANCH  18  21
ENDBRANCH   6  15
TORSDOF 5
ENDMDL
MODEL 5
REMARK VINA RESULT:      -7.7      5.025      6.930
REMARK  Name = CHEMBL467184
REMARK  8 active torsions:
REMARK  status: ('A' for Active; 'I' for Inactive)
REMARK    1  A    between atoms: C_1  and  O_2
REMARK    2  A    between atoms: O_2  and  C_3
REMARK    3  A    between atoms: C_6  and  N_7
REMARK    4  A    between atoms: C_8  and  C_9
REMARK    5  A    between atoms: C_12  and  C_13
REMARK    6  A    between atoms: C_16  and  C_17
REMARK    7  A    between atoms: C_22  and  O_23
REMARK    8  A    between atoms: O_23  and  C_24
REMARK                            x       y       z     vdW  Elec       q    Type
REMARK                         _______ _______ _______ _____ _____    ______ ____
ROOT
ATOM      1  N   UNL     1      -9.973   4.588 131.532  0.00  0.00    +0.000 N 
ATOM      2  C   UNL     1     -11.015   5.445 131.195  0.00  0.00    +0.000 A 
ATOM      3  C   UNL     1     -11.278   6.819 131.684  0.00  0.00    +0.000 C 
ATOM      4  N   UNL     1     -11.715   4.902 130.213  0.00  0.00    +0.000 NA
ATOM      5  N   UNL     1     -11.160   3.702 129.888  0.00  0.00    +0.000 NA
ATOM      6  C   UNL     1     -10.128   3.492 130.690  0.00  0.00    +0.000 A 
ENDROOT
BRANCH   1  10
ATOM      7  C   UNL     1      -6.896   5.160 134.410  0.00  0.00    +0.000 A 
ATOM      8  C   UNL     1      -6.776   5.696 133.122  0.00  0.00    +0.000 A 
ATOM      9  C   UNL     1      -7.782   5.510 132.154  0.00  0.00    +0.000 A 
ATOM     10  C   UNL     1      -8.914   4.761 132.475  0.00  0.00    +0.000 A 
ATOM     11  C   UNL     1      -9.070   4.286 133.787  0.00  0.00    +0.000 A 
ATOM     12  C   UNL     1      -8.057   4.470 134.744  0.00  0.00    +0.000 A 
BRANCH   7  14
ATOM     13  C   UNL     1      -4.721   6.085 134.731  0.00  0.00    +0.000 C 
ATOM     14  O   UNL     1      -5.884   5.468 135.280  0.00  0.00    +0.000 OA
ENDBRANCH   7  14
ENDBRANCH   1  10
BRANCH   6  15
ATOM     15  C   UNL     1      -9.354   2.263 130.753  0.00  0.00    +0.000 A 
ATOM     16  C   UNL     1      -8.281   2.042 129.888  0.00  0.00    +0.000 A 
ATOM     17  C   UNL     1      -7.606   0.820 129.914  0.00  0.00    +0.000 A 
ATOM     18  C   UNL     1      -7.920  -0.155 130.877  0.00  0.00    +0.000 A 
ATOM     19  C   UNL     1      -8.897   0.144 131.832  0.00  0.00    +0.000 A 
ATOM     20  C   UNL     1      -9.685   1.282 131.695  0.00  0.00    +0.000 A 
BRANCH  18  21
ATOM     21  C   UNL     1      -7.303  -1.486 130.823  0.00  0.00    +0.000 A 
ATOM     22  C   UNL     1      -7.671  -2.312 129.736  0.00  0.00    +0.000 A 
ATOM     23  C   UNL     1      -7.210  -3.623 129.616  0.00  0.00    +0.000 A 
ATOM     24  C   UNL     1      -6.317  -4.121 130.551  0.00  0.00    +0.000 A 
ATOM     25  C   UNL     1      -5.923  -3.320 131.623  0.00  0.00    +0.000 A 
ATOM     26  C   UNL     1      -6.415  -2.012 131.791  0.00  0.00    +0.000 A 
BRANCH  26  27
ATOM     27  O   UNL     1      -5.939  -1.456 132.954  0.00  0.00    +0.000 OA
ATOM     28  C   UNL     1      -6.499  -1.807 134.207  0.00  0.00    +0.000 C 
ENDBRANCH  26  27
ENDBRANCH  18  21
ENDBRANCH   6  15
TORSDOF 5
ENDMDL
MODEL 6
REMARK VINA RESULT:      -7.7      1.120      1.892
REMARK  Name = CHEMBL467184
REMARK  8 active torsions:
REMARK  status: ('A' for Active; 'I' for Inactive)
REMARK    1  A    between atoms: C_1  and  O_2
REMARK    2  A    between atoms: O_2  and  C_3
REMARK    3  A    between atoms: C_6  and  N_7
REMARK    4  A    between atoms: C_8  and  C_9
REMARK    5  A    between atoms: C_12  and  C_13
REMARK    6  A    between atoms: C_16  and  C_17
REMARK    7  A    between atoms: C_22  and  O_23
REMARK    8  A    between atoms: O_23  and  C_24
REMARK                            x       y       z     vdW  Elec       q    Type
REMARK                         _______ _______ _______ _____ _____    ______ ____
ROOT
ATOM      1  N   UNL     1      -8.841  -1.025 124.579  0.00  0.00    +0.000 N 
ATOM      2  C   UNL     1      -9.516  -1.194 123.376  0.00  0.00    +0.000 A 
ATOM      3  C   UNL     1      -9.823  -0.182 122.337  0.00  0.00    +0.000 C 
ATOM      4  N   UNL     1      -9.748  -2.483 123.192  0.00  0.00    +0.000 NA
ATOM      5  N   UNL     1      -9.239  -3.176 124.247  0.00  0.00    +0.000 NA
ATOM      6  C   UNL     1      -8.713  -2.309 125.098  0.00  0.00    +0.000 A 
ENDROOT
BRANCH   1  10
ATOM      7  C   UNL     1      -7.177   2.447 126.385  0.00  0.00    +0.000 A 
ATOM      8  C   UNL     1      -8.383   1.908 126.852  0.00  0.00    +0.000 A 
ATOM      9  C   UNL     1      -8.952   0.763 126.261  0.00  0.00    +0.000 A 
ATOM     10  C   UNL     1      -8.315   0.162 125.176  0.00  0.00    +0.000 A 
ATOM     11  C   UNL     1      -7.069   0.656 124.754  0.00  0.00    +0.000 A 
ATOM     12  C   UNL     1      -6.513   1.803 125.345  0.00  0.00    +0.000 A 
BRANCH   7  14
ATOM     13  C   UNL     1      -5.833   4.417 126.387  0.00  0.00    +0.000 C 
ATOM     14  O   UNL     1      -6.693   3.519 127.087  0.00  0.00    +0.000 OA
ENDBRANCH   7  14
ENDBRANCH   1  10
BRANCH   6  15
ATOM     15  C   UNL     1      -8.190  -2.639 126.414  0.00  0.00    +0.000 A 
ATOM     16  C   UNL     1      -8.921  -3.431 127.302  0.00  0.00    +0.000 A 
ATOM     17  C   UNL     1      -8.433  -3.666 128.588  0.00  0.00    +0.000 A 
ATOM     18  C   UNL     1      -7.159  -3.207 128.970  0.00  0.00    +0.000 A 
ATOM     19  C   UNL     1      -6.379  -2.545 128.017  0.00  0.00    +0.000 A 
ATOM     20  C   UNL     1      -6.934  -2.160 126.802  0.00  0.00    +0.000 A 
BRANCH  18  21
ATOM     21  C   UNL     1      -6.701  -3.340 130.358  0.00  0.00    +0.000 A 
ATOM     22  C   UNL     1      -7.575  -2.864 131.363  0.00  0.00    +0.000 A 
ATOM     23  C   UNL     1      -7.220  -2.867 132.711  0.00  0.00    +0.000 A 
ATOM     24  C   UNL     1      -6.003  -3.406 133.097  0.00  0.00    +0.000 A 
ATOM     25  C   UNL     1      -5.130  -3.901 132.127  0.00  0.00    +0.000 A 
ATOM     26  C   UNL     1      -5.446  -3.861 130.755  0.00  0.00    +0.000 A 
BRANCH  26  27
ATOM     27  O   UNL     1      -4.403  -4.337 129.999  0.00  0.00    +0.000 OA
ATOM     28  C   UNL     1      -3.322  -3.492 129.642  0.00  0.00    +0.000 C 
ENDBRANCH  26  27
ENDBRANCH  18  21
ENDBRANCH   6  15
TORSDOF 5
ENDMDL
MODEL 7
REMARK VINA RESULT:      -7.6      5.348      8.592
REMARK  Name = CHEMBL467184
REMARK  8 active torsions:
REMARK  status: ('A' for Active; 'I' for Inactive)
REMARK    1  A    between atoms: C_1  and  O_2
REMARK    2  A    between atoms: O_2  and  C_3
REMARK    3  A    between atoms: C_6  and  N_7
REMARK    4  A    between atoms: C_8  and  C_9
REMARK    5  A    between atoms: C_12  and  C_13
REMARK    6  A    between atoms: C_16  and  C_17
REMARK    7  A    between atoms: C_22  and  O_23
REMARK    8  A    between atoms: O_23  and  C_24
REMARK                            x       y       z     vdW  Elec       q    Type
REMARK                         _______ _______ _______ _____ _____    ______ ____
ROOT
ATOM      1  N   UNL     1      -8.591   3.715 131.480  0.00  0.00    +0.000 N 
ATOM      2  C   UNL     1      -8.430   3.328 132.806  0.00  0.00    +0.000 A 
ATOM      3  C   UNL     1      -9.031   3.924 134.023  0.00  0.00    +0.000 C 
ATOM      4  N   UNL     1      -7.737   2.202 132.843  0.00  0.00    +0.000 NA
ATOM      5  N   UNL     1      -7.435   1.830 131.569  0.00  0.00    +0.000 NA
ATOM      6  C   UNL     1      -7.922   2.743 130.744  0.00  0.00    +0.000 A 
ENDROOT
BRANCH   1  10
ATOM      7  C   UNL     1     -10.741   7.044 129.940  0.00  0.00    +0.000 A 
ATOM      8  C   UNL     1     -11.355   5.791 130.059  0.00  0.00    +0.000 A 
ATOM      9  C   UNL     1     -10.656   4.676 130.560  0.00  0.00    +0.000 A 
ATOM     10  C   UNL     1      -9.318   4.813 130.928  0.00  0.00    +0.000 A 
ATOM     11  C   UNL     1      -8.722   6.085 130.879  0.00  0.00    +0.000 A 
ATOM     12  C   UNL     1      -9.426   7.190 130.370  0.00  0.00    +0.000 A 
BRANCH   7  14
ATOM     13  C   UNL     1     -11.378   8.491 128.153  0.00  0.00    +0.000 C 
ATOM     14  O   UNL     1     -11.546   8.063 129.504  0.00  0.00    +0.000 OA
ENDBRANCH   7  14
ENDBRANCH   1  10
BRANCH   6  15
ATOM     15  C   UNL     1      -7.694   2.780 129.308  0.00  0.00    +0.000 A 
ATOM     16  C   UNL     1      -6.822   3.711 128.741  0.00  0.00    +0.000 A 
ATOM     17  C   UNL     1      -6.683   3.780 127.353  0.00  0.00    +0.000 A 
ATOM     18  C   UNL     1      -7.326   2.848 126.519  0.00  0.00    +0.000 A 
ATOM     19  C   UNL     1      -8.077   1.829 127.115  0.00  0.00    +0.000 A 
ATOM     20  C   UNL     1      -8.356   1.870 128.477  0.00  0.00    +0.000 A 
BRANCH  18  21
ATOM     21  C   UNL     1      -7.285   2.998 125.060  0.00  0.00    +0.000 A 
ATOM     22  C   UNL     1      -6.052   3.404 124.497  0.00  0.00    +0.000 A 
ATOM     23  C   UNL     1      -5.909   3.653 123.133  0.00  0.00    +0.000 A 
ATOM     24  C   UNL     1      -6.984   3.440 122.284  0.00  0.00    +0.000 A 
ATOM     25  C   UNL     1      -8.207   3.021 122.809  0.00  0.00    +0.000 A 
ATOM     26  C   UNL     1      -8.387   2.813 124.190  0.00  0.00    +0.000 A 
BRANCH  26  27
ATOM     27  O   UNL     1      -9.689   2.476 124.468  0.00  0.00    +0.000 OA
ATOM     28  C   UNL     1     -10.203   1.206 124.104  0.00  0.00    +0.000 C 
ENDBRANCH  26  27
ENDBRANCH  18  21
ENDBRANCH   6  15
TORSDOF 5
ENDMDL
MODEL 8
REMARK VINA RESULT:      -7.6      1.454      1.776
REMARK  Name = CHEMBL467184
REMARK  8 active torsions:
REMARK  status: ('A' for Active; 'I' for Inactive)
REMARK    1  A    between atoms: C_1  and  O_2
REMARK    2  A    between atoms: O_2  and  C_3
REMARK    3  A    between atoms: C_6  and  N_7
REMARK    4  A    between atoms: C_8  and  C_9
REMARK    5  A    between atoms: C_12  and  C_13
REMARK    6  A    between atoms: C_16  and  C_17
REMARK    7  A    between atoms: C_22  and  O_23
REMARK    8  A    between atoms: O_23  and  C_24
REMARK                            x       y       z     vdW  Elec       q    Type
REMARK                         _______ _______ _______ _____ _____    ______ ____
ROOT
ATOM      1  N   UNL     1      -8.457  -0.221 124.671  0.00  0.00    +0.000 N 
ATOM      2  C   UNL     1      -9.296  -0.376 123.574  0.00  0.00    +0.000 A 
ATOM      3  C   UNL     1      -9.785   0.656 122.629  0.00  0.00    +0.000 C 
ATOM      4  N   UNL     1      -9.511  -1.667 123.377  0.00  0.00    +0.000 NA
ATOM      5  N   UNL     1      -8.830  -2.374 124.321  0.00  0.00    +0.000 NA
ATOM      6  C   UNL     1      -8.214  -1.515 125.117  0.00  0.00    +0.000 A 
ENDROOT
BRANCH   1  10
ATOM      7  C   UNL     1      -6.865   3.363 126.313  0.00  0.00    +0.000 A 
ATOM      8  C   UNL     1      -6.311   2.801 125.156  0.00  0.00    +0.000 A 
ATOM      9  C   UNL     1      -6.821   1.611 124.603  0.00  0.00    +0.000 A 
ATOM     10  C   UNL     1      -7.887   0.964 125.228  0.00  0.00    +0.000 A 
ATOM     11  C   UNL     1      -8.491   1.565 126.345  0.00  0.00    +0.000 A 
ATOM     12  C   UNL     1      -7.970   2.749 126.894  0.00  0.00    +0.000 A 
BRANCH   7  14
ATOM     13  C   UNL     1      -4.908   4.611 126.863  0.00  0.00    +0.000 C 
ATOM     14  O   UNL     1      -6.326   4.557 126.712  0.00  0.00    +0.000 OA
ENDBRANCH   7  14
ENDBRANCH   1  10
BRANCH   6  15
ATOM     15  C   UNL     1      -7.492  -1.869 126.329  0.00  0.00    +0.000 A 
ATOM     16  C   UNL     1      -6.097  -1.841 126.372  0.00  0.00    +0.000 A 
ATOM     17  C   UNL     1      -5.427  -2.263 127.521  0.00  0.00    +0.000 A 
ATOM     18  C   UNL     1      -6.140  -2.614 128.682  0.00  0.00    +0.000 A 
ATOM     19  C   UNL     1      -7.533  -2.492 128.668  0.00  0.00    +0.000 A 
ATOM     20  C   UNL     1      -8.203  -2.244 127.475  0.00  0.00    +0.000 A 
BRANCH  18  21
ATOM     21  C   UNL     1      -5.445  -3.180 129.844  0.00  0.00    +0.000 A 
ATOM     22  C   UNL     1      -5.928  -4.418 130.331  0.00  0.00    +0.000 A 
ATOM     23  C   UNL     1      -5.400  -5.019 131.473  0.00  0.00    +0.000 A 
ATOM     24  C   UNL     1      -4.329  -4.426 132.123  0.00  0.00    +0.000 A 
ATOM     25  C   UNL     1      -3.820  -3.215 131.653  0.00  0.00    +0.000 A 
ATOM     26  C   UNL     1      -4.372  -2.565 130.532  0.00  0.00    +0.000 A 
BRANCH  26  27
ATOM     27  O   UNL     1      -3.750  -1.361 130.310  0.00  0.00    +0.000 OA
ATOM     28  C   UNL     1      -4.246  -0.170 130.898  0.00  0.00    +0.000 C 
ENDBRANCH  26  27
ENDBRANCH  18  21
ENDBRANCH   6  15
TORSDOF 5
ENDMDL
MODEL 9
REMARK VINA RESULT:      -7.5      3.682      7.237
REMARK  Name = CHEMBL467184
REMARK  8 active torsions:
REMARK  status: ('A' for Active; 'I' for Inactive)
REMARK    1  A    between atoms: C_1  and  O_2
REMARK    2  A    between atoms: O_2  and  C_3
REMARK    3  A    between atoms: C_6  and  N_7
REMARK    4  A    between atoms: C_8  and  C_9
REMARK    5  A    between atoms: C_12  and  C_13
REMARK    6  A    between atoms: C_16  and  C_17
REMARK    7  A    between atoms: C_22  and  O_23
REMARK    8  A    between atoms: O_23  and  C_24
REMARK                            x       y       z     vdW  Elec       q    Type
REMARK                         _______ _______ _______ _____ _____    ______ ____
ROOT
ATOM      1  N   UNL     1      -8.472   3.691 129.717  0.00  0.00    +0.000 N 
ATOM      2  C   UNL     1      -9.027   4.937 129.983  0.00  0.00    +0.000 A 
ATOM      3  C   UNL     1      -9.387   5.528 131.294  0.00  0.00    +0.000 C 
ATOM      4  N   UNL     1      -9.070   5.635 128.861  0.00  0.00    +0.000 NA
ATOM      5  N   UNL     1      -8.554   4.880 127.852  0.00  0.00    +0.000 NA
ATOM      6  C   UNL     1      -8.214   3.702 128.350  0.00  0.00    +0.000 A 
ENDROOT
BRANCH   1  10
ATOM      7  C   UNL     1      -7.608   0.546 132.445  0.00  0.00    +0.000 A 
ATOM      8  C   UNL     1      -6.615   1.461 132.073  0.00  0.00    +0.000 A 
ATOM      9  C   UNL     1      -6.881   2.504 131.165  0.00  0.00    +0.000 A 
ATOM     10  C   UNL     1      -8.154   2.620 130.607  0.00  0.00    +0.000 A 
ATOM     11  C   UNL     1      -9.170   1.749 131.035  0.00  0.00    +0.000 A 
ATOM     12  C   UNL     1      -8.893   0.707 131.936  0.00  0.00    +0.000 A 
BRANCH   7  14
ATOM     13  C   UNL     1      -7.476  -1.752 133.073  0.00  0.00    +0.000 C 
ATOM     14  O   UNL     1      -7.243  -0.380 133.386  0.00  0.00    +0.000 OA
ENDBRANCH   7  14
ENDBRANCH   1  10
BRANCH   6  15
ATOM     15  C   UNL     1      -7.751   2.566 127.570  0.00  0.00    +0.000 A 
ATOM     16  C   UNL     1      -6.451   2.521 127.062  0.00  0.00    +0.000 A 
ATOM     17  C   UNL     1      -6.058   1.459 126.247  0.00  0.00    +0.000 A 
ATOM     18  C   UNL     1      -6.919   0.371 126.017  0.00  0.00    +0.000 A 
ATOM     19  C   UNL     1      -8.163   0.362 126.656  0.00  0.00    +0.000 A 
ATOM     20  C   UNL     1      -8.618   1.497 127.319  0.00  0.00    +0.000 A 
BRANCH  18  21
ATOM     21  C   UNL     1      -6.557  -0.680 125.059  0.00  0.00    +0.000 A 
ATOM     22  C   UNL     1      -5.636  -1.657 125.507  0.00  0.00    +0.000 A 
ATOM     23  C   UNL     1      -5.159  -2.662 124.666  0.00  0.00    +0.000 A 
ATOM     24  C   UNL     1      -5.639  -2.753 123.369  0.00  0.00    +0.000 A 
ATOM     25  C   UNL     1      -6.563  -1.814 122.908  0.00  0.00    +0.000 A 
ATOM     26  C   UNL     1      -7.020  -0.761 123.725  0.00  0.00    +0.000 A 
BRANCH  26  27
ATOM     27  O   UNL     1      -7.863   0.069 123.026  0.00  0.00    +0.000 OA
ATOM     28  C   UNL     1      -9.269  -0.061 123.143  0.00  0.00    +0.000 C 
ENDBRANCH  26  27
ENDBRANCH  18  21
ENDBRANCH   6  15
TORSDOF 5
ENDMDL
