MODEL 1
REMARK VINA RESULT:      -7.4      0.000      0.000
REMARK  Name = CHEMBL1093342
REMARK  11 active torsions:
REMARK  status: ('A' for Active; 'I' for Inactive)
REMARK    1  A    between atoms: C_1  and  C_2
REMARK    2  A    between atoms: C_2  and  N_3
REMARK    3  A    between atoms: N_3  and  C_17
REMARK    4  A    between atoms: C_4  and  C_6
REMARK    5  A    between atoms: C_6  and  O_7
REMARK    6  A    between atoms: O_7  and  C_8
REMARK    7  A    between atoms: C_11  and  C_12
REMARK    8  A    between atoms: C_12  and  C_13
REMARK    9  A    between atoms: C_12  and  C_14
REMARK   10  A    between atoms: C_20  and  O_21
REMARK   11  A    between atoms: O_21  and  C_22
REMARK                            x       y       z     vdW  Elec       q    Type
REMARK                         _______ _______ _______ _____ _____    ______ ____
ROOT
ATOM      1  N   UNL     1     -10.174   5.456 131.268  0.00  0.00    +0.000 N 
ATOM      2  C   UNL     1     -10.469   4.144 130.833  0.00  0.00    +0.000 C 
ATOM      3  O   UNL     1     -11.369   3.910 130.010  0.00  0.00    +0.000 OA
ENDROOT
BRANCH   1   4
ATOM      4  C   UNL     1     -11.004   6.531 130.744  0.00  0.00    +0.000 A 
ATOM      5  C   UNL     1     -12.169   6.950 131.390  0.00  0.00    +0.000 A 
ATOM      6  C   UNL     1     -12.898   8.044 130.904  0.00  0.00    +0.000 A 
ATOM      7  C   UNL     1     -12.479   8.687 129.749  0.00  0.00    +0.000 A 
ATOM      8  N   UNL     1     -11.390   8.278 129.070  0.00  0.00    +0.000 NA
ATOM      9  C   UNL     1     -10.677   7.238 129.584  0.00  0.00    +0.000 A 
BRANCH   7  10
ATOM     10  O   UNL     1     -13.094   9.772 129.187  0.00  0.00    +0.000 OA
ATOM     11  C   UNL     1     -13.491  10.811 130.073  0.00  0.00    +0.000 C 
ENDBRANCH   7  10
ENDBRANCH   1   4
BRANCH   1  13
ATOM     12  C   UNL     1      -7.776   6.369 131.708  0.00  0.00    +0.000 C 
ATOM     13  C   UNL     1      -9.122   5.906 132.231  0.00  0.00    +0.000 C 
ENDBRANCH   1  13
BRANCH   2  14
ATOM     14  C   UNL     1      -9.645   2.962 131.358  0.00  0.00    +0.000 C 
BRANCH  14  15
ATOM     15  O   UNL     1      -8.482   2.645 130.611  0.00  0.00    +0.000 OA
BRANCH  15  16
ATOM     16  C   UNL     1      -8.355   1.312 130.317  0.00  0.00    +0.000 A 
ATOM     17  C   UNL     1      -8.555   0.448 131.388  0.00  0.00    +0.000 A 
ATOM     18  C   UNL     1      -8.278  -0.913 131.258  0.00  0.00    +0.000 A 
ATOM     19  C   UNL     1      -7.891  -1.452 130.022  0.00  0.00    +0.000 A 
ATOM     20  C   UNL     1      -7.706  -0.570 128.949  0.00  0.00    +0.000 A 
ATOM     21  C   UNL     1      -7.938   0.799 129.091  0.00  0.00    +0.000 A 
BRANCH  19  22
ATOM     22  C   UNL     1      -7.735  -2.959 129.874  0.00  0.00    +0.000 C 
ATOM     23  C   UNL     1      -8.484  -3.439 128.623  0.00  0.00    +0.000 C 
ATOM     24  C   UNL     1      -6.273  -3.411 129.767  0.00  0.00    +0.000 C 
ENDBRANCH  19  22
ENDBRANCH  15  16
ENDBRANCH  14  15
ENDBRANCH   2  14
TORSDOF 7
ENDMDL
MODEL 2
REMARK VINA RESULT:      -7.4      2.964      4.887
REMARK  Name = CHEMBL1093342
REMARK  11 active torsions:
REMARK  status: ('A' for Active; 'I' for Inactive)
REMARK    1  A    between atoms: C_1  and  C_2
REMARK    2  A    between atoms: C_2  and  N_3
REMARK    3  A    between atoms: N_3  and  C_17
REMARK    4  A    between atoms: C_4  and  C_6
REMARK    5  A    between atoms: C_6  and  O_7
REMARK    6  A    between atoms: O_7  and  C_8
REMARK    7  A    between atoms: C_11  and  C_12
REMARK    8  A    between atoms: C_12  and  C_13
REMARK    9  A    between atoms: C_12  and  C_14
REMARK   10  A    between atoms: C_20  and  O_21
REMARK   11  A    between atoms: O_21  and  C_22
REMARK                            x       y       z     vdW  Elec       q    Type
REMARK                         _______ _______ _______ _____ _____    ______ ____
ROOT
ATOM      1  N   UNL     1      -9.808   5.245 130.231  0.00  0.00    +0.000 N 
ATOM      2  C   UNL     1     -10.349   3.945 130.349  0.00  0.00    +0.000 C 
ATOM      3  O   UNL     1     -11.551   3.711 130.151  0.00  0.00    +0.000 OA
ENDROOT
BRANCH   1   4
ATOM      4  C   UNL     1     -10.735   6.322 129.911  0.00  0.00    +0.000 A 
ATOM      5  C   UNL     1     -11.672   6.792 130.832  0.00  0.00    +0.000 A 
ATOM      6  C   UNL     1     -12.491   7.886 130.519  0.00  0.00    +0.000 A 
ATOM      7  C   UNL     1     -12.395   8.477 129.268  0.00  0.00    +0.000 A 
ATOM      8  N   UNL     1     -11.539   8.018 128.335  0.00  0.00    +0.000 NA
ATOM      9  C   UNL     1     -10.727   6.979 128.677  0.00  0.00    +0.000 A 
BRANCH   7  10
ATOM     10  O   UNL     1     -13.125   9.557 128.851  0.00  0.00    +0.000 OA
ATOM     11  C   UNL     1     -13.362  10.577 129.812  0.00  0.00    +0.000 C 
ENDBRANCH   7  10
ENDBRANCH   1   4
BRANCH   1  13
ATOM     12  C   UNL     1      -8.016   6.491 131.650  0.00  0.00    +0.000 C 
ATOM     13  C   UNL     1      -8.393   5.690 130.419  0.00  0.00    +0.000 C 
ENDBRANCH   1  13
BRANCH   2  14
ATOM     14  C   UNL     1      -9.432   2.767 130.702  0.00  0.00    +0.000 C 
BRANCH  14  15
ATOM     15  O   UNL     1      -9.576   2.250 132.016  0.00  0.00    +0.000 OA
BRANCH  15  16
ATOM     16  C   UNL     1      -8.730   2.816 132.934  0.00  0.00    +0.000 A 
ATOM     17  C   UNL     1      -9.325   3.718 133.810  0.00  0.00    +0.000 A 
ATOM     18  C   UNL     1      -8.542   4.491 134.667  0.00  0.00    +0.000 A 
ATOM     19  C   UNL     1      -7.154   4.303 134.735  0.00  0.00    +0.000 A 
ATOM     20  C   UNL     1      -6.570   3.381 133.855  0.00  0.00    +0.000 A 
ATOM     21  C   UNL     1      -7.348   2.641 132.964  0.00  0.00    +0.000 A 
BRANCH  19  22
ATOM     22  C   UNL     1      -6.343   5.056 135.780  0.00  0.00    +0.000 C 
ATOM     23  C   UNL     1      -5.248   5.884 135.093  0.00  0.00    +0.000 C 
ATOM     24  C   UNL     1      -7.191   5.996 136.646  0.00  0.00    +0.000 C 
ENDBRANCH  19  22
ENDBRANCH  15  16
ENDBRANCH  14  15
ENDBRANCH   2  14
TORSDOF 7
ENDMDL
MODEL 3
REMARK VINA RESULT:      -7.0      2.877      4.005
REMARK  Name = CHEMBL1093342
REMARK  11 active torsions:
REMARK  status: ('A' for Active; 'I' for Inactive)
REMARK    1  A    between atoms: C_1  and  C_2
REMARK    2  A    between atoms: C_2  and  N_3
REMARK    3  A    between atoms: N_3  and  C_17
REMARK    4  A    between atoms: C_4  and  C_6
REMARK    5  A    between atoms: C_6  and  O_7
REMARK    6  A    between atoms: O_7  and  C_8
REMARK    7  A    between atoms: C_11  and  C_12
REMARK    8  A    between atoms: C_12  and  C_13
REMARK    9  A    between atoms: C_12  and  C_14
REMARK   10  A    between atoms: C_20  and  O_21
REMARK   11  A    between atoms: O_21  and  C_22
REMARK                            x       y       z     vdW  Elec       q    Type
REMARK                         _______ _______ _______ _____ _____    ______ ____
ROOT
ATOM      1  N   UNL     1     -10.080   5.678 131.063  0.00  0.00    +0.000 N 
ATOM      2  C   UNL     1     -10.409   4.342 130.738  0.00  0.00    +0.000 C 
ATOM      3  O   UNL     1     -11.389   4.059 130.031  0.00  0.00    +0.000 OA
ENDROOT
BRANCH   1   4
ATOM      4  C   UNL     1     -10.972   6.719 130.572  0.00  0.00    +0.000 A 
ATOM      5  C   UNL     1     -12.124   7.096 131.264  0.00  0.00    +0.000 A 
ATOM      6  C   UNL     1     -12.914   8.160 130.806  0.00  0.00    +0.000 A 
ATOM      7  C   UNL     1     -12.567   8.814 129.633  0.00  0.00    +0.000 A 
ATOM      8  N   UNL     1     -11.492   8.444 128.911  0.00  0.00    +0.000 NA
ATOM      9  C   UNL     1     -10.719   7.434 129.398  0.00  0.00    +0.000 A 
BRANCH   7  10
ATOM     10  O   UNL     1     -13.246   9.872 129.095  0.00  0.00    +0.000 OA
ATOM     11  C   UNL     1     -13.506  10.971 129.959  0.00  0.00    +0.000 C 
ENDBRANCH   7  10
ENDBRANCH   1   4
BRANCH   1  13
ATOM     12  C   UNL     1      -7.712   6.752 131.186  0.00  0.00    +0.000 C 
ATOM     13  C   UNL     1      -8.936   6.186 131.881  0.00  0.00    +0.000 C 
ENDBRANCH   1  13
BRANCH   2  14
ATOM     14  C   UNL     1      -9.523   3.195 131.238  0.00  0.00    +0.000 C 
BRANCH  14  15
ATOM     15  O   UNL     1      -8.772   2.520 130.241  0.00  0.00    +0.000 OA
BRANCH  15  16
ATOM     16  C   UNL     1      -7.543   3.076 129.998  0.00  0.00    +0.000 A 
ATOM     17  C   UNL     1      -6.667   3.074 131.078  0.00  0.00    +0.000 A 
ATOM     18  C   UNL     1      -5.459   3.769 131.009  0.00  0.00    +0.000 A 
ATOM     19  C   UNL     1      -5.059   4.395 129.819  0.00  0.00    +0.000 A 
ATOM     20  C   UNL     1      -5.946   4.377 128.735  0.00  0.00    +0.000 A 
ATOM     21  C   UNL     1      -7.176   3.722 128.819  0.00  0.00    +0.000 A 
BRANCH  19  22
ATOM     22  C   UNL     1      -3.674   5.021 129.728  0.00  0.00    +0.000 C 
ATOM     23  C   UNL     1      -2.875   4.706 131.000  0.00  0.00    +0.000 C 
ATOM     24  C   UNL     1      -2.868   4.538 128.516  0.00  0.00    +0.000 C 
ENDBRANCH  19  22
ENDBRANCH  15  16
ENDBRANCH  14  15
ENDBRANCH   2  14
TORSDOF 7
ENDMDL
MODEL 4
REMARK VINA RESULT:      -6.9      6.140      7.888
REMARK  Name = CHEMBL1093342
REMARK  11 active torsions:
REMARK  status: ('A' for Active; 'I' for Inactive)
REMARK    1  A    between atoms: C_1  and  C_2
REMARK    2  A    between atoms: C_2  and  N_3
REMARK    3  A    between atoms: N_3  and  C_17
REMARK    4  A    between atoms: C_4  and  C_6
REMARK    5  A    between atoms: C_6  and  O_7
REMARK    6  A    between atoms: O_7  and  C_8
REMARK    7  A    between atoms: C_11  and  C_12
REMARK    8  A    between atoms: C_12  and  C_13
REMARK    9  A    between atoms: C_12  and  C_14
REMARK   10  A    between atoms: C_20  and  O_21
REMARK   11  A    between atoms: O_21  and  C_22
REMARK                            x       y       z     vdW  Elec       q    Type
REMARK                         _______ _______ _______ _____ _____    ______ ____
ROOT
ATOM      1  N   UNL     1      -6.658   2.862 125.102  0.00  0.00    +0.000 N 
ATOM      2  C   UNL     1      -7.757   3.360 125.839  0.00  0.00    +0.000 C 
ATOM      3  O   UNL     1      -8.585   4.139 125.341  0.00  0.00    +0.000 OA
ENDROOT
BRANCH   1   4
ATOM      4  C   UNL     1      -6.506   3.339 123.734  0.00  0.00    +0.000 A 
ATOM      5  C   UNL     1      -5.415   4.114 123.338  0.00  0.00    +0.000 A 
ATOM      6  C   UNL     1      -5.256   4.485 121.995  0.00  0.00    +0.000 A 
ATOM      7  C   UNL     1      -6.215   4.112 121.064  0.00  0.00    +0.000 A 
ATOM      8  N   UNL     1      -7.307   3.410 121.420  0.00  0.00    +0.000 NA
ATOM      9  C   UNL     1      -7.418   3.028 122.723  0.00  0.00    +0.000 A 
BRANCH   7  10
ATOM     10  O   UNL     1      -6.164   4.399 119.727  0.00  0.00    +0.000 OA
ATOM     11  C   UNL     1      -5.456   5.573 119.351  0.00  0.00    +0.000 C 
ENDBRANCH   7  10
ENDBRANCH   1   4
BRANCH   1  13
ATOM     12  C   UNL     1      -4.439   2.423 126.389  0.00  0.00    +0.000 C 
ATOM     13  C   UNL     1      -5.590   1.913 125.543  0.00  0.00    +0.000 C 
ENDBRANCH   1  13
BRANCH   2  14
ATOM     14  C   UNL     1      -7.967   2.913 127.290  0.00  0.00    +0.000 C 
BRANCH  14  15
ATOM     15  O   UNL     1      -8.982   1.942 127.493  0.00  0.00    +0.000 OA
BRANCH  15  16
ATOM     16  C   UNL     1      -8.706   0.722 126.935  0.00  0.00    +0.000 A 
ATOM     17  C   UNL     1      -9.439   0.412 125.795  0.00  0.00    +0.000 A 
ATOM     18  C   UNL     1      -9.379  -0.868 125.242  0.00  0.00    +0.000 A 
ATOM     19  C   UNL     1      -8.504  -1.833 125.762  0.00  0.00    +0.000 A 
ATOM     20  C   UNL     1      -7.761  -1.502 126.903  0.00  0.00    +0.000 A 
ATOM     21  C   UNL     1      -7.856  -0.237 127.485  0.00  0.00    +0.000 A 
BRANCH  19  22
ATOM     22  C   UNL     1      -8.352  -3.171 125.053  0.00  0.00    +0.000 C 
ATOM     23  C   UNL     1      -9.367  -3.270 123.905  0.00  0.00    +0.000 C 
ATOM     24  C   UNL     1      -6.948  -3.400 124.480  0.00  0.00    +0.000 C 
ENDBRANCH  19  22
ENDBRANCH  15  16
ENDBRANCH  14  15
ENDBRANCH   2  14
TORSDOF 7
ENDMDL
MODEL 5
REMARK VINA RESULT:      -6.9      6.560      8.244
REMARK  Name = CHEMBL1093342
REMARK  11 active torsions:
REMARK  status: ('A' for Active; 'I' for Inactive)
REMARK    1  A    between atoms: C_1  and  C_2
REMARK    2  A    between atoms: C_2  and  N_3
REMARK    3  A    between atoms: N_3  and  C_17
REMARK    4  A    between atoms: C_4  and  C_6
REMARK    5  A    between atoms: C_6  and  O_7
REMARK    6  A    between atoms: O_7  and  C_8
REMARK    7  A    between atoms: C_11  and  C_12
REMARK    8  A    between atoms: C_12  and  C_13
REMARK    9  A    between atoms: C_12  and  C_14
REMARK   10  A    between atoms: C_20  and  O_21
REMARK   11  A    between atoms: O_21  and  C_22
REMARK                            x       y       z     vdW  Elec       q    Type
REMARK                         _______ _______ _______ _____ _____    ______ ____
ROOT
ATOM      1  N   UNL     1      -7.697   2.520 123.788  0.00  0.00    +0.000 N 
ATOM      2  C   UNL     1      -7.500   1.124 123.898  0.00  0.00    +0.000 C 
ATOM      3  O   UNL     1      -6.787   0.494 123.101  0.00  0.00    +0.000 OA
ENDROOT
BRANCH   1   4
ATOM      4  C   UNL     1      -7.061   3.192 122.663  0.00  0.00    +0.000 A 
ATOM      5  C   UNL     1      -7.671   3.278 121.411  0.00  0.00    +0.000 A 
ATOM      6  C   UNL     1      -7.069   4.005 120.374  0.00  0.00    +0.000 A 
ATOM      7  C   UNL     1      -5.838   4.608 120.587  0.00  0.00    +0.000 A 
ATOM      8  N   UNL     1      -5.195   4.503 121.766  0.00  0.00    +0.000 NA
ATOM      9  C   UNL     1      -5.819   3.824 122.769  0.00  0.00    +0.000 A 
BRANCH   7  10
ATOM     10  O   UNL     1      -5.160   5.356 119.663  0.00  0.00    +0.000 OA
ATOM     11  C   UNL     1      -5.931   5.931 118.616  0.00  0.00    +0.000 C 
ENDBRANCH   7  10
ENDBRANCH   1   4
BRANCH   1  13
ATOM     12  C   UNL     1      -7.824   4.166 125.800  0.00  0.00    +0.000 C 
ATOM     13  C   UNL     1      -8.503   3.422 124.666  0.00  0.00    +0.000 C 
ENDBRANCH   1  13
BRANCH   2  14
ATOM     14  C   UNL     1      -8.156   0.351 125.049  0.00  0.00    +0.000 C 
BRANCH  14  15
ATOM     15  O   UNL     1      -8.087  -1.063 124.955  0.00  0.00    +0.000 OA
BRANCH  15  16
ATOM     16  C   UNL     1      -7.707  -1.681 126.118  0.00  0.00    +0.000 A 
ATOM     17  C   UNL     1      -8.622  -2.595 126.629  0.00  0.00    +0.000 A 
ATOM     18  C   UNL     1      -8.432  -3.152 127.894  0.00  0.00    +0.000 A 
ATOM     19  C   UNL     1      -7.270  -2.881 128.630  0.00  0.00    +0.000 A 
ATOM     20  C   UNL     1      -6.351  -1.967 128.097  0.00  0.00    +0.000 A 
ATOM     21  C   UNL     1      -6.563  -1.373 126.852  0.00  0.00    +0.000 A 
BRANCH  19  22
ATOM     22  C   UNL     1      -7.022  -3.613 129.942  0.00  0.00    +0.000 C 
ATOM     23  C   UNL     1      -5.528  -3.942 130.080  0.00  0.00    +0.000 C 
ATOM     24  C   UNL     1      -7.459  -2.814 131.176  0.00  0.00    +0.000 C 
ENDBRANCH  19  22
ENDBRANCH  15  16
ENDBRANCH  14  15
ENDBRANCH   2  14
TORSDOF 7
ENDMDL
MODEL 6
REMARK VINA RESULT:      -6.8      4.141      5.463
REMARK  Name = CHEMBL1093342
REMARK  11 active torsions:
REMARK  status: ('A' for Active; 'I' for Inactive)
REMARK    1  A    between atoms: C_1  and  C_2
REMARK    2  A    between atoms: C_2  and  N_3
REMARK    3  A    between atoms: N_3  and  C_17
REMARK    4  A    between atoms: C_4  and  C_6
REMARK    5  A    between atoms: C_6  and  O_7
REMARK    6  A    between atoms: O_7  and  C_8
REMARK    7  A    between atoms: C_11  and  C_12
REMARK    8  A    between atoms: C_12  and  C_13
REMARK    9  A    between atoms: C_12  and  C_14
REMARK   10  A    between atoms: C_20  and  O_21
REMARK   11  A    between atoms: O_21  and  C_22
REMARK                            x       y       z     vdW  Elec       q    Type
REMARK                         _______ _______ _______ _____ _____    ______ ____
ROOT
ATOM      1  N   UNL     1      -7.929   5.427 131.801  0.00  0.00    +0.000 N 
ATOM      2  C   UNL     1      -6.928   6.370 131.473  0.00  0.00    +0.000 C 
ATOM      3  O   UNL     1      -7.162   7.357 130.758  0.00  0.00    +0.000 OA
ENDROOT
BRANCH   1   4
ATOM      4  C   UNL     1      -9.250   5.633 131.224  0.00  0.00    +0.000 A 
ATOM      5  C   UNL     1     -10.251   6.336 131.897  0.00  0.00    +0.000 A 
ATOM      6  C   UNL     1     -11.483   6.589 131.277  0.00  0.00    +0.000 A 
ATOM      7  C   UNL     1     -11.720   6.099 130.001  0.00  0.00    +0.000 A 
ATOM      8  N   UNL     1     -10.797   5.372 129.342  0.00  0.00    +0.000 NA
ATOM      9  C   UNL     1      -9.594   5.174 129.950  0.00  0.00    +0.000 A 
BRANCH   7  10
ATOM     10  O   UNL     1     -12.871   6.292 129.288  0.00  0.00    +0.000 OA
ATOM     11  C   UNL     1     -12.790   7.168 128.170  0.00  0.00    +0.000 C 
ENDBRANCH   7  10
ENDBRANCH   1   4
BRANCH   1  13
ATOM     12  C   UNL     1      -8.090   4.304 134.144  0.00  0.00    +0.000 C 
ATOM     13  C   UNL     1      -7.817   4.204 132.656  0.00  0.00    +0.000 C 
ENDBRANCH   1  13
BRANCH   2  14
ATOM     14  C   UNL     1      -5.510   6.203 132.033  0.00  0.00    +0.000 C 
BRANCH  14  15
ATOM     15  O   UNL     1      -4.468   6.737 131.232  0.00  0.00    +0.000 OA
BRANCH  15  16
ATOM     16  C   UNL     1      -4.065   5.909 130.217  0.00  0.00    +0.000 A 
ATOM     17  C   UNL     1      -3.881   6.527 128.985  0.00  0.00    +0.000 A 
ATOM     18  C   UNL     1      -3.648   5.765 127.840  0.00  0.00    +0.000 A 
ATOM     19  C   UNL     1      -3.494   4.374 127.924  0.00  0.00    +0.000 A 
ATOM     20  C   UNL     1      -3.668   3.766 129.174  0.00  0.00    +0.000 A 
ATOM     21  C   UNL     1      -3.948   4.523 130.312  0.00  0.00    +0.000 A 
BRANCH  19  22
ATOM     22  C   UNL     1      -3.097   3.585 126.684  0.00  0.00    +0.000 C 
ATOM     23  C   UNL     1      -1.663   3.058 126.837  0.00  0.00    +0.000 C 
ATOM     24  C   UNL     1      -4.023   2.395 126.399  0.00  0.00    +0.000 C 
ENDBRANCH  19  22
ENDBRANCH  15  16
ENDBRANCH  14  15
ENDBRANCH   2  14
TORSDOF 7
ENDMDL
MODEL 7
REMARK VINA RESULT:      -6.7      5.763      7.490
REMARK  Name = CHEMBL1093342
REMARK  11 active torsions:
REMARK  status: ('A' for Active; 'I' for Inactive)
REMARK    1  A    between atoms: C_1  and  C_2
REMARK    2  A    between atoms: C_2  and  N_3
REMARK    3  A    between atoms: N_3  and  C_17
REMARK    4  A    between atoms: C_4  and  C_6
REMARK    5  A    between atoms: C_6  and  O_7
REMARK    6  A    between atoms: O_7  and  C_8
REMARK    7  A    between atoms: C_11  and  C_12
REMARK    8  A    between atoms: C_12  and  C_13
REMARK    9  A    between atoms: C_12  and  C_14
REMARK   10  A    between atoms: C_20  and  O_21
REMARK   11  A    between atoms: O_21  and  C_22
REMARK                            x       y       z     vdW  Elec       q    Type
REMARK                         _______ _______ _______ _____ _____    ______ ____
ROOT
ATOM      1  N   UNL     1      -6.434   3.419 125.405  0.00  0.00    +0.000 N 
ATOM      2  C   UNL     1      -7.575   3.916 126.076  0.00  0.00    +0.000 C 
ATOM      3  O   UNL     1      -8.485   4.510 125.477  0.00  0.00    +0.000 OA
ENDROOT
BRANCH   1   4
ATOM      4  C   UNL     1      -6.343   3.674 123.974  0.00  0.00    +0.000 A 
ATOM      5  C   UNL     1      -5.275   4.377 123.413  0.00  0.00    +0.000 A 
ATOM      6  C   UNL     1      -5.176   4.530 122.023  0.00  0.00    +0.000 A 
ATOM      7  C   UNL     1      -6.171   4.014 121.205  0.00  0.00    +0.000 A 
ATOM      8  N   UNL     1      -7.242   3.377 121.714  0.00  0.00    +0.000 NA
ATOM      9  C   UNL     1      -7.295   3.206 123.064  0.00  0.00    +0.000 A 
BRANCH   7  10
ATOM     10  O   UNL     1      -6.179   4.085 119.839  0.00  0.00    +0.000 OA
ATOM     11  C   UNL     1      -5.637   5.264 119.257  0.00  0.00    +0.000 C 
ENDBRANCH   7  10
ENDBRANCH   1   4
BRANCH   1  13
ATOM     12  C   UNL     1      -5.291   1.159 126.003  0.00  0.00    +0.000 C 
ATOM     13  C   UNL     1      -5.267   2.675 125.971  0.00  0.00    +0.000 C 
ENDBRANCH   1  13
BRANCH   2  14
ATOM     14  C   UNL     1      -7.726   3.699 127.586  0.00  0.00    +0.000 C 
BRANCH  14  15
ATOM     15  O   UNL     1      -8.833   2.907 127.985  0.00  0.00    +0.000 OA
BRANCH  15  16
ATOM     16  C   UNL     1      -8.627   1.557 127.862  0.00  0.00    +0.000 A 
ATOM     17  C   UNL     1      -7.993   0.954 128.942  0.00  0.00    +0.000 A 
ATOM     18  C   UNL     1      -7.568  -0.372 128.861  0.00  0.00    +0.000 A 
ATOM     19  C   UNL     1      -7.860  -1.151 127.732  0.00  0.00    +0.000 A 
ATOM     20  C   UNL     1      -8.511  -0.532 126.656  0.00  0.00    +0.000 A 
ATOM     21  C   UNL     1      -8.894   0.808 126.718  0.00  0.00    +0.000 A 
BRANCH  19  22
ATOM     22  C   UNL     1      -7.512  -2.633 127.729  0.00  0.00    +0.000 C 
ATOM     23  C   UNL     1      -7.006  -3.051 129.117  0.00  0.00    +0.000 C 
ATOM     24  C   UNL     1      -8.694  -3.534 127.351  0.00  0.00    +0.000 C 
ENDBRANCH  19  22
ENDBRANCH  15  16
ENDBRANCH  14  15
ENDBRANCH   2  14
TORSDOF 7
ENDMDL
MODEL 8
REMARK VINA RESULT:      -6.7      3.569      5.798
REMARK  Name = CHEMBL1093342
REMARK  11 active torsions:
REMARK  status: ('A' for Active; 'I' for Inactive)
REMARK    1  A    between atoms: C_1  and  C_2
REMARK    2  A    between atoms: C_2  and  N_3
REMARK    3  A    between atoms: N_3  and  C_17
REMARK    4  A    between atoms: C_4  and  C_6
REMARK    5  A    between atoms: C_6  and  O_7
REMARK    6  A    between atoms: O_7  and  C_8
REMARK    7  A    between atoms: C_11  and  C_12
REMARK    8  A    between atoms: C_12  and  C_13
REMARK    9  A    between atoms: C_12  and  C_14
REMARK   10  A    between atoms: C_20  and  O_21
REMARK   11  A    between atoms: O_21  and  C_22
REMARK                            x       y       z     vdW  Elec       q    Type
REMARK                         _______ _______ _______ _____ _____    ______ ____
ROOT
ATOM      1  N   UNL     1      -8.394   5.344 131.196  0.00  0.00    +0.000 N 
ATOM      2  C   UNL     1      -8.212   5.624 132.570  0.00  0.00    +0.000 C 
ATOM      3  O   UNL     1      -9.058   6.243 133.234  0.00  0.00    +0.000 OA
ENDROOT
BRANCH   1   4
ATOM      4  C   UNL     1      -9.605   5.856 130.570  0.00  0.00    +0.000 A 
ATOM      5  C   UNL     1      -9.713   7.178 130.137  0.00  0.00    +0.000 A 
ATOM      6  C   UNL     1     -10.862   7.615 129.462  0.00  0.00    +0.000 A 
ATOM      7  C   UNL     1     -11.914   6.733 129.261  0.00  0.00    +0.000 A 
ATOM      8  N   UNL     1     -11.866   5.465 129.711  0.00  0.00    +0.000 NA
ATOM      9  C   UNL     1     -10.724   5.054 130.329  0.00  0.00    +0.000 A 
BRANCH   7  10
ATOM     10  O   UNL     1     -13.075   7.034 128.605  0.00  0.00    +0.000 OA
ATOM     11  C   UNL     1     -13.252   8.387 128.205  0.00  0.00    +0.000 C 
ENDBRANCH   7  10
ENDBRANCH   1   4
BRANCH   1  13
ATOM     12  C   UNL     1      -7.477   3.086 130.282  0.00  0.00    +0.000 C 
ATOM     13  C   UNL     1      -7.488   4.603 130.266  0.00  0.00    +0.000 C 
ENDBRANCH   1  13
BRANCH   2  14
ATOM     14  C   UNL     1      -6.950   5.130 133.288  0.00  0.00    +0.000 C 
BRANCH  14  15
ATOM     15  O   UNL     1      -5.879   6.058 133.355  0.00  0.00    +0.000 OA
BRANCH  15  16
ATOM     16  C   UNL     1      -4.942   5.900 132.368  0.00  0.00    +0.000 A 
ATOM     17  C   UNL     1      -4.887   6.928 131.434  0.00  0.00    +0.000 A 
ATOM     18  C   UNL     1      -4.104   6.798 130.286  0.00  0.00    +0.000 A 
ATOM     19  C   UNL     1      -3.281   5.677 130.102  0.00  0.00    +0.000 A 
ATOM     20  C   UNL     1      -3.337   4.655 131.060  0.00  0.00    +0.000 A 
ATOM     21  C   UNL     1      -4.156   4.764 132.184  0.00  0.00    +0.000 A 
BRANCH  19  22
ATOM     22  C   UNL     1      -2.330   5.629 128.915  0.00  0.00    +0.000 C 
ATOM     23  C   UNL     1      -2.686   4.440 128.011  0.00  0.00    +0.000 C 
ATOM     24  C   UNL     1      -2.351   6.907 128.067  0.00  0.00    +0.000 C 
ENDBRANCH  19  22
ENDBRANCH  15  16
ENDBRANCH  14  15
ENDBRANCH   2  14
TORSDOF 7
ENDMDL
MODEL 9
REMARK VINA RESULT:      -6.6      2.737      8.885
REMARK  Name = CHEMBL1093342
REMARK  11 active torsions:
REMARK  status: ('A' for Active; 'I' for Inactive)
REMARK    1  A    between atoms: C_1  and  C_2
REMARK    2  A    between atoms: C_2  and  N_3
REMARK    3  A    between atoms: N_3  and  C_17
REMARK    4  A    between atoms: C_4  and  C_6
REMARK    5  A    between atoms: C_6  and  O_7
REMARK    6  A    between atoms: O_7  and  C_8
REMARK    7  A    between atoms: C_11  and  C_12
REMARK    8  A    between atoms: C_12  and  C_13
REMARK    9  A    between atoms: C_12  and  C_14
REMARK   10  A    between atoms: C_20  and  O_21
REMARK   11  A    between atoms: O_21  and  C_22
REMARK                            x       y       z     vdW  Elec       q    Type
REMARK                         _______ _______ _______ _____ _____    ______ ____
ROOT
ATOM      1  N   UNL     1      -8.761   2.531 131.435  0.00  0.00    +0.000 N 
ATOM      2  C   UNL     1      -8.821   3.128 132.715  0.00  0.00    +0.000 C 
ATOM      3  O   UNL     1      -8.275   2.619 133.706  0.00  0.00    +0.000 OA
ENDROOT
BRANCH   1   4
ATOM      4  C   UNL     1      -8.066   1.255 131.331  0.00  0.00    +0.000 A 
ATOM      5  C   UNL     1      -8.739   0.035 131.420  0.00  0.00    +0.000 A 
ATOM      6  C   UNL     1      -8.052  -1.172 131.231  0.00  0.00    +0.000 A 
ATOM      7  C   UNL     1      -6.686  -1.152 130.994  0.00  0.00    +0.000 A 
ATOM      8  N   UNL     1      -5.994   0.003 130.953  0.00  0.00    +0.000 NA
ATOM      9  C   UNL     1      -6.691   1.164 131.101  0.00  0.00    +0.000 A 
BRANCH   7  10
ATOM     10  O   UNL     1      -5.910  -2.258 130.778  0.00  0.00    +0.000 OA
ATOM     11  C   UNL     1      -4.610  -2.249 131.352  0.00  0.00    +0.000 C 
ENDBRANCH   7  10
ENDBRANCH   1   4
BRANCH   1  13
ATOM     12  C   UNL     1      -8.463   3.757 129.159  0.00  0.00    +0.000 C 
ATOM     13  C   UNL     1      -9.344   3.018 130.147  0.00  0.00    +0.000 C 
ENDBRANCH   1  13
BRANCH   2  14
ATOM     14  C   UNL     1      -9.552   4.463 132.899  0.00  0.00    +0.000 C 
BRANCH  14  15
ATOM     15  O   UNL     1      -8.874   5.608 132.407  0.00  0.00    +0.000 OA
BRANCH  15  16
ATOM     16  C   UNL     1      -9.620   6.373 131.549  0.00  0.00    +0.000 A 
ATOM     17  C   UNL     1     -10.993   6.339 131.768  0.00  0.00    +0.000 A 
ATOM     18  C   UNL     1     -11.868   6.929 130.855  0.00  0.00    +0.000 A 
ATOM     19  C   UNL     1     -11.379   7.653 129.757  0.00  0.00    +0.000 A 
ATOM     20  C   UNL     1      -9.992   7.689 129.558  0.00  0.00    +0.000 A 
ATOM     21  C   UNL     1      -9.119   7.059 130.445  0.00  0.00    +0.000 A 
BRANCH  19  22
ATOM     22  C   UNL     1     -12.351   8.406 128.860  0.00  0.00    +0.000 C 
ATOM     23  C   UNL     1     -13.459   7.458 128.381  0.00  0.00    +0.000 C 
ATOM     24  C   UNL     1     -13.005   9.610 129.548  0.00  0.00    +0.000 C 
ENDBRANCH  19  22
ENDBRANCH  15  16
ENDBRANCH  14  15
ENDBRANCH   2  14
TORSDOF 7
ENDMDL
