MODEL 1
REMARK VINA RESULT:     -11.8      0.000      0.000
REMARK  Name = CHEMBL68816
REMARK  7 active torsions:
REMARK  status: ('A' for Active; 'I' for Inactive)
REMARK    1  A    between atoms: C_1  and  O_2
REMARK    2  A    between atoms: O_2  and  C_3
REMARK    3  A    between atoms: C_5  and  O_6
REMARK    4  A    between atoms: O_6  and  C_7
REMARK    5  A    between atoms: N_10  and  C_11
REMARK    6  A    between atoms: C_26  and  C_27
REMARK    7  A    between atoms: C_32  and  N_33
REMARK                            x       y       z     vdW  Elec       q    Type
REMARK                         _______ _______ _______ _____ _____    ______ ____
ROOT
ATOM      1  C   UNL     1      -4.525   2.052 128.403  0.00  0.00    +0.000 A 
ATOM      2  C   UNL     1      -4.948   1.477 127.155  0.00  0.00    +0.000 A 
ATOM      3  C   UNL     1      -5.413   2.267 126.162  0.00  0.00    +0.000 A 
ATOM      4  C   UNL     1      -5.400   3.556 126.556  0.00  0.00    +0.000 A 
ATOM      5  F   UNL     1      -6.247   4.269 125.908  0.00  0.00    +0.000 F 
ATOM      6  C   UNL     1      -4.764   4.193 127.604  0.00  0.00    +0.000 A 
ATOM      7  C   UNL     1      -4.422   3.430 128.651  0.00  0.00    +0.000 A 
ENDROOT
BRANCH   7   8
ATOM      8  C   UNL     1      -4.147   4.224 129.891  0.00  0.00    +0.000 C 
ATOM      9  O   UNL     1      -2.990   4.404 130.280  0.00  0.00    +0.000 OA
ATOM     10  N   UNL     1      -5.218   4.781 130.552  0.00  0.00    +0.000 N 
ATOM     11  C   UNL     1      -5.424   6.212 130.444  0.00  0.00    +0.000 C 
ATOM     12  C   UNL     1      -6.091   6.705 131.705  0.00  0.00    +0.000 C 
ATOM     13  C   UNL     1      -7.761   6.109 131.768  0.00  0.00    +0.000 C 
ATOM     14  C   UNL     1      -7.168   4.496 132.029  0.00  0.00    +0.000 C 
ATOM     15  C   UNL     1      -6.391   3.999 130.850  0.00  0.00    +0.000 C 
BRANCH  13  16
ATOM     16  N   UNL     1      -8.983   7.080 130.765  0.00  0.00    +0.000 N 
ATOM     17  C   UNL     1      -9.892   6.447 131.693  0.00  0.00    +0.000 C 
ATOM     18  O   UNL     1      -9.869   6.388 132.965  0.00  0.00    +0.000 OA
ATOM     19  O   UNL     1     -10.749   5.616 131.152  0.00  0.00    +0.000 OA
ATOM     20  C   UNL     1     -11.804   6.488 131.167  0.00  0.00    +0.000 C 
ATOM     21  C   UNL     1     -11.631   6.828 129.762  0.00  0.00    +0.000 A 
ATOM     22  C   UNL     1     -13.023   6.793 129.128  0.00  0.00    +0.000 A 
ATOM     23  C   UNL     1     -13.491   7.603 128.150  0.00  0.00    +0.000 A 
ATOM     24  C   UNL     1     -12.434   8.364 127.714  0.00  0.00    +0.000 A 
ATOM     25  C   UNL     1     -10.884   8.289 128.359  0.00  0.00    +0.000 A 
ATOM     26  C   UNL     1     -10.324   7.365 129.492  0.00  0.00    +0.000 A 
ENDBRANCH  13  16
ENDBRANCH   7   8
BRANCH   1  28
ATOM     27  C   UNL     1      -5.570   0.795 129.973  0.00  0.00    +0.000 C 
ATOM     28  O   UNL     1      -4.315   1.155 129.396  0.00  0.00    +0.000 OA
ENDBRANCH   1  28
BRANCH   3  29
ATOM     29  O   UNL     1      -5.968   1.843 124.994  0.00  0.00    +0.000 OA
BRANCH  29  30
ATOM     30  C   UNL     1      -7.412   1.563 124.839  0.00  0.00    +0.000 C 
ATOM     31  C   UNL     1      -8.221   1.356 126.133  0.00  0.00    +0.000 C 
ATOM     32  C   UNL     1      -8.274  -0.119 126.621  0.00  0.00    +0.000 C 
ATOM     33  N   UNL     1      -8.492  -1.152 125.546  0.00  0.00    +0.000 NA
ATOM     34  C   UNL     1      -7.875  -0.892 124.203  0.00  0.00    +0.000 C 
ATOM     35  C   UNL     1      -7.873   0.557 123.768  0.00  0.00    +0.000 C 
BRANCH  33  36
ATOM     36  C   UNL     1      -8.231  -2.573 125.975  0.00  0.00    +0.000 C 
ATOM     37  C   UNL     1      -9.275  -3.392 126.810  0.00  0.00    +0.000 C 
ATOM     38  C   UNL     1      -8.842  -3.692 128.224  0.00  0.00    +0.000 C 
ATOM     39  C   UNL     1      -7.461  -3.217 128.171  0.00  0.00    +0.000 A 
ATOM     40  C   UNL     1      -7.067  -2.656 126.952  0.00  0.00    +0.000 A 
ATOM     41  C   UNL     1      -5.804  -2.106 126.862  0.00  0.00    +0.000 A 
ATOM     42  C   UNL     1      -4.980  -2.146 127.993  0.00  0.00    +0.000 A 
ATOM     43  C   UNL     1      -5.423  -2.721 129.192  0.00  0.00    +0.000 A 
ATOM     44  N   UNL     1      -6.683  -3.249 129.300  0.00  0.00    +0.000 N 
ATOM     45  O   UNL     1      -7.111  -3.727 130.391  0.00  0.00    +0.000 OA
ENDBRANCH  33  36
ENDBRANCH  29  30
ENDBRANCH   3  29
TORSDOF 6
ENDMDL
MODEL 2
REMARK VINA RESULT:     -11.5      3.301      6.154
REMARK  Name = CHEMBL68816
REMARK  7 active torsions:
REMARK  status: ('A' for Active; 'I' for Inactive)
REMARK    1  A    between atoms: C_1  and  O_2
REMARK    2  A    between atoms: O_2  and  C_3
REMARK    3  A    between atoms: C_5  and  O_6
REMARK    4  A    between atoms: O_6  and  C_7
REMARK    5  A    between atoms: N_10  and  C_11
REMARK    6  A    between atoms: C_26  and  C_27
REMARK    7  A    between atoms: C_32  and  N_33
REMARK                            x       y       z     vdW  Elec       q    Type
REMARK                         _______ _______ _______ _____ _____    ______ ____
ROOT
ATOM      1  C   UNL     1      -7.199   1.966 124.226  0.00  0.00    +0.000 A 
ATOM      2  C   UNL     1      -7.334   0.675 123.609  0.00  0.00    +0.000 A 
ATOM      3  C   UNL     1      -8.257  -0.204 124.059  0.00  0.00    +0.000 A 
ATOM      4  C   UNL     1      -8.935   0.331 125.093  0.00  0.00    +0.000 A 
ATOM      5  F   UNL     1      -9.442  -0.566 125.857  0.00  0.00    +0.000 F 
ATOM      6  C   UNL     1      -9.050   1.632 125.546  0.00  0.00    +0.000 A 
ATOM      7  C   UNL     1      -8.062   2.473 125.210  0.00  0.00    +0.000 A 
ENDROOT
BRANCH   7   8
ATOM      8  C   UNL     1      -8.022   3.702 126.067  0.00  0.00    +0.000 C 
ATOM      9  O   UNL     1      -8.480   4.771 125.655  0.00  0.00    +0.000 OA
ATOM     10  N   UNL     1      -7.501   3.588 127.335  0.00  0.00    +0.000 N 
ATOM     11  C   UNL     1      -8.417   3.605 128.459  0.00  0.00    +0.000 C 
ATOM     12  C   UNL     1      -7.709   4.189 129.656  0.00  0.00    +0.000 C 
ATOM     13  C   UNL     1      -6.469   3.056 130.227  0.00  0.00    +0.000 C 
ATOM     14  C   UNL     1      -5.531   3.374 128.798  0.00  0.00    +0.000 C 
ATOM     15  C   UNL     1      -6.244   2.921 127.562  0.00  0.00    +0.000 C 
BRANCH  13  16
ATOM     16  N   UNL     1      -7.095   1.674 131.295  0.00  0.00    +0.000 N 
ATOM     17  C   UNL     1      -5.996   2.126 132.118  0.00  0.00    +0.000 C 
ATOM     18  O   UNL     1      -5.697   3.293 132.529  0.00  0.00    +0.000 OA
ATOM     19  O   UNL     1      -5.033   1.254 132.288  0.00  0.00    +0.000 OA
ATOM     20  C   UNL     1      -5.428   0.866 133.539  0.00  0.00    +0.000 C 
ATOM     21  C   UNL     1      -6.082  -0.333 133.035  0.00  0.00    +0.000 A 
ATOM     22  C   UNL     1      -5.659  -1.482 133.953  0.00  0.00    +0.000 A 
ATOM     23  C   UNL     1      -6.416  -2.538 134.334  0.00  0.00    +0.000 A 
ATOM     24  C   UNL     1      -7.586  -2.477 133.618  0.00  0.00    +0.000 A 
ATOM     25  C   UNL     1      -7.965  -1.258 132.526  0.00  0.00    +0.000 A 
ATOM     26  C   UNL     1      -7.109  -0.026 132.076  0.00  0.00    +0.000 A 
ENDBRANCH  13  16
ENDBRANCH   7   8
BRANCH   1  28
ATOM     27  C   UNL     1      -6.383   3.410 122.681  0.00  0.00    +0.000 C 
ATOM     28  O   UNL     1      -6.093   2.656 123.858  0.00  0.00    +0.000 OA
ENDBRANCH   1  28
BRANCH   3  29
ATOM     29  O   UNL     1      -8.394  -1.498 123.658  0.00  0.00    +0.000 OA
BRANCH  29  30
ATOM     30  C   UNL     1      -7.598  -2.609 124.223  0.00  0.00    +0.000 C 
ATOM     31  C   UNL     1      -8.293  -3.495 125.272  0.00  0.00    +0.000 C 
ATOM     32  C   UNL     1      -8.123  -3.002 126.737  0.00  0.00    +0.000 C 
ATOM     33  N   UNL     1      -6.743  -2.520 127.103  0.00  0.00    +0.000 NA
ATOM     34  C   UNL     1      -5.952  -1.814 126.041  0.00  0.00    +0.000 C 
ATOM     35  C   UNL     1      -6.138  -2.352 124.639  0.00  0.00    +0.000 C 
BRANCH  33  36
ATOM     36  C   UNL     1      -6.665  -1.761 128.403  0.00  0.00    +0.000 C 
ATOM     37  C   UNL     1      -5.703  -0.537 128.592  0.00  0.00    +0.000 C 
ATOM     38  C   UNL     1      -4.563  -0.785 129.550  0.00  0.00    +0.000 C 
ATOM     39  C   UNL     1      -4.955  -2.091 130.076  0.00  0.00    +0.000 A 
ATOM     40  C   UNL     1      -6.122  -2.633 129.526  0.00  0.00    +0.000 A 
ATOM     41  C   UNL     1      -6.499  -3.903 129.913  0.00  0.00    +0.000 A 
ATOM     42  C   UNL     1      -5.700  -4.580 130.842  0.00  0.00    +0.000 A 
ATOM     43  C   UNL     1      -4.540  -3.992 131.364  0.00  0.00    +0.000 A 
ATOM     44  N   UNL     1      -4.143  -2.740 130.970  0.00  0.00    +0.000 N 
ATOM     45  O   UNL     1      -3.072  -2.219 131.398  0.00  0.00    +0.000 OA
ENDBRANCH  33  36
ENDBRANCH  29  30
ENDBRANCH   3  29
TORSDOF 6
ENDMDL
MODEL 3
REMARK VINA RESULT:     -11.3      2.159      4.455
REMARK  Name = CHEMBL68816
REMARK  7 active torsions:
REMARK  status: ('A' for Active; 'I' for Inactive)
REMARK    1  A    between atoms: C_1  and  O_2
REMARK    2  A    between atoms: O_2  and  C_3
REMARK    3  A    between atoms: C_5  and  O_6
REMARK    4  A    between atoms: O_6  and  C_7
REMARK    5  A    between atoms: N_10  and  C_11
REMARK    6  A    between atoms: C_26  and  C_27
REMARK    7  A    between atoms: C_32  and  N_33
REMARK                            x       y       z     vdW  Elec       q    Type
REMARK                         _______ _______ _______ _____ _____    ______ ____
ROOT
ATOM      1  C   UNL     1      -4.593   2.964 127.690  0.00  0.00    +0.000 A 
ATOM      2  C   UNL     1      -4.815   1.926 126.720  0.00  0.00    +0.000 A 
ATOM      3  C   UNL     1      -5.106   0.668 127.120  0.00  0.00    +0.000 A 
ATOM      4  C   UNL     1      -5.131   0.609 128.465  0.00  0.00    +0.000 A 
ATOM      5  F   UNL     1      -4.907  -0.577 128.902  0.00  0.00    +0.000 F 
ATOM      6  C   UNL     1      -5.204   1.595 129.432  0.00  0.00    +0.000 A 
ATOM      7  C   UNL     1      -4.787   2.817 129.073  0.00  0.00    +0.000 A 
ENDROOT
BRANCH   7   8
ATOM      8  C   UNL     1      -4.486   3.701 130.244  0.00  0.00    +0.000 C 
ATOM      9  O   UNL     1      -3.329   3.836 130.649  0.00  0.00    +0.000 OA
ATOM     10  N   UNL     1      -5.530   4.386 130.821  0.00  0.00    +0.000 N 
ATOM     11  C   UNL     1      -5.634   5.812 130.580  0.00  0.00    +0.000 C 
ATOM     12  C   UNL     1      -6.293   6.461 131.773  0.00  0.00    +0.000 C 
ATOM     13  C   UNL     1      -8.001   5.989 131.840  0.00  0.00    +0.000 C 
ATOM     14  C   UNL     1      -7.529   4.369 132.261  0.00  0.00    +0.000 C 
ATOM     15  C   UNL     1      -6.762   3.716 131.153  0.00  0.00    +0.000 C 
BRANCH  13  16
ATOM     16  N   UNL     1      -9.129   6.944 130.720  0.00  0.00    +0.000 N 
ATOM     17  C   UNL     1     -10.105   6.438 131.657  0.00  0.00    +0.000 C 
ATOM     18  O   UNL     1     -10.128   6.479 132.930  0.00  0.00    +0.000 OA
ATOM     19  O   UNL     1     -10.991   5.617 131.149  0.00  0.00    +0.000 OA
ATOM     20  C   UNL     1     -11.992   6.545 131.057  0.00  0.00    +0.000 C 
ATOM     21  C   UNL     1     -11.752   6.763 129.637  0.00  0.00    +0.000 A 
ATOM     22  C   UNL     1     -13.122   6.756 128.955  0.00  0.00    +0.000 A 
ATOM     23  C   UNL     1     -13.508   7.513 127.901  0.00  0.00    +0.000 A 
ATOM     24  C   UNL     1     -12.393   8.177 127.449  0.00  0.00    +0.000 A 
ATOM     25  C   UNL     1     -10.873   8.065 128.156  0.00  0.00    +0.000 A 
ATOM     26  C   UNL     1     -10.408   7.203 129.378  0.00  0.00    +0.000 A 
ENDBRANCH  13  16
ENDBRANCH   7   8
BRANCH   1  28
ATOM     27  C   UNL     1      -2.723   3.874 126.790  0.00  0.00    +0.000 C 
ATOM     28  O   UNL     1      -4.074   4.109 127.185  0.00  0.00    +0.000 OA
ENDBRANCH   1  28
BRANCH   3  29
ATOM     29  O   UNL     1      -5.202  -0.426 126.315  0.00  0.00    +0.000 OA
BRANCH  29  30
ATOM     30  C   UNL     1      -6.492  -1.036 125.930  0.00  0.00    +0.000 C 
ATOM     31  C   UNL     1      -6.733  -1.256 124.426  0.00  0.00    +0.000 C 
ATOM     32  C   UNL     1      -7.408  -0.054 123.706  0.00  0.00    +0.000 C 
ATOM     33  N   UNL     1      -8.538   0.601 124.457  0.00  0.00    +0.000 NA
ATOM     34  C   UNL     1      -8.429   0.666 125.952  0.00  0.00    +0.000 C 
ATOM     35  C   UNL     1      -7.787  -0.542 126.600  0.00  0.00    +0.000 C 
BRANCH  33  36
ATOM     36  C   UNL     1      -8.969   1.937 123.907  0.00  0.00    +0.000 C 
ATOM     37  C   UNL     1      -9.693   2.068 122.522  0.00  0.00    +0.000 C 
ATOM     38  C   UNL     1      -8.874   2.752 121.455  0.00  0.00    +0.000 C 
ATOM     39  C   UNL     1      -7.736   3.197 122.256  0.00  0.00    +0.000 A 
ATOM     40  C   UNL     1      -7.773   2.829 123.606  0.00  0.00    +0.000 A 
ATOM     41  C   UNL     1      -6.687   3.139 124.399  0.00  0.00    +0.000 A 
ATOM     42  C   UNL     1      -5.609   3.813 123.814  0.00  0.00    +0.000 A 
ATOM     43  C   UNL     1      -5.621   4.161 122.456  0.00  0.00    +0.000 A 
ATOM     44  N   UNL     1      -6.684   3.837 121.654  0.00  0.00    +0.000 N 
ATOM     45  O   UNL     1      -6.686   4.103 120.416  0.00  0.00    +0.000 OA
ENDBRANCH  33  36
ENDBRANCH  29  30
ENDBRANCH   3  29
TORSDOF 6
ENDMDL
MODEL 4
REMARK VINA RESULT:     -11.3      2.912      5.398
REMARK  Name = CHEMBL68816
REMARK  7 active torsions:
REMARK  status: ('A' for Active; 'I' for Inactive)
REMARK    1  A    between atoms: C_1  and  O_2
REMARK    2  A    between atoms: O_2  and  C_3
REMARK    3  A    between atoms: C_5  and  O_6
REMARK    4  A    between atoms: O_6  and  C_7
REMARK    5  A    between atoms: N_10  and  C_11
REMARK    6  A    between atoms: C_26  and  C_27
REMARK    7  A    between atoms: C_32  and  N_33
REMARK                            x       y       z     vdW  Elec       q    Type
REMARK                         _______ _______ _______ _____ _____    ______ ____
ROOT
ATOM      1  C   UNL     1      -6.882  -1.098 129.667  0.00  0.00    +0.000 A 
ATOM      2  C   UNL     1      -7.341  -1.624 128.410  0.00  0.00    +0.000 A 
ATOM      3  C   UNL     1      -7.771  -0.790 127.437  0.00  0.00    +0.000 A 
ATOM      4  C   UNL     1      -7.690   0.487 127.858  0.00  0.00    +0.000 A 
ATOM      5  F   UNL     1      -8.503   1.256 127.232  0.00  0.00    +0.000 F 
ATOM      6  C   UNL     1      -7.016   1.069 128.915  0.00  0.00    +0.000 A 
ATOM      7  C   UNL     1      -6.707   0.267 129.943  0.00  0.00    +0.000 A 
ENDROOT
BRANCH   7   8
ATOM      8  C   UNL     1      -6.385   1.021 131.198  0.00  0.00    +0.000 C 
ATOM      9  O   UNL     1      -5.373   0.752 131.851  0.00  0.00    +0.000 OA
ATOM     10  N   UNL     1      -7.225   2.044 131.570  0.00  0.00    +0.000 N 
ATOM     11  C   UNL     1      -6.769   3.409 131.388  0.00  0.00    +0.000 C 
ATOM     12  C   UNL     1      -7.409   4.280 132.442  0.00  0.00    +0.000 C 
ATOM     13  C   UNL     1      -9.144   4.439 132.112  0.00  0.00    +0.000 C 
ATOM     14  C   UNL     1      -9.371   2.769 132.538  0.00  0.00    +0.000 C 
ATOM     15  C   UNL     1      -8.654   1.858 131.590  0.00  0.00    +0.000 C 
BRANCH  13  16
ATOM     16  N   UNL     1      -9.590   5.699 130.826  0.00  0.00    +0.000 N 
ATOM     17  C   UNL     1     -10.522   6.083 131.861  0.00  0.00    +0.000 C 
ATOM     18  O   UNL     1     -10.330   6.330 133.096  0.00  0.00    +0.000 OA
ATOM     19  O   UNL     1     -11.787   5.941 131.552  0.00  0.00    +0.000 OA
ATOM     20  C   UNL     1     -12.003   7.263 131.274  0.00  0.00    +0.000 C 
ATOM     21  C   UNL     1     -11.888   7.051 129.838  0.00  0.00    +0.000 A 
ATOM     22  C   UNL     1     -13.051   7.804 129.189  0.00  0.00    +0.000 A 
ATOM     23  C   UNL     1     -13.036   8.454 128.002  0.00  0.00    +0.000 A 
ATOM     24  C   UNL     1     -11.829   8.179 127.405  0.00  0.00    +0.000 A 
ATOM     25  C   UNL     1     -10.620   7.245 128.102  0.00  0.00    +0.000 A 
ATOM     26  C   UNL     1     -10.614   6.492 129.475  0.00  0.00    +0.000 A 
ENDBRANCH  13  16
ENDBRANCH   7   8
BRANCH   1  28
ATOM     27  C   UNL     1      -7.550  -3.147 130.367  0.00  0.00    +0.000 C 
ATOM     28  O   UNL     1      -6.711  -2.025 130.639  0.00  0.00    +0.000 OA
ENDBRANCH   1  28
BRANCH   3  29
ATOM     29  O   UNL     1      -8.354  -1.161 126.264  0.00  0.00    +0.000 OA
BRANCH  29  30
ATOM     30  C   UNL     1      -7.624  -1.216 124.980  0.00  0.00    +0.000 C 
ATOM     31  C   UNL     1      -6.363  -0.341 124.861  0.00  0.00    +0.000 C 
ATOM     32  C   UNL     1      -6.630   1.093 124.325  0.00  0.00    +0.000 C 
ATOM     33  N   UNL     1      -7.596   1.186 123.173  0.00  0.00    +0.000 NA
ATOM     34  C   UNL     1      -8.742   0.218 123.152  0.00  0.00    +0.000 C 
ATOM     35  C   UNL     1      -8.418  -1.170 123.661  0.00  0.00    +0.000 C 
BRANCH  33  36
ATOM     36  C   UNL     1      -8.085   2.580 122.872  0.00  0.00    +0.000 C 
ATOM     37  C   UNL     1      -9.308   2.842 121.925  0.00  0.00    +0.000 C 
ATOM     38  C   UNL     1      -8.951   3.508 120.619  0.00  0.00    +0.000 C 
ATOM     39  C   UNL     1      -7.544   3.813 120.867  0.00  0.00    +0.000 A 
ATOM     40  C   UNL     1      -7.046   3.381 122.101  0.00  0.00    +0.000 A 
ATOM     41  C   UNL     1      -5.702   3.558 122.363  0.00  0.00    +0.000 A 
ATOM     42  C   UNL     1      -4.909   4.167 121.384  0.00  0.00    +0.000 A 
ATOM     43  C   UNL     1      -5.458   4.583 120.162  0.00  0.00    +0.000 A 
ATOM     44  N   UNL     1      -6.786   4.392 119.882  0.00  0.00    +0.000 N 
ATOM     45  O   UNL     1      -7.281   4.719 118.765  0.00  0.00    +0.000 OA
ENDBRANCH  33  36
ENDBRANCH  29  30
ENDBRANCH   3  29
TORSDOF 6
ENDMDL
MODEL 5
REMARK VINA RESULT:     -11.0      2.178      4.379
REMARK  Name = CHEMBL68816
REMARK  7 active torsions:
REMARK  status: ('A' for Active; 'I' for Inactive)
REMARK    1  A    between atoms: C_1  and  O_2
REMARK    2  A    between atoms: O_2  and  C_3
REMARK    3  A    between atoms: C_5  and  O_6
REMARK    4  A    between atoms: O_6  and  C_7
REMARK    5  A    between atoms: N_10  and  C_11
REMARK    6  A    between atoms: C_26  and  C_27
REMARK    7  A    between atoms: C_32  and  N_33
REMARK                            x       y       z     vdW  Elec       q    Type
REMARK                         _______ _______ _______ _____ _____    ______ ____
ROOT
ATOM      1  C   UNL     1      -4.925   0.772 130.928  0.00  0.00    +0.000 A 
ATOM      2  C   UNL     1      -4.952   0.024 129.700  0.00  0.00    +0.000 A 
ATOM      3  C   UNL     1      -5.034   0.664 128.513  0.00  0.00    +0.000 A 
ATOM      4  C   UNL     1      -5.085   1.995 128.710  0.00  0.00    +0.000 A 
ATOM      5  F   UNL     1      -5.644   2.610 127.732  0.00  0.00    +0.000 F 
ATOM      6  C   UNL     1      -4.789   2.776 129.812  0.00  0.00    +0.000 A 
ATOM      7  C   UNL     1      -4.840   2.171 131.007  0.00  0.00    +0.000 A 
ENDROOT
BRANCH   7   8
ATOM      8  C   UNL     1      -4.939   3.136 132.149  0.00  0.00    +0.000 C 
ATOM      9  O   UNL     1      -3.985   3.309 132.911  0.00  0.00    +0.000 OA
ATOM     10  N   UNL     1      -6.106   3.851 132.290  0.00  0.00    +0.000 N 
ATOM     11  C   UNL     1      -6.100   5.256 131.932  0.00  0.00    +0.000 C 
ATOM     12  C   UNL     1      -7.114   5.980 132.784  0.00  0.00    +0.000 C 
ATOM     13  C   UNL     1      -8.752   5.498 132.301  0.00  0.00    +0.000 C 
ATOM     14  C   UNL     1      -8.474   3.915 132.965  0.00  0.00    +0.000 C 
ATOM     15  C   UNL     1      -7.388   3.194 132.230  0.00  0.00    +0.000 C 
BRANCH  13  16
ATOM     16  N   UNL     1      -9.419   6.364 130.803  0.00  0.00    +0.000 N 
ATOM     17  C   UNL     1     -10.607   6.373 131.626  0.00  0.00    +0.000 C 
ATOM     18  O   UNL     1     -10.776   6.752 132.829  0.00  0.00    +0.000 OA
ATOM     19  O   UNL     1     -11.616   5.683 131.153  0.00  0.00    +0.000 OA
ATOM     20  C   UNL     1     -12.299   6.765 130.669  0.00  0.00    +0.000 C 
ATOM     21  C   UNL     1     -11.832   6.537 129.308  0.00  0.00    +0.000 A 
ATOM     22  C   UNL     1     -13.053   6.677 128.397  0.00  0.00    +0.000 A 
ATOM     23  C   UNL     1     -13.078   7.198 127.147  0.00  0.00    +0.000 A 
ATOM     24  C   UNL     1     -11.775   7.432 126.781  0.00  0.00    +0.000 A 
ATOM     25  C   UNL     1     -10.447   7.152 127.771  0.00  0.00    +0.000 A 
ATOM     26  C   UNL     1     -10.397   6.558 129.219  0.00  0.00    +0.000 A 
ENDBRANCH  13  16
ENDBRANCH   7   8
BRANCH   1  28
ATOM     27  C   UNL     1      -6.436  -0.439 132.104  0.00  0.00    +0.000 C 
ATOM     28  O   UNL     1      -5.089   0.028 132.047  0.00  0.00    +0.000 OA
ENDBRANCH   1  28
BRANCH   3  29
ATOM     29  O   UNL     1      -5.205   0.076 127.296  0.00  0.00    +0.000 OA
BRANCH  29  30
ATOM     30  C   UNL     1      -6.457  -0.600 126.893  0.00  0.00    +0.000 C 
ATOM     31  C   UNL     1      -6.603  -0.956 125.402  0.00  0.00    +0.000 C 
ATOM     32  C   UNL     1      -7.259   0.160 124.542  0.00  0.00    +0.000 C 
ATOM     33  N   UNL     1      -8.446   0.848 125.165  0.00  0.00    +0.000 NA
ATOM     34  C   UNL     1      -8.428   1.045 126.653  0.00  0.00    +0.000 C 
ATOM     35  C   UNL     1      -7.800  -0.084 127.441  0.00  0.00    +0.000 C 
BRANCH  33  36
ATOM     36  C   UNL     1      -8.872   2.118 124.475  0.00  0.00    +0.000 C 
ATOM     37  C   UNL     1      -9.606   2.102 123.089  0.00  0.00    +0.000 C 
ATOM     38  C   UNL     1      -8.790   2.659 121.948  0.00  0.00    +0.000 C 
ATOM     39  C   UNL     1      -7.644   3.181 122.688  0.00  0.00    +0.000 A 
ATOM     40  C   UNL     1      -7.673   2.963 124.070  0.00  0.00    +0.000 A 
ATOM     41  C   UNL     1      -6.579   3.350 124.817  0.00  0.00    +0.000 A 
ATOM     42  C   UNL     1      -5.500   3.948 124.155  0.00  0.00    +0.000 A 
ATOM     43  C   UNL     1      -5.521   4.145 122.767  0.00  0.00    +0.000 A 
ATOM     44  N   UNL     1      -6.592   3.744 122.012  0.00  0.00    +0.000 N 
ATOM     45  O   UNL     1      -6.601   3.872 120.753  0.00  0.00    +0.000 OA
ENDBRANCH  33  36
ENDBRANCH  29  30
ENDBRANCH   3  29
TORSDOF 6
ENDMDL
MODEL 6
REMARK VINA RESULT:     -11.0      2.699      8.886
REMARK  Name = CHEMBL68816
REMARK  7 active torsions:
REMARK  status: ('A' for Active; 'I' for Inactive)
REMARK    1  A    between atoms: C_1  and  O_2
REMARK    2  A    between atoms: O_2  and  C_3
REMARK    3  A    between atoms: C_5  and  O_6
REMARK    4  A    between atoms: O_6  and  C_7
REMARK    5  A    between atoms: N_10  and  C_11
REMARK    6  A    between atoms: C_26  and  C_27
REMARK    7  A    between atoms: C_32  and  N_33
REMARK                            x       y       z     vdW  Elec       q    Type
REMARK                         _______ _______ _______ _____ _____    ______ ____
ROOT
ATOM      1  C   UNL     1      -4.878   3.639 130.357  0.00  0.00    +0.000 A 
ATOM      2  C   UNL     1      -5.307   3.505 131.722  0.00  0.00    +0.000 A 
ATOM      3  C   UNL     1      -5.749   4.582 132.408  0.00  0.00    +0.000 A 
ATOM      4  C   UNL     1      -5.699   5.678 131.625  0.00  0.00    +0.000 A 
ATOM      5  F   UNL     1      -5.620   6.759 132.310  0.00  0.00    +0.000 F 
ATOM      6  C   UNL     1      -5.568   5.829 130.258  0.00  0.00    +0.000 A 
ATOM      7  C   UNL     1      -5.004   4.811 129.593  0.00  0.00    +0.000 A 
ENDROOT
BRANCH   7   8
ATOM      8  C   UNL     1      -4.507   5.201 128.235  0.00  0.00    +0.000 C 
ATOM      9  O   UNL     1      -3.600   6.029 128.112  0.00  0.00    +0.000 OA
ATOM     10  N   UNL     1      -5.059   4.577 127.141  0.00  0.00    +0.000 N 
ATOM     11  C   UNL     1      -4.269   3.580 126.446  0.00  0.00    +0.000 C 
ATOM     12  C   UNL     1      -4.669   3.568 124.991  0.00  0.00    +0.000 C 
ATOM     13  C   UNL     1      -6.304   2.901 124.828  0.00  0.00    +0.000 C 
ATOM     14  C   UNL     1      -6.953   4.324 125.586  0.00  0.00    +0.000 C 
ATOM     15  C   UNL     1      -6.488   4.451 127.004  0.00  0.00    +0.000 C 
BRANCH  13  16
ATOM     16  N   UNL     1      -6.407   1.049 124.852  0.00  0.00    +0.000 N 
ATOM     17  C   UNL     1      -7.128   1.306 123.627  0.00  0.00    +0.000 C 
ATOM     18  O   UNL     1      -6.813   2.010 122.614  0.00  0.00    +0.000 OA
ATOM     19  O   UNL     1      -8.390   0.953 123.640  0.00  0.00    +0.000 OA
ATOM     20  C   UNL     1      -8.207  -0.211 122.944  0.00  0.00    +0.000 C 
ATOM     21  C   UNL     1      -8.230  -1.019 124.155  0.00  0.00    +0.000 A 
ATOM     22  C   UNL     1      -9.139  -2.215 123.866  0.00  0.00    +0.000 A 
ATOM     23  C   UNL     1      -8.983  -3.482 124.320  0.00  0.00    +0.000 A 
ATOM     24  C   UNL     1      -7.947  -3.464 125.221  0.00  0.00    +0.000 A 
ATOM     25  C   UNL     1      -7.046  -2.098 125.602  0.00  0.00    +0.000 A 
ATOM     26  C   UNL     1      -7.204  -0.628 125.084  0.00  0.00    +0.000 A 
ENDBRANCH  13  16
ENDBRANCH   7   8
BRANCH   1  28
ATOM     27  C   UNL     1      -5.194   1.571 129.485  0.00  0.00    +0.000 C 
ATOM     28  O   UNL     1      -4.233   2.558 129.857  0.00  0.00    +0.000 OA
ENDBRANCH   1  28
BRANCH   3  29
ATOM     29  O   UNL     1      -6.052   4.618 133.735  0.00  0.00    +0.000 OA
BRANCH  29  30
ATOM     30  C   UNL     1      -7.437   4.662 134.248  0.00  0.00    +0.000 C 
ATOM     31  C   UNL     1      -8.280   3.385 134.079  0.00  0.00    +0.000 C 
ATOM     32  C   UNL     1      -9.075   3.317 132.745  0.00  0.00    +0.000 C 
ATOM     33  N   UNL     1      -9.746   4.599 132.323  0.00  0.00    +0.000 NA
ATOM     34  C   UNL     1      -9.042   5.885 132.642  0.00  0.00    +0.000 C 
ATOM     35  C   UNL     1      -8.305   5.902 133.964  0.00  0.00    +0.000 C 
BRANCH  33  36
ATOM     36  C   UNL     1     -10.239   4.613 130.899  0.00  0.00    +0.000 C 
ATOM     37  C   UNL     1      -9.259   4.766 129.684  0.00  0.00    +0.000 C 
ATOM     38  C   UNL     1      -9.393   6.072 128.939  0.00  0.00    +0.000 C 
ATOM     39  C   UNL     1     -10.582   6.615 129.592  0.00  0.00    +0.000 A 
ATOM     40  C   UNL     1     -11.111   5.830 130.623  0.00  0.00    +0.000 A 
ATOM     41  C   UNL     1     -12.179   6.327 131.342  0.00  0.00    +0.000 A 
ATOM     42  C   UNL     1     -12.683   7.586 130.998  0.00  0.00    +0.000 A 
ATOM     43  C   UNL     1     -12.117   8.334 129.956  0.00  0.00    +0.000 A 
ATOM     44  N   UNL     1     -11.042   7.860 129.250  0.00  0.00    +0.000 N 
ATOM     45  O   UNL     1     -10.492   8.547 128.339  0.00  0.00    +0.000 OA
ENDBRANCH  33  36
ENDBRANCH  29  30
ENDBRANCH   3  29
TORSDOF 6
ENDMDL
MODEL 7
REMARK VINA RESULT:     -11.0      3.546      6.981
REMARK  Name = CHEMBL68816
REMARK  7 active torsions:
REMARK  status: ('A' for Active; 'I' for Inactive)
REMARK    1  A    between atoms: C_1  and  O_2
REMARK    2  A    between atoms: O_2  and  C_3
REMARK    3  A    between atoms: C_5  and  O_6
REMARK    4  A    between atoms: O_6  and  C_7
REMARK    5  A    between atoms: N_10  and  C_11
REMARK    6  A    between atoms: C_26  and  C_27
REMARK    7  A    between atoms: C_32  and  N_33
REMARK                            x       y       z     vdW  Elec       q    Type
REMARK                         _______ _______ _______ _____ _____    ______ ____
ROOT
ATOM      1  C   UNL     1      -5.883   2.641 132.959  0.00  0.00    +0.000 A 
ATOM      2  C   UNL     1      -6.289   1.437 133.634  0.00  0.00    +0.000 A 
ATOM      3  C   UNL     1      -5.658   0.269 133.383  0.00  0.00    +0.000 A 
ATOM      4  C   UNL     1      -4.688   0.457 132.468  0.00  0.00    +0.000 A 
ATOM      5  F   UNL     1      -4.401  -0.622 131.836  0.00  0.00    +0.000 F 
ATOM      6  C   UNL     1      -4.073   1.602 131.998  0.00  0.00    +0.000 A 
ATOM      7  C   UNL     1      -4.758   2.747 132.126  0.00  0.00    +0.000 A 
ENDROOT
BRANCH   7   8
ATOM      8  C   UNL     1      -4.249   3.838 131.234  0.00  0.00    +0.000 C 
ATOM      9  O   UNL     1      -3.488   4.705 131.673  0.00  0.00    +0.000 OA
ATOM     10  N   UNL     1      -4.619   3.815 129.910  0.00  0.00    +0.000 N 
ATOM     11  C   UNL     1      -3.631   3.418 128.926  0.00  0.00    +0.000 C 
ATOM     12  C   UNL     1      -3.932   4.118 127.623  0.00  0.00    +0.000 C 
ATOM     13  C   UNL     1      -5.419   3.455 126.919  0.00  0.00    +0.000 C 
ATOM     14  C   UNL     1      -6.343   4.196 128.192  0.00  0.00    +0.000 C 
ATOM     15  C   UNL     1      -5.995   3.620 129.529  0.00  0.00    +0.000 C 
BRANCH  13  16
ATOM     16  N   UNL     1      -5.211   1.861 125.993  0.00  0.00    +0.000 N 
ATOM     17  C   UNL     1      -5.929   2.619 124.995  0.00  0.00    +0.000 C 
ATOM     18  O   UNL     1      -5.707   3.779 124.519  0.00  0.00    +0.000 OA
ATOM     19  O   UNL     1      -7.115   2.151 124.688  0.00  0.00    +0.000 OA
ATOM     20  C   UNL     1      -6.719   1.549 123.525  0.00  0.00    +0.000 C 
ATOM     21  C   UNL     1      -6.642   0.236 124.150  0.00  0.00    +0.000 A 
ATOM     22  C   UNL     1      -7.329  -0.744 123.198  0.00  0.00    +0.000 A 
ATOM     23  C   UNL     1      -6.977  -2.031 122.964  0.00  0.00    +0.000 A 
ATOM     24  C   UNL     1      -5.984  -2.348 123.860  0.00  0.00    +0.000 A 
ATOM     25  C   UNL     1      -5.336  -1.272 124.975  0.00  0.00    +0.000 A 
ATOM     26  C   UNL     1      -5.723   0.219 125.257  0.00  0.00    +0.000 A 
ENDBRANCH  13  16
ENDBRANCH   7   8
BRANCH   1  28
ATOM     27  C   UNL     1      -8.008   3.325 132.568  0.00  0.00    +0.000 C 
ATOM     28  O   UNL     1      -6.735   3.684 133.103  0.00  0.00    +0.000 OA
ENDBRANCH   1  28
BRANCH   3  29
ATOM     29  O   UNL     1      -6.029  -0.957 133.846  0.00  0.00    +0.000 OA
BRANCH  29  30
ATOM     30  C   UNL     1      -7.065  -1.788 133.195  0.00  0.00    +0.000 C 
ATOM     31  C   UNL     1      -6.570  -2.960 132.328  0.00  0.00    +0.000 C 
ATOM     32  C   UNL     1      -6.328  -2.592 130.837  0.00  0.00    +0.000 C 
ATOM     33  N   UNL     1      -7.378  -1.716 130.206  0.00  0.00    +0.000 NA
ATOM     34  C   UNL     1      -8.027  -0.679 131.075  0.00  0.00    +0.000 C 
ATOM     35  C   UNL     1      -8.260  -1.100 132.510  0.00  0.00    +0.000 C 
BRANCH  33  36
ATOM     36  C   UNL     1      -6.984  -1.114 128.882  0.00  0.00    +0.000 C 
ATOM     37  C   UNL     1      -7.325   0.372 128.512  0.00  0.00    +0.000 C 
ATOM     38  C   UNL     1      -8.345   0.520 127.410  0.00  0.00    +0.000 C 
ATOM     39  C   UNL     1      -8.471  -0.875 126.994  0.00  0.00    +0.000 A 
ATOM     40  C   UNL     1      -7.705  -1.790 127.725  0.00  0.00    +0.000 A 
ATOM     41  C   UNL     1      -7.845  -3.134 127.442  0.00  0.00    +0.000 A 
ATOM     42  C   UNL     1      -8.739  -3.511 126.434  0.00  0.00    +0.000 A 
ATOM     43  C   UNL     1      -9.484  -2.554 125.730  0.00  0.00    +0.000 A 
ATOM     44  N   UNL     1      -9.369  -1.219 126.017  0.00  0.00    +0.000 N 
ATOM     45  O   UNL     1     -10.071  -0.351 125.421  0.00  0.00    +0.000 OA
ENDBRANCH  33  36
ENDBRANCH  29  30
ENDBRANCH   3  29
TORSDOF 6
ENDMDL
MODEL 8
REMARK VINA RESULT:     -11.0      1.848      4.015
REMARK  Name = CHEMBL68816
REMARK  7 active torsions:
REMARK  status: ('A' for Active; 'I' for Inactive)
REMARK    1  A    between atoms: C_1  and  O_2
REMARK    2  A    between atoms: O_2  and  C_3
REMARK    3  A    between atoms: C_5  and  O_6
REMARK    4  A    between atoms: O_6  and  C_7
REMARK    5  A    between atoms: N_10  and  C_11
REMARK    6  A    between atoms: C_26  and  C_27
REMARK    7  A    between atoms: C_32  and  N_33
REMARK                            x       y       z     vdW  Elec       q    Type
REMARK                         _______ _______ _______ _____ _____    ______ ____
ROOT
ATOM      1  C   UNL     1      -7.107   1.347 129.103  0.00  0.00    +0.000 A 
ATOM      2  C   UNL     1      -7.835   0.138 128.826  0.00  0.00    +0.000 A 
ATOM      3  C   UNL     1      -7.767  -0.910 129.677  0.00  0.00    +0.000 A 
ATOM      4  C   UNL     1      -6.960  -0.609 130.713  0.00  0.00    +0.000 A 
ATOM      5  F   UNL     1      -6.466  -1.657 131.263  0.00  0.00    +0.000 F 
ATOM      6  C   UNL     1      -6.465   0.595 131.177  0.00  0.00    +0.000 A 
ATOM      7  C   UNL     1      -6.407   1.601 130.293  0.00  0.00    +0.000 A 
ENDROOT
BRANCH   7   8
ATOM      8  C   UNL     1      -5.487   2.704 130.720  0.00  0.00    +0.000 C 
ATOM      9  O   UNL     1      -4.263   2.561 130.661  0.00  0.00    +0.000 OA
ATOM     10  N   UNL     1      -6.049   3.890 131.133  0.00  0.00    +0.000 N 
ATOM     11  C   UNL     1      -5.978   5.032 130.244  0.00  0.00    +0.000 C 
ATOM     12  C   UNL     1      -5.948   6.293 131.073  0.00  0.00    +0.000 C 
ATOM     13  C   UNL     1      -7.528   6.540 131.840  0.00  0.00    +0.000 C 
ATOM     14  C   UNL     1      -7.232   5.173 132.872  0.00  0.00    +0.000 C 
ATOM     15  C   UNL     1      -7.131   3.903 132.085  0.00  0.00    +0.000 C 
BRANCH  13  16
ATOM     16  N   UNL     1      -8.822   7.307 130.754  0.00  0.00    +0.000 N 
ATOM     17  C   UNL     1      -9.678   6.554 131.641  0.00  0.00    +0.000 C 
ATOM     18  O   UNL     1      -9.718   6.513 132.914  0.00  0.00    +0.000 OA
ATOM     19  O   UNL     1     -10.370   5.599 131.070  0.00  0.00    +0.000 OA
ATOM     20  C   UNL     1     -11.541   6.303 131.011  0.00  0.00    +0.000 C 
ATOM     21  C   UNL     1     -11.341   6.651 129.611  0.00  0.00    +0.000 A 
ATOM     22  C   UNL     1     -12.674   6.401 128.903  0.00  0.00    +0.000 A 
ATOM     23  C   UNL     1     -13.202   7.122 127.886  0.00  0.00    +0.000 A 
ATOM     24  C   UNL     1     -12.246   8.029 127.495  0.00  0.00    +0.000 A 
ATOM     25  C   UNL     1     -10.742   8.193 128.224  0.00  0.00    +0.000 A 
ATOM     26  C   UNL     1     -10.116   7.375 129.404  0.00  0.00    +0.000 A 
ENDBRANCH  13  16
ENDBRANCH   7   8
BRANCH   1  28
ATOM     27  C   UNL     1      -5.962   1.879 127.221  0.00  0.00    +0.000 C 
ATOM     28  O   UNL     1      -7.054   2.224 128.073  0.00  0.00    +0.000 OA
ENDBRANCH   1  28
BRANCH   3  29
ATOM     29  O   UNL     1      -8.291  -2.148 129.465  0.00  0.00    +0.000 OA
BRANCH  29  30
ATOM     30  C   UNL     1      -7.594  -3.200 128.695  0.00  0.00    +0.000 C 
ATOM     31  C   UNL     1      -6.315  -2.781 127.948  0.00  0.00    +0.000 C 
ATOM     32  C   UNL     1      -6.560  -2.275 126.499  0.00  0.00    +0.000 C 
ATOM     33  N   UNL     1      -7.552  -3.071 125.692  0.00  0.00    +0.000 NA
ATOM     34  C   UNL     1      -8.722  -3.663 126.422  0.00  0.00    +0.000 C 
ATOM     35  C   UNL     1      -8.419  -4.162 127.819  0.00  0.00    +0.000 C 
BRANCH  33  36
ATOM     36  C   UNL     1      -8.013  -2.403 124.422  0.00  0.00    +0.000 C 
ATOM     37  C   UNL     1      -7.019  -2.057 123.259  0.00  0.00    +0.000 C 
ATOM     38  C   UNL     1      -6.795  -0.579 123.053  0.00  0.00    +0.000 C 
ATOM     39  C   UNL     1      -7.800  -0.041 123.967  0.00  0.00    +0.000 A 
ATOM     40  C   UNL     1      -8.526  -0.995 124.688  0.00  0.00    +0.000 A 
ATOM     41  C   UNL     1      -9.428  -0.552 125.634  0.00  0.00    +0.000 A 
ATOM     42  C   UNL     1      -9.575   0.827 125.819  0.00  0.00    +0.000 A 
ATOM     43  C   UNL     1      -8.823   1.743 125.069  0.00  0.00    +0.000 A 
ATOM     44  N   UNL     1      -7.908   1.315 124.143  0.00  0.00    +0.000 N 
ATOM     45  O   UNL     1      -7.189   2.131 123.496  0.00  0.00    +0.000 OA
ENDBRANCH  33  36
ENDBRANCH  29  30
ENDBRANCH   3  29
TORSDOF 6
ENDMDL
MODEL 9
REMARK VINA RESULT:     -10.9      2.553      9.260
REMARK  Name = CHEMBL68816
REMARK  7 active torsions:
REMARK  status: ('A' for Active; 'I' for Inactive)
REMARK    1  A    between atoms: C_1  and  O_2
REMARK    2  A    between atoms: O_2  and  C_3
REMARK    3  A    between atoms: C_5  and  O_6
REMARK    4  A    between atoms: O_6  and  C_7
REMARK    5  A    between atoms: N_10  and  C_11
REMARK    6  A    between atoms: C_26  and  C_27
REMARK    7  A    between atoms: C_32  and  N_33
REMARK                            x       y       z     vdW  Elec       q    Type
REMARK                         _______ _______ _______ _____ _____    ______ ____
ROOT
ATOM      1  C   UNL     1      -6.362   0.574 132.952  0.00  0.00    +0.000 A 
ATOM      2  C   UNL     1      -6.555   1.986 133.146  0.00  0.00    +0.000 A 
ATOM      3  C   UNL     1      -7.685   2.586 132.712  0.00  0.00    +0.000 A 
ATOM      4  C   UNL     1      -8.490   1.681 132.123  0.00  0.00    +0.000 A 
ATOM      5  F   UNL     1      -9.296   2.221 131.285  0.00  0.00    +0.000 F 
ATOM      6  C   UNL     1      -8.497   0.298 132.148  0.00  0.00    +0.000 A 
ATOM      7  C   UNL     1      -7.337  -0.302 132.449  0.00  0.00    +0.000 A 
ENDROOT
BRANCH   7   8
ATOM      8  C   UNL     1      -7.301  -1.743 132.042  0.00  0.00    +0.000 C 
ATOM      9  O   UNL     1      -7.483  -2.636 132.874  0.00  0.00    +0.000 OA
ATOM     10  N   UNL     1      -7.104  -2.034 130.712  0.00  0.00    +0.000 N 
ATOM     11  C   UNL     1      -8.235  -2.500 129.935  0.00  0.00    +0.000 C 
ATOM     12  C   UNL     1      -7.733  -3.408 128.839  0.00  0.00    +0.000 C 
ATOM     13  C   UNL     1      -6.845  -2.454 127.635  0.00  0.00    +0.000 C 
ATOM     14  C   UNL     1      -5.572  -2.195 128.790  0.00  0.00    +0.000 C 
ATOM     15  C   UNL     1      -6.049  -1.398 129.964  0.00  0.00    +0.000 C 
BRANCH  13  16
ATOM     16  N   UNL     1      -7.903  -1.570 126.393  0.00  0.00    +0.000 N 
ATOM     17  C   UNL     1      -6.688  -1.691 125.621  0.00  0.00    +0.000 C 
ATOM     18  O   UNL     1      -5.962  -2.709 125.375  0.00  0.00    +0.000 OA
ATOM     19  O   UNL     1      -6.112  -0.557 125.308  0.00  0.00    +0.000 OA
ATOM     20  C   UNL     1      -6.580  -0.524 124.022  0.00  0.00    +0.000 C 
ATOM     21  C   UNL     1      -7.649   0.404 124.362  0.00  0.00    +0.000 A 
ATOM     22  C   UNL     1      -7.652   1.486 123.280  0.00  0.00    +0.000 A 
ATOM     23  C   UNL     1      -8.733   2.119 122.767  0.00  0.00    +0.000 A 
ATOM     24  C   UNL     1      -9.821   1.727 123.510  0.00  0.00    +0.000 A 
ATOM     25  C   UNL     1      -9.757   0.622 124.772  0.00  0.00    +0.000 A 
ATOM     26  C   UNL     1      -8.521  -0.126 125.376  0.00  0.00    +0.000 A 
ENDBRANCH  13  16
ENDBRANCH   7   8
BRANCH   1  28
ATOM     27  C   UNL     1      -4.198   0.789 132.315  0.00  0.00    +0.000 C 
ATOM     28  O   UNL     1      -5.105   0.135 133.202  0.00  0.00    +0.000 OA
ENDBRANCH   1  28
BRANCH   3  29
ATOM     29  O   UNL     1      -7.930   3.925 132.710  0.00  0.00    +0.000 OA
BRANCH  29  30
ATOM     30  C   UNL     1      -7.257   4.870 131.793  0.00  0.00    +0.000 C 
ATOM     31  C   UNL     1      -7.663   6.351 131.903  0.00  0.00    +0.000 C 
ATOM     32  C   UNL     1      -8.856   6.754 130.992  0.00  0.00    +0.000 C 
ATOM     33  N   UNL     1      -8.825   6.191 129.595  0.00  0.00    +0.000 NA
ATOM     34  C   UNL     1      -8.256   4.813 129.417  0.00  0.00    +0.000 C 
ATOM     35  C   UNL     1      -7.081   4.485 130.313  0.00  0.00    +0.000 C 
BRANCH  33  36
ATOM     36  C   UNL     1     -10.118   6.324 128.833  0.00  0.00    +0.000 C 
ATOM     37  C   UNL     1     -10.292   7.362 127.670  0.00  0.00    +0.000 C 
ATOM     38  C   UNL     1     -11.247   8.489 127.982  0.00  0.00    +0.000 C 
ATOM     39  C   UNL     1     -11.785   8.019 129.256  0.00  0.00    +0.000 A 
ATOM     40  C   UNL     1     -11.245   6.818 129.728  0.00  0.00    +0.000 A 
ATOM     41  C   UNL     1     -11.645   6.364 130.969  0.00  0.00    +0.000 A 
ATOM     42  C   UNL     1     -12.574   7.124 131.687  0.00  0.00    +0.000 A 
ATOM     43  C   UNL     1     -13.086   8.323 131.169  0.00  0.00    +0.000 A 
ATOM     44  N   UNL     1     -12.680   8.795 129.948  0.00  0.00    +0.000 N 
ATOM     45  O   UNL     1     -13.098   9.898 129.492  0.00  0.00    +0.000 OA
ENDBRANCH  33  36
ENDBRANCH  29  30
ENDBRANCH   3  29
TORSDOF 6
ENDMDL
