MODEL 1
REMARK VINA RESULT:      -9.3      0.000      0.000
REMARK  Name = CHEMBL4206233
REMARK  3 active torsions:
REMARK  status: ('A' for Active; 'I' for Inactive)
REMARK    1  A    between atoms: C_1  and  C_2
REMARK    2  A    between atoms: N_5  and  C_6
REMARK    3  A    between atoms: C_9  and  C_10
REMARK                            x       y       z     vdW  Elec       q    Type
REMARK                         _______ _______ _______ _____ _____    ______ ____
ROOT
ATOM      1  C   UNL     1      -4.004   3.586 128.117  0.00  0.00    +0.000 C 
ATOM      2  O   UNL     1      -3.091   2.910 127.427  0.00  0.00    +0.000 OA
ATOM      3  N   UNL     1      -3.578   4.285 129.918  0.00  0.00    +0.000 N 
ATOM      4  C   UNL     1      -2.878   4.678 128.766  0.00  0.00    +0.000 C 
ATOM      5  C   UNL     1      -3.519   5.949 129.064  0.00  0.00    +0.000 C 
ATOM      6  C   UNL     1      -2.384   6.141 129.986  0.00  0.00    +0.000 C 
ATOM      7  C   UNL     1      -3.103   7.127 130.945  0.00  0.00    +0.000 C 
ATOM      8  C   UNL     1      -2.230   6.658 131.948  0.00  0.00    +0.000 A 
ATOM      9  C   UNL     1      -1.383   8.127 132.602  0.00  0.00    +0.000 A 
ATOM     10  C   UNL     1      -0.333   8.162 133.480  0.00  0.00    +0.000 A 
ATOM     11  C   UNL     1      -0.347   6.834 133.817  0.00  0.00    +0.000 A 
ATOM     12  C   UNL     1      -1.349   5.500 132.936  0.00  0.00    +0.000 A 
ATOM     13  C   UNL     1      -2.669   4.960 131.727  0.00  0.00    +0.000 A 
ENDROOT
BRANCH   1  17
ATOM     14  C   UNL     1      -6.544   3.306 123.005  0.00  0.00    +0.000 A 
ATOM     15  C   UNL     1      -6.744   2.285 123.906  0.00  0.00    +0.000 A 
ATOM     16  C   UNL     1      -5.988   2.347 125.440  0.00  0.00    +0.000 A 
ATOM     17  C   UNL     1      -4.889   3.418 126.271  0.00  0.00    +0.000 A 
ATOM     18  C   UNL     1      -4.853   4.190 125.014  0.00  0.00    +0.000 A 
ATOM     19  C   UNL     1      -5.597   4.197 123.511  0.00  0.00    +0.000 A 
BRANCH  14  24
ATOM     20  C   UNL     1      -7.488   4.591 118.346  0.00  0.00    +0.000 C 
ATOM     21  C   UNL     1      -7.692   4.136 119.748  0.00  0.00    +0.000 A 
ATOM     22  C   UNL     1      -8.923   3.752 120.303  0.00  0.00    +0.000 A 
ATOM     23  C   UNL     1      -8.632   3.373 121.589  0.00  0.00    +0.000 A 
ATOM     24  N   UNL     1      -7.273   3.539 121.779  0.00  0.00    +0.000 N 
ATOM     25  N   UNL     1      -6.697   4.070 120.654  0.00  0.00    +0.000 NA
ENDBRANCH  14  24
ENDBRANCH   1  17
TORSDOF 2
ENDMDL
MODEL 2
REMARK VINA RESULT:      -9.0      8.081     10.280
REMARK  Name = CHEMBL4206233
REMARK  3 active torsions:
REMARK  status: ('A' for Active; 'I' for Inactive)
REMARK    1  A    between atoms: C_1  and  C_2
REMARK    2  A    between atoms: N_5  and  C_6
REMARK    3  A    between atoms: C_9  and  C_10
REMARK                            x       y       z     vdW  Elec       q    Type
REMARK                         _______ _______ _______ _____ _____    ______ ____
ROOT
ATOM      1  C   UNL     1     -10.433   4.578 131.260  0.00  0.00    +0.000 C 
ATOM      2  O   UNL     1      -9.160   4.808 131.568  0.00  0.00    +0.000 OA
ATOM      3  N   UNL     1     -11.745   6.057 131.276  0.00  0.00    +0.000 N 
ATOM      4  C   UNL     1     -10.622   6.049 130.434  0.00  0.00    +0.000 C 
ATOM      5  C   UNL     1     -11.650   5.927 129.412  0.00  0.00    +0.000 C 
ATOM      6  C   UNL     1     -11.729   7.395 129.521  0.00  0.00    +0.000 C 
ATOM      7  C   UNL     1     -13.191   7.529 129.018  0.00  0.00    +0.000 C 
ATOM      8  C   UNL     1     -13.259   8.712 129.783  0.00  0.00    +0.000 A 
ATOM      9  C   UNL     1     -13.745  10.028 128.628  0.00  0.00    +0.000 A 
ATOM     10  C   UNL     1     -13.788  11.376 128.869  0.00  0.00    +0.000 A 
ATOM     11  C   UNL     1     -13.592  11.313 130.223  0.00  0.00    +0.000 A 
ATOM     12  C   UNL     1     -13.075   9.769 131.176  0.00  0.00    +0.000 A 
ATOM     13  C   UNL     1     -12.774   7.927 131.291  0.00  0.00    +0.000 A 
ENDROOT
BRANCH   1  17
ATOM     14  C   UNL     1      -7.817  -0.355 130.042  0.00  0.00    +0.000 A 
ATOM     15  C   UNL     1      -7.903   0.613 129.067  0.00  0.00    +0.000 A 
ATOM     16  C   UNL     1      -8.686   2.095 129.409  0.00  0.00    +0.000 A 
ATOM     17  C   UNL     1      -9.535   2.798 130.762  0.00  0.00    +0.000 A 
ATOM     18  C   UNL     1      -9.334   1.500 131.433  0.00  0.00    +0.000 A 
ATOM     19  C   UNL     1      -8.546   0.044 131.162  0.00  0.00    +0.000 A 
BRANCH  14  24
ATOM     20  C   UNL     1      -3.958  -3.315 129.269  0.00  0.00    +0.000 C 
ATOM     21  C   UNL     1      -5.323  -2.852 129.640  0.00  0.00    +0.000 A 
ATOM     22  C   UNL     1      -6.341  -3.667 130.159  0.00  0.00    +0.000 A 
ATOM     23  C   UNL     1      -7.394  -2.818 130.392  0.00  0.00    +0.000 A 
ATOM     24  N   UNL     1      -7.002  -1.548 130.013  0.00  0.00    +0.000 N 
ATOM     25  N   UNL     1      -5.735  -1.577 129.490  0.00  0.00    +0.000 NA
ENDBRANCH  14  24
ENDBRANCH   1  17
TORSDOF 2
ENDMDL
MODEL 3
REMARK VINA RESULT:      -9.0      8.324      9.913
REMARK  Name = CHEMBL4206233
REMARK  3 active torsions:
REMARK  status: ('A' for Active; 'I' for Inactive)
REMARK    1  A    between atoms: C_1  and  C_2
REMARK    2  A    between atoms: N_5  and  C_6
REMARK    3  A    between atoms: C_9  and  C_10
REMARK                            x       y       z     vdW  Elec       q    Type
REMARK                         _______ _______ _______ _____ _____    ______ ____
ROOT
ATOM      1  C   UNL     1      -8.118   2.145 132.146  0.00  0.00    +0.000 C 
ATOM      2  O   UNL     1      -8.972   2.152 133.165  0.00  0.00    +0.000 OA
ATOM      3  N   UNL     1      -6.807   0.676 131.953  0.00  0.00    +0.000 N 
ATOM      4  C   UNL     1      -8.195   0.463 131.939  0.00  0.00    +0.000 C 
ATOM      5  C   UNL     1      -7.915   0.110 130.556  0.00  0.00    +0.000 C 
ATOM      6  C   UNL     1      -7.578  -1.213 131.112  0.00  0.00    +0.000 C 
ATOM      7  C   UNL     1      -6.620  -1.644 129.969  0.00  0.00    +0.000 C 
ATOM      8  C   UNL     1      -5.979  -2.458 130.926  0.00  0.00    +0.000 A 
ATOM      9  C   UNL     1      -6.011  -4.145 130.251  0.00  0.00    +0.000 A 
ATOM     10  C   UNL     1      -5.650  -5.304 130.884  0.00  0.00    +0.000 A 
ATOM     11  C   UNL     1      -5.088  -4.726 131.992  0.00  0.00    +0.000 A 
ATOM     12  C   UNL     1      -5.223  -2.901 132.451  0.00  0.00    +0.000 A 
ATOM     13  C   UNL     1      -5.677  -1.131 132.054  0.00  0.00    +0.000 A 
ENDROOT
BRANCH   1  17
ATOM     14  C   UNL     1     -11.544   6.439 130.568  0.00  0.00    +0.000 A 
ATOM     15  C   UNL     1     -10.976   6.465 131.821  0.00  0.00    +0.000 A 
ATOM     16  C   UNL     1      -9.951   5.187 132.315  0.00  0.00    +0.000 A 
ATOM     17  C   UNL     1      -9.388   3.679 131.641  0.00  0.00    +0.000 A 
ATOM     18  C   UNL     1     -10.265   3.982 130.494  0.00  0.00    +0.000 A 
ATOM     19  C   UNL     1     -11.249   5.225 129.946  0.00  0.00    +0.000 A 
BRANCH  14  24
ATOM     20  C   UNL     1     -13.553  10.865 129.779  0.00  0.00    +0.000 C 
ATOM     21  C   UNL     1     -13.141   9.450 129.570  0.00  0.00    +0.000 A 
ATOM     22  C   UNL     1     -13.392   8.697 128.413  0.00  0.00    +0.000 A 
ATOM     23  C   UNL     1     -12.801   7.481 128.643  0.00  0.00    +0.000 A 
ATOM     24  N   UNL     1     -12.229   7.523 129.901  0.00  0.00    +0.000 N 
ATOM     25  N   UNL     1     -12.491   8.726 130.503  0.00  0.00    +0.000 NA
ENDBRANCH  14  24
ENDBRANCH   1  17
TORSDOF 2
ENDMDL
MODEL 4
REMARK VINA RESULT:      -8.6      3.140     10.903
REMARK  Name = CHEMBL4206233
REMARK  3 active torsions:
REMARK  status: ('A' for Active; 'I' for Inactive)
REMARK    1  A    between atoms: C_1  and  C_2
REMARK    2  A    between atoms: N_5  and  C_6
REMARK    3  A    between atoms: C_9  and  C_10
REMARK                            x       y       z     vdW  Elec       q    Type
REMARK                         _______ _______ _______ _____ _____    ______ ____
ROOT
ATOM      1  C   UNL     1      -4.594   2.757 126.271  0.00  0.00    +0.000 C 
ATOM      2  O   UNL     1      -3.323   2.374 126.197  0.00  0.00    +0.000 OA
ATOM      3  N   UNL     1      -5.999   1.744 125.317  0.00  0.00    +0.000 N 
ATOM      4  C   UNL     1      -5.194   1.170 126.313  0.00  0.00    +0.000 C 
ATOM      5  C   UNL     1      -6.464   1.128 127.021  0.00  0.00    +0.000 C 
ATOM      6  C   UNL     1      -6.674  -0.126 126.275  0.00  0.00    +0.000 C 
ATOM      7  C   UNL     1      -8.225  -0.099 126.319  0.00  0.00    +0.000 C 
ATOM      8  C   UNL     1      -8.189  -0.851 125.126  0.00  0.00    +0.000 A 
ATOM      9  C   UNL     1      -9.153  -2.357 125.454  0.00  0.00    +0.000 A 
ATOM     10  C   UNL     1      -9.274  -3.461 124.653  0.00  0.00    +0.000 A 
ATOM     11  C   UNL     1      -8.666  -2.934 123.544  0.00  0.00    +0.000 A 
ATOM     12  C   UNL     1      -7.710  -1.309 123.497  0.00  0.00    +0.000 A 
ATOM     13  C   UNL     1      -7.180   0.314 124.261  0.00  0.00    +0.000 A 
ENDROOT
BRANCH   1  17
ATOM     14  C   UNL     1      -2.270   6.092 130.288  0.00  0.00    +0.000 A 
ATOM     15  C   UNL     1      -2.137   6.449 128.966  0.00  0.00    +0.000 A 
ATOM     16  C   UNL     1      -2.821   5.462 127.748  0.00  0.00    +0.000 A 
ATOM     17  C   UNL     1      -3.695   3.953 127.679  0.00  0.00    +0.000 A 
ATOM     18  C   UNL     1      -3.496   3.889 129.139  0.00  0.00    +0.000 A 
ATOM     19  C   UNL     1      -2.875   4.839 130.375  0.00  0.00    +0.000 A 
BRANCH  14  24
ATOM     20  C   UNL     1       0.189   8.010 134.100  0.00  0.00    +0.000 C 
ATOM     21  C   UNL     1      -0.907   7.722 133.135  0.00  0.00    +0.000 A 
ATOM     22  C   UNL     1      -2.177   8.319 133.151  0.00  0.00    +0.000 A 
ATOM     23  C   UNL     1      -2.833   7.792 132.068  0.00  0.00    +0.000 A 
ATOM     24  N   UNL     1      -1.973   6.908 131.444  0.00  0.00    +0.000 N 
ATOM     25  N   UNL     1      -0.795   6.819 132.141  0.00  0.00    +0.000 NA
ENDBRANCH  14  24
ENDBRANCH   1  17
TORSDOF 2
ENDMDL
MODEL 5
REMARK VINA RESULT:      -8.1      2.549      3.314
REMARK  Name = CHEMBL4206233
REMARK  3 active torsions:
REMARK  status: ('A' for Active; 'I' for Inactive)
REMARK    1  A    between atoms: C_1  and  C_2
REMARK    2  A    between atoms: N_5  and  C_6
REMARK    3  A    between atoms: C_9  and  C_10
REMARK                            x       y       z     vdW  Elec       q    Type
REMARK                         _______ _______ _______ _____ _____    ______ ____
ROOT
ATOM      1  C   UNL     1      -3.392   3.839 128.991  0.00  0.00    +0.000 C 
ATOM      2  O   UNL     1      -2.670   3.769 127.876  0.00  0.00    +0.000 OA
ATOM      3  N   UNL     1      -2.673   4.754 130.589  0.00  0.00    +0.000 N 
ATOM      4  C   UNL     1      -2.878   5.412 129.366  0.00  0.00    +0.000 C 
ATOM      5  C   UNL     1      -3.892   6.103 130.148  0.00  0.00    +0.000 C 
ATOM      6  C   UNL     1      -2.771   6.959 130.578  0.00  0.00    +0.000 C 
ATOM      7  C   UNL     1      -3.400   7.409 131.923  0.00  0.00    +0.000 C 
ATOM      8  C   UNL     1      -2.081   7.579 132.389  0.00  0.00    +0.000 A 
ATOM      9  C   UNL     1      -1.967   9.302 132.957  0.00  0.00    +0.000 A 
ATOM     10  C   UNL     1      -0.843   9.979 133.347  0.00  0.00    +0.000 A 
ATOM     11  C   UNL     1       0.003   8.903 133.378  0.00  0.00    +0.000 A 
ATOM     12  C   UNL     1      -0.393   7.190 132.694  0.00  0.00    +0.000 A 
ATOM     13  C   UNL     1      -1.586   5.926 132.005  0.00  0.00    +0.000 A 
ENDROOT
BRANCH   1  17
ATOM     14  C   UNL     1      -7.109   1.577 125.286  0.00  0.00    +0.000 A 
ATOM     15  C   UNL     1      -6.209   2.516 124.838  0.00  0.00    +0.000 A 
ATOM     16  C   UNL     1      -5.091   3.209 125.932  0.00  0.00    +0.000 A 
ATOM     17  C   UNL     1      -4.748   3.094 127.639  0.00  0.00    +0.000 A 
ATOM     18  C   UNL     1      -5.914   2.192 127.708  0.00  0.00    +0.000 A 
ATOM     19  C   UNL     1      -7.007   1.455 126.672  0.00  0.00    +0.000 A 
BRANCH  14  24
ATOM     20  C   UNL     1      -9.035  -2.496 123.297  0.00  0.00    +0.000 C 
ATOM     21  C   UNL     1      -8.770  -1.059 123.580  0.00  0.00    +0.000 A 
ATOM     22  C   UNL     1      -9.438   0.020 122.980  0.00  0.00    +0.000 A 
ATOM     23  C   UNL     1      -8.906   1.140 123.567  0.00  0.00    +0.000 A 
ATOM     24  N   UNL     1      -7.952   0.724 124.477  0.00  0.00    +0.000 N 
ATOM     25  N   UNL     1      -7.824  -0.640 124.444  0.00  0.00    +0.000 NA
ENDBRANCH  14  24
ENDBRANCH   1  17
TORSDOF 2
ENDMDL
MODEL 6
REMARK VINA RESULT:      -8.1      3.341      3.975
REMARK  Name = CHEMBL4206233
REMARK  3 active torsions:
REMARK  status: ('A' for Active; 'I' for Inactive)
REMARK    1  A    between atoms: C_1  and  C_2
REMARK    2  A    between atoms: N_5  and  C_6
REMARK    3  A    between atoms: C_9  and  C_10
REMARK                            x       y       z     vdW  Elec       q    Type
REMARK                         _______ _______ _______ _____ _____    ______ ____
ROOT
ATOM      1  C   UNL     1      -5.408   4.133 129.069  0.00  0.00    +0.000 C 
ATOM      2  O   UNL     1      -6.036   3.177 129.748  0.00  0.00    +0.000 OA
ATOM      3  N   UNL     1      -4.563   5.644 130.025  0.00  0.00    +0.000 N 
ATOM      4  C   UNL     1      -4.177   4.309 130.224  0.00  0.00    +0.000 C 
ATOM      5  C   UNL     1      -2.957   4.787 129.593  0.00  0.00    +0.000 C 
ATOM      6  C   UNL     1      -2.601   5.237 130.952  0.00  0.00    +0.000 C 
ATOM      7  C   UNL     1      -1.632   6.367 130.515  0.00  0.00    +0.000 C 
ATOM      8  C   UNL     1      -1.953   7.000 131.732  0.00  0.00    +0.000 A 
ATOM      9  C   UNL     1      -0.373   7.274 132.588  0.00  0.00    +0.000 A 
ATOM     10  C   UNL     1      -0.184   7.716 133.870  0.00  0.00    +0.000 A 
ATOM     11  C   UNL     1      -1.484   8.066 134.124  0.00  0.00    +0.000 A 
ATOM     12  C   UNL     1      -2.959   7.634 133.029  0.00  0.00    +0.000 A 
ATOM     13  C   UNL     1      -3.695   6.991 131.435  0.00  0.00    +0.000 A 
ENDROOT
BRANCH   1  17
ATOM     14  C   UNL     1      -6.610   0.210 125.091  0.00  0.00    +0.000 A 
ATOM     15  C   UNL     1      -5.476   0.058 125.856  0.00  0.00    +0.000 A 
ATOM     16  C   UNL     1      -5.096   1.224 127.049  0.00  0.00    +0.000 A 
ATOM     17  C   UNL     1      -5.772   2.731 127.612  0.00  0.00    +0.000 A 
ATOM     18  C   UNL     1      -6.767   2.570 126.534  0.00  0.00    +0.000 A 
ATOM     19  C   UNL     1      -7.205   1.439 125.375  0.00  0.00    +0.000 A 
BRANCH  14  24
ATOM     20  C   UNL     1      -9.599  -3.363 123.494  0.00  0.00    +0.000 C 
ATOM     21  C   UNL     1      -8.496  -2.365 123.532  0.00  0.00    +0.000 A 
ATOM     22  C   UNL     1      -7.595  -2.115 122.485  0.00  0.00    +0.000 A 
ATOM     23  C   UNL     1      -6.792  -1.100 122.941  0.00  0.00    +0.000 A 
ATOM     24  N   UNL     1      -7.209  -0.775 124.218  0.00  0.00    +0.000 N 
ATOM     25  N   UNL     1      -8.230  -1.601 124.610  0.00  0.00    +0.000 NA
ENDBRANCH  14  24
ENDBRANCH   1  17
TORSDOF 2
ENDMDL
MODEL 7
REMARK VINA RESULT:      -8.0      8.104     11.243
REMARK  Name = CHEMBL4206233
REMARK  3 active torsions:
REMARK  status: ('A' for Active; 'I' for Inactive)
REMARK    1  A    between atoms: C_1  and  C_2
REMARK    2  A    between atoms: N_5  and  C_6
REMARK    3  A    between atoms: C_9  and  C_10
REMARK                            x       y       z     vdW  Elec       q    Type
REMARK                         _______ _______ _______ _____ _____    ______ ____
ROOT
ATOM      1  C   UNL     1      -7.797   2.851 130.594  0.00  0.00    +0.000 C 
ATOM      2  O   UNL     1      -7.566   2.215 129.449  0.00  0.00    +0.000 OA
ATOM      3  N   UNL     1      -8.507   4.696 130.584  0.00  0.00    +0.000 N 
ATOM      4  C   UNL     1      -9.202   3.613 130.024  0.00  0.00    +0.000 C 
ATOM      5  C   UNL     1     -10.108   3.894 131.127  0.00  0.00    +0.000 C 
ATOM      6  C   UNL     1     -10.674   4.906 130.216  0.00  0.00    +0.000 C 
ATOM      7  C   UNL     1     -11.251   5.833 131.319  0.00  0.00    +0.000 C 
ATOM      8  C   UNL     1     -11.102   6.887 130.395  0.00  0.00    +0.000 A 
ATOM      9  C   UNL     1     -12.746   7.644 130.230  0.00  0.00    +0.000 A 
ATOM     10  C   UNL     1     -13.137   8.601 129.332  0.00  0.00    +0.000 A 
ATOM     11  C   UNL     1     -11.891   8.900 128.848  0.00  0.00    +0.000 A 
ATOM     12  C   UNL     1     -10.324   7.910 129.194  0.00  0.00    +0.000 A 
ATOM     13  C   UNL     1      -9.382   6.588 130.122  0.00  0.00    +0.000 A 
ENDROOT
BRANCH   1  17
ATOM     14  C   UNL     1      -6.749  -2.416 132.551  0.00  0.00    +0.000 A 
ATOM     15  C   UNL     1      -5.773  -1.765 131.830  0.00  0.00    +0.000 A 
ATOM     16  C   UNL     1      -6.068  -0.190 131.232  0.00  0.00    +0.000 A 
ATOM     17  C   UNL     1      -7.401   0.938 131.229  0.00  0.00    +0.000 A 
ATOM     18  C   UNL     1      -8.168  -0.125 131.906  0.00  0.00    +0.000 A 
ATOM     19  C   UNL     1      -7.918  -1.656 132.545  0.00  0.00    +0.000 A 
BRANCH  14  24
ATOM     20  C   UNL     1      -7.558  -5.863 135.973  0.00  0.00    +0.000 C 
ATOM     21  C   UNL     1      -6.931  -5.120 134.846  0.00  0.00    +0.000 A 
ATOM     22  C   UNL     1      -5.795  -5.538 134.134  0.00  0.00    +0.000 A 
ATOM     23  C   UNL     1      -5.606  -4.579 133.171  0.00  0.00    +0.000 A 
ATOM     24  N   UNL     1      -6.597  -3.628 133.323  0.00  0.00    +0.000 N 
ATOM     25  N   UNL     1      -7.387  -3.932 134.402  0.00  0.00    +0.000 NA
ENDBRANCH  14  24
ENDBRANCH   1  17
TORSDOF 2
ENDMDL
MODEL 8
REMARK VINA RESULT:      -8.0      8.079      9.959
REMARK  Name = CHEMBL4206233
REMARK  3 active torsions:
REMARK  status: ('A' for Active; 'I' for Inactive)
REMARK    1  A    between atoms: C_1  and  C_2
REMARK    2  A    between atoms: N_5  and  C_6
REMARK    3  A    between atoms: C_9  and  C_10
REMARK                            x       y       z     vdW  Elec       q    Type
REMARK                         _______ _______ _______ _____ _____    ______ ____
ROOT
ATOM      1  C   UNL     1      -6.831   0.715 130.971  0.00  0.00    +0.000 C 
ATOM      2  O   UNL     1      -5.942   1.637 131.328  0.00  0.00    +0.000 OA
ATOM      3  N   UNL     1      -6.418  -1.207 131.188  0.00  0.00    +0.000 N 
ATOM      4  C   UNL     1      -6.464  -0.313 132.270  0.00  0.00    +0.000 C 
ATOM      5  C   UNL     1      -7.621  -1.123 132.618  0.00  0.00    +0.000 C 
ATOM      6  C   UNL     1      -6.627  -2.025 133.227  0.00  0.00    +0.000 C 
ATOM      7  C   UNL     1      -7.481  -3.318 133.129  0.00  0.00    +0.000 C 
ATOM      8  C   UNL     1      -6.260  -4.022 133.089  0.00  0.00    +0.000 A 
ATOM      9  C   UNL     1      -6.326  -5.217 134.457  0.00  0.00    +0.000 A 
ATOM     10  C   UNL     1      -5.313  -6.016 134.916  0.00  0.00    +0.000 A 
ATOM     11  C   UNL     1      -4.427  -5.769 133.901  0.00  0.00    +0.000 A 
ATOM     12  C   UNL     1      -4.622  -4.427 132.591  0.00  0.00    +0.000 A 
ATOM     13  C   UNL     1      -5.627  -3.120 131.707  0.00  0.00    +0.000 A 
ENDROOT
BRANCH   1  17
ATOM     14  C   UNL     1     -10.030   5.436 130.592  0.00  0.00    +0.000 A 
ATOM     15  C   UNL     1      -9.134   5.155 129.586  0.00  0.00    +0.000 A 
ATOM     16  C   UNL     1      -8.164   3.749 129.683  0.00  0.00    +0.000 A 
ATOM     17  C   UNL     1      -7.920   2.451 130.824  0.00  0.00    +0.000 A 
ATOM     18  C   UNL     1      -8.871   3.172 131.691  0.00  0.00    +0.000 A 
ATOM     19  C   UNL     1      -9.871   4.517 131.629  0.00  0.00    +0.000 A 
BRANCH  14  24
ATOM     20  C   UNL     1     -12.800   9.219 129.088  0.00  0.00    +0.000 C 
ATOM     21  C   UNL     1     -12.272   8.109 129.927  0.00  0.00    +0.000 A 
ATOM     22  C   UNL     1     -12.807   7.701 131.159  0.00  0.00    +0.000 A 
ATOM     23  C   UNL     1     -12.039   6.632 131.544  0.00  0.00    +0.000 A 
ATOM     24  N   UNL     1     -11.080   6.429 130.569  0.00  0.00    +0.000 N 
ATOM     25  N   UNL     1     -11.187   7.384 129.591  0.00  0.00    +0.000 NA
ENDBRANCH  14  24
ENDBRANCH   1  17
TORSDOF 2
ENDMDL
MODEL 9
REMARK VINA RESULT:      -7.8      3.396     10.951
REMARK  Name = CHEMBL4206233
REMARK  3 active torsions:
REMARK  status: ('A' for Active; 'I' for Inactive)
REMARK    1  A    between atoms: C_1  and  C_2
REMARK    2  A    between atoms: N_5  and  C_6
REMARK    3  A    between atoms: C_9  and  C_10
REMARK                            x       y       z     vdW  Elec       q    Type
REMARK                         _______ _______ _______ _____ _____    ______ ____
ROOT
ATOM      1  C   UNL     1      -5.582   4.161 127.600  0.00  0.00    +0.000 C 
ATOM      2  O   UNL     1      -5.133   5.164 126.850  0.00  0.00    +0.000 OA
ATOM      3  N   UNL     1      -6.381   2.563 126.753  0.00  0.00    +0.000 N 
ATOM      4  C   UNL     1      -5.056   2.962 126.520  0.00  0.00    +0.000 C 
ATOM      5  C   UNL     1      -4.779   1.725 127.233  0.00  0.00    +0.000 C 
ATOM      6  C   UNL     1      -4.965   1.092 125.915  0.00  0.00    +0.000 C 
ATOM      7  C   UNL     1      -5.371  -0.308 126.449  0.00  0.00    +0.000 C 
ATOM      8  C   UNL     1      -6.084  -0.470 125.243  0.00  0.00    +0.000 A 
ATOM      9  C   UNL     1      -5.445  -1.993 124.484  0.00  0.00    +0.000 A 
ATOM     10  C   UNL     1      -5.717  -2.479 123.233  0.00  0.00    +0.000 A 
ATOM     11  C   UNL     1      -6.727  -1.606 122.926  0.00  0.00    +0.000 A 
ATOM     12  C   UNL     1      -7.173  -0.067 123.922  0.00  0.00    +0.000 A 
ATOM     13  C   UNL     1      -7.034   1.006 125.447  0.00  0.00    +0.000 A 
ENDROOT
BRANCH   1  17
ATOM     14  C   UNL     1      -2.761   7.254 131.491  0.00  0.00    +0.000 A 
ATOM     15  C   UNL     1      -4.136   7.306 131.467  0.00  0.00    +0.000 A 
ATOM     16  C   UNL     1      -4.999   6.391 130.307  0.00  0.00    +0.000 A 
ATOM     17  C   UNL     1      -4.605   5.332 128.977  0.00  0.00    +0.000 A 
ATOM     18  C   UNL     1      -3.196   5.658 129.268  0.00  0.00    +0.000 A 
ATOM     19  C   UNL     1      -2.302   6.507 130.406  0.00  0.00    +0.000 A 
BRANCH  14  24
ATOM     20  C   UNL     1       0.618   7.340 135.072  0.00  0.00    +0.000 C 
ATOM     21  C   UNL     1      -0.434   7.789 134.121  0.00  0.00    +0.000 A 
ATOM     22  C   UNL     1      -0.914   9.103 134.007  0.00  0.00    +0.000 A 
ATOM     23  C   UNL     1      -1.832   9.061 132.988  0.00  0.00    +0.000 A 
ATOM     24  N   UNL     1      -1.889   7.759 132.527  0.00  0.00    +0.000 N 
ATOM     25  N   UNL     1      -1.064   6.955 133.270  0.00  0.00    +0.000 NA
ENDBRANCH  14  24
ENDBRANCH   1  17
TORSDOF 2
ENDMDL
