MODEL 1
REMARK VINA RESULT:      -9.1      0.000      0.000
REMARK  Name = CHEMBL197298
REMARK  12 active torsions:
REMARK  status: ('A' for Active; 'I' for Inactive)
REMARK    1  A    between atoms: CD1_1  and  CG_2
REMARK    2  A    between atoms: CG_2  and  CD2_3
REMARK    3  A    between atoms: CG_2  and  CB_4
REMARK    4  A    between atoms: CB_4  and  CA_5
REMARK    5  A    between atoms: C_9  and  C_10
REMARK    6  A    between atoms: N_21  and  C_22
REMARK    7  A    between atoms: C_22  and  C_23
REMARK    8  A    between atoms: C_22  and  C_29
REMARK    9  A    between atoms: N_25  and  C_26
REMARK   10  A    between atoms: C_26  and  C_27
REMARK   11  A    between atoms: C_26  and  C_28
REMARK   12  A    between atoms: C_32  and  C_33
REMARK                            x       y       z     vdW  Elec       q    Type
REMARK                         _______ _______ _______ _____ _____    ______ ____
ROOT
ATOM      1  CA  LEU A   2      -5.408   3.394 127.629  0.00  0.00    +0.000 C 
ATOM      2  C   LEU A   2      -5.854   2.620 128.899  0.00  0.00    +0.000 C 
ATOM      3  O   LEU A   2      -5.248   1.689 129.436  0.00  0.00    +0.000 OA
ATOM      4  N   UNK A   1      -6.984   3.104 129.478  0.00  0.00    +0.000 N 
ATOM      5  C   UNK A   1      -7.644   4.318 129.037  0.00  0.00    +0.000 C 
ATOM      6  C   UNK A   1      -7.718   4.314 127.541  0.00  0.00    +0.000 C 
ATOM      7  O   UNK A   1      -8.677   4.887 127.018  0.00  0.00    +0.000 OA
ATOM      8  N   LEU A   2      -6.697   3.658 126.869  0.00  0.00    +0.000 N 
ATOM      9  H   UNK A   1      -7.284   2.609 130.309  0.00  0.00    +0.000 HD
ENDROOT
BRANCH   5  10
ATOM     10  C   UNK A   1      -9.134   4.408 129.460  0.00  0.00    +0.000 C 
ATOM     11  C   UNK A   1      -9.382   5.673 130.266  0.00  0.00    +0.000 C 
ATOM     12  C   UNK A   1      -9.139   5.161 131.649  0.00  0.00    +0.000 A 
ATOM     13  C   UNK A   1      -8.735   5.894 132.744  0.00  0.00    +0.000 A 
ATOM     14  C   UNK A   1      -8.433   5.204 133.917  0.00  0.00    +0.000 A 
ATOM     15  C   UNK A   1      -8.525   3.804 133.980  0.00  0.00    +0.000 A 
ATOM     16  C   UNK A   1      -8.916   3.064 132.864  0.00  0.00    +0.000 A 
ATOM     17  C   UNK A   1      -9.226   3.760 131.708  0.00  0.00    +0.000 A 
ATOM     18  C   UNK A   1      -9.552   3.202 130.362  0.00  0.00    +0.000 C 
ENDBRANCH   5  10
BRANCH   1  19
ATOM     19  CB  LEU A   2      -4.178   2.660 127.017  0.00  0.00    +0.000 C 
BRANCH  19  21
ATOM     20  CD1 LEU A   2      -1.611   3.000 126.352  0.00  0.00    +0.000 C 
ATOM     21  CG  LEU A   2      -2.696   3.121 127.404  0.00  0.00    +0.000 C 
ATOM     22  CD2 LEU A   2      -2.478   4.536 127.864  0.00  0.00    +0.000 C 
ENDBRANCH  19  21
ENDBRANCH   1  19
BRANCH   8  23
ATOM     23  C   UNK A   0      -7.085   3.110 125.555  0.00  0.00    +0.000 C 
BRANCH  23  24
ATOM     24  C   UNK A   0      -7.463   1.615 125.450  0.00  0.00    +0.000 A 
ATOM     25  C   UNK A   0      -8.729   1.244 125.833  0.00  0.00    +0.000 A 
ATOM     26  C   UNK A   0      -9.112  -0.062 125.822  0.00  0.00    +0.000 A 
ATOM     27  C   UNK A   0      -8.286  -1.020 125.253  0.00  0.00    +0.000 A 
ATOM     28  C   UNK A   0      -6.956  -0.724 124.964  0.00  0.00    +0.000 A 
ATOM     29  C   UNK A   0      -6.517   0.578 125.178  0.00  0.00    +0.000 A 
BRANCH  27  30
ATOM     30  C   UNK A   0      -8.862  -2.323 124.862  0.00  0.00    +0.000 C 
ATOM     31  N   UNK A   0      -8.382  -3.420 125.544  0.00  0.00    +0.000 N 
ATOM     32  O   UNK A   0      -9.730  -2.414 124.034  0.00  0.00    +0.000 OA
ATOM     33  H   UNK A   0      -7.723  -3.391 126.303  0.00  0.00    +0.000 HD
ATOM     34  H   UNK A   0      -8.798  -4.310 125.330  0.00  0.00    +0.000 HD
ENDBRANCH  27  30
ENDBRANCH  23  24
BRANCH  23  35
ATOM     35  C   UNK A   0      -6.610   3.892 124.160  0.00  0.00    +0.000 C 
ATOM     36  O   UNK A   0      -5.702   4.719 124.092  0.00  0.00    +0.000 OA
ATOM     37  N   UNK A   0      -7.103   3.473 122.940  0.00  0.00    +0.000 N 
ATOM     38  H   UNK A   0      -7.238   2.500 122.906  0.00  0.00    +0.000 HD
BRANCH  37  39
ATOM     39  C   UNK A   0      -6.667   3.875 121.599  0.00  0.00    +0.000 C 
ATOM     40  C   UNK A   0      -5.558   2.944 121.093  0.00  0.00    +0.000 C 
ATOM     41  C   UNK A   0      -7.840   3.868 120.578  0.00  0.00    +0.000 C 
ENDBRANCH  37  39
ENDBRANCH  23  35
ENDBRANCH   8  23
TORSDOF 8
ENDMDL
MODEL 2
REMARK VINA RESULT:      -9.0      3.457      7.621
REMARK  Name = CHEMBL197298
REMARK  12 active torsions:
REMARK  status: ('A' for Active; 'I' for Inactive)
REMARK    1  A    between atoms: CD1_1  and  CG_2
REMARK    2  A    between atoms: CG_2  and  CD2_3
REMARK    3  A    between atoms: CG_2  and  CB_4
REMARK    4  A    between atoms: CB_4  and  CA_5
REMARK    5  A    between atoms: C_9  and  C_10
REMARK    6  A    between atoms: N_21  and  C_22
REMARK    7  A    between atoms: C_22  and  C_23
REMARK    8  A    between atoms: C_22  and  C_29
REMARK    9  A    between atoms: N_25  and  C_26
REMARK   10  A    between atoms: C_26  and  C_27
REMARK   11  A    between atoms: C_26  and  C_28
REMARK   12  A    between atoms: C_32  and  C_33
REMARK                            x       y       z     vdW  Elec       q    Type
REMARK                         _______ _______ _______ _____ _____    ______ ____
ROOT
ATOM      1  CA  LEU A   2      -6.972   2.320 132.020  0.00  0.00    +0.000 C 
ATOM      2  C   LEU A   2      -5.674   1.517 131.734  0.00  0.00    +0.000 C 
ATOM      3  O   LEU A   2      -4.597   1.638 132.324  0.00  0.00    +0.000 OA
ATOM      4  N   UNK A   1      -5.813   0.552 130.788  0.00  0.00    +0.000 N 
ATOM      5  C   UNK A   1      -7.090   0.203 130.194  0.00  0.00    +0.000 C 
ATOM      6  C   UNK A   1      -7.824   1.461 129.846  0.00  0.00    +0.000 C 
ATOM      7  O   UNK A   1      -8.583   1.427 128.875  0.00  0.00    +0.000 OA
ATOM      8  N   LEU A   2      -7.580   2.566 130.650  0.00  0.00    +0.000 N 
ATOM      9  H   UNK A   1      -4.974   0.019 130.595  0.00  0.00    +0.000 HD
ENDROOT
BRANCH   5  10
ATOM     10  C   UNK A   1      -6.964  -0.518 128.825  0.00  0.00    +0.000 C 
ATOM     11  C   UNK A   1      -7.638  -1.880 128.878  0.00  0.00    +0.000 C 
ATOM     12  C   UNK A   1      -6.485  -2.732 129.302  0.00  0.00    +0.000 A 
ATOM     13  C   UNK A   1      -6.547  -3.929 129.981  0.00  0.00    +0.000 A 
ATOM     14  C   UNK A   1      -5.349  -4.504 130.404  0.00  0.00    +0.000 A 
ATOM     15  C   UNK A   1      -4.117  -3.876 130.158  0.00  0.00    +0.000 A 
ATOM     16  C   UNK A   1      -4.060  -2.654 129.488  0.00  0.00    +0.000 A 
ATOM     17  C   UNK A   1      -5.254  -2.099 129.061  0.00  0.00    +0.000 A 
ATOM     18  C   UNK A   1      -5.471  -0.761 128.434  0.00  0.00    +0.000 C 
ENDBRANCH   5  10
BRANCH   1  19
ATOM     19  CB  LEU A   2      -6.630   3.456 133.030  0.00  0.00    +0.000 C 
BRANCH  19  21
ATOM     20  CD1 LEU A   2      -7.887   5.491 134.226  0.00  0.00    +0.000 C 
ATOM     21  CG  LEU A   2      -7.749   3.991 134.041  0.00  0.00    +0.000 C 
ATOM     22  CD2 LEU A   2      -9.182   3.609 133.798  0.00  0.00    +0.000 C 
ENDBRANCH  19  21
ENDBRANCH   1  19
BRANCH   8  23
ATOM     23  C   UNK A   0      -7.752   3.864 129.970  0.00  0.00    +0.000 C 
BRANCH  23  24
ATOM     24  C   UNK A   0      -9.012   4.707 130.272  0.00  0.00    +0.000 A 
ATOM     25  C   UNK A   0      -8.833   6.003 130.688  0.00  0.00    +0.000 A 
ATOM     26  C   UNK A   0      -9.894   6.786 131.027  0.00  0.00    +0.000 A 
ATOM     27  C   UNK A   0     -11.185   6.341 130.788  0.00  0.00    +0.000 A 
ATOM     28  C   UNK A   0     -11.427   5.002 130.487  0.00  0.00    +0.000 A 
ATOM     29  C   UNK A   0     -10.331   4.158 130.345  0.00  0.00    +0.000 A 
BRANCH  27  30
ATOM     30  C   UNK A   0     -12.288   7.323 130.753  0.00  0.00    +0.000 C 
ATOM     31  N   UNK A   0     -12.182   8.312 129.800  0.00  0.00    +0.000 N 
ATOM     32  O   UNK A   0     -13.243   7.236 131.480  0.00  0.00    +0.000 OA
ATOM     33  H   UNK A   0     -11.452   8.381 129.111  0.00  0.00    +0.000 HD
ATOM     34  H   UNK A   0     -12.947   8.960 129.725  0.00  0.00    +0.000 HD
ENDBRANCH  27  30
ENDBRANCH  23  24
BRANCH  23  35
ATOM     35  C   UNK A   0      -6.940   4.163 128.543  0.00  0.00    +0.000 C 
ATOM     36  O   UNK A   0      -7.445   4.659 127.537  0.00  0.00    +0.000 OA
ATOM     37  N   UNK A   0      -5.565   4.049 128.503  0.00  0.00    +0.000 N 
ATOM     38  H   UNK A   0      -5.142   4.324 129.346  0.00  0.00    +0.000 HD
BRANCH  37  39
ATOM     39  C   UNK A   0      -4.651   4.459 127.432  0.00  0.00    +0.000 C 
ATOM     40  C   UNK A   0      -3.326   4.960 128.018  0.00  0.00    +0.000 C 
ATOM     41  C   UNK A   0      -4.360   3.299 126.438  0.00  0.00    +0.000 C 
ENDBRANCH  37  39
ENDBRANCH  23  35
ENDBRANCH   8  23
TORSDOF 8
ENDMDL
MODEL 3
REMARK VINA RESULT:      -8.8      4.689      8.904
REMARK  Name = CHEMBL197298
REMARK  12 active torsions:
REMARK  status: ('A' for Active; 'I' for Inactive)
REMARK    1  A    between atoms: CD1_1  and  CG_2
REMARK    2  A    between atoms: CG_2  and  CD2_3
REMARK    3  A    between atoms: CG_2  and  CB_4
REMARK    4  A    between atoms: CB_4  and  CA_5
REMARK    5  A    between atoms: C_9  and  C_10
REMARK    6  A    between atoms: N_21  and  C_22
REMARK    7  A    between atoms: C_22  and  C_23
REMARK    8  A    between atoms: C_22  and  C_29
REMARK    9  A    between atoms: N_25  and  C_26
REMARK   10  A    between atoms: C_26  and  C_27
REMARK   11  A    between atoms: C_26  and  C_28
REMARK   12  A    between atoms: C_32  and  C_33
REMARK                            x       y       z     vdW  Elec       q    Type
REMARK                         _______ _______ _______ _____ _____    ______ ____
ROOT
ATOM      1  CA  LEU A   2      -8.393   3.563 131.030  0.00  0.00    +0.000 C 
ATOM      2  C   LEU A   2      -8.554   4.209 129.627  0.00  0.00    +0.000 C 
ATOM      3  O   LEU A   2      -8.065   3.795 128.573  0.00  0.00    +0.000 OA
ATOM      4  N   UNK A   1      -9.382   5.286 129.602  0.00  0.00    +0.000 N 
ATOM      5  C   UNK A   1     -10.159   5.716 130.749  0.00  0.00    +0.000 C 
ATOM      6  C   UNK A   1      -9.286   5.689 131.965  0.00  0.00    +0.000 C 
ATOM      7  O   UNK A   1      -9.525   6.509 132.855  0.00  0.00    +0.000 OA
ATOM      8  N   LEU A   2      -8.273   4.740 131.983  0.00  0.00    +0.000 N 
ATOM      9  H   UNK A   1      -9.497   5.715 128.692  0.00  0.00    +0.000 HD
ENDROOT
BRANCH   5  10
ATOM     10  C   UNK A   1     -10.611   7.199 130.676  0.00  0.00    +0.000 C 
ATOM     11  C   UNK A   1     -12.127   7.289 130.599  0.00  0.00    +0.000 C 
ATOM     12  C   UNK A   1     -12.320   7.277 129.117  0.00  0.00    +0.000 A 
ATOM     13  C   UNK A   1     -13.438   6.853 128.431  0.00  0.00    +0.000 A 
ATOM     14  C   UNK A   1     -13.370   6.796 127.040  0.00  0.00    +0.000 A 
ATOM     15  C   UNK A   1     -12.194   7.147 126.356  0.00  0.00    +0.000 A 
ATOM     16  C   UNK A   1     -11.058   7.557 127.055  0.00  0.00    +0.000 A 
ATOM     17  C   UNK A   1     -11.141   7.623 128.435  0.00  0.00    +0.000 A 
ATOM     18  C   UNK A   1     -10.045   7.914 129.407  0.00  0.00    +0.000 C 
ENDBRANCH   5  10
BRANCH   1  19
ATOM     19  CB  LEU A   2      -7.334   2.425 130.924  0.00  0.00    +0.000 C 
BRANCH  19  21
ATOM     20  CD1 LEU A   2      -9.079   0.545 131.678  0.00  0.00    +0.000 C 
ATOM     21  CG  LEU A   2      -7.800   0.895 130.941  0.00  0.00    +0.000 C 
ATOM     22  CD2 LEU A   2      -8.035   0.197 129.631  0.00  0.00    +0.000 C 
ENDBRANCH  19  21
ENDBRANCH   1  19
BRANCH   8  23
ATOM     23  C   UNK A   0      -7.096   5.121 132.787  0.00  0.00    +0.000 C 
BRANCH  23  24
ATOM     24  C   UNK A   0      -5.740   5.332 132.076  0.00  0.00    +0.000 A 
ATOM     25  C   UNK A   0      -5.663   6.313 131.118  0.00  0.00    +0.000 A 
ATOM     26  C   UNK A   0      -4.518   6.516 130.410  0.00  0.00    +0.000 A 
ATOM     27  C   UNK A   0      -3.356   5.853 130.771  0.00  0.00    +0.000 A 
ATOM     28  C   UNK A   0      -3.403   4.768 131.644  0.00  0.00    +0.000 A 
ATOM     29  C   UNK A   0      -4.632   4.438 132.206  0.00  0.00    +0.000 A 
BRANCH  27  30
ATOM     30  C   UNK A   0      -2.056   6.374 130.301  0.00  0.00    +0.000 C 
ATOM     31  N   UNK A   0      -1.115   6.613 131.279  0.00  0.00    +0.000 N 
ATOM     32  O   UNK A   0      -1.817   6.533 129.132  0.00  0.00    +0.000 OA
ATOM     33  H   UNK A   0      -1.231   6.414 132.258  0.00  0.00    +0.000 HD
ATOM     34  H   UNK A   0      -0.207   6.918 130.976  0.00  0.00    +0.000 HD
ENDBRANCH  27  30
ENDBRANCH  23  24
BRANCH  23  35
ATOM     35  C   UNK A   0      -7.073   4.797 134.424  0.00  0.00    +0.000 C 
ATOM     36  O   UNK A   0      -6.681   3.746 134.927  0.00  0.00    +0.000 OA
ATOM     37  N   UNK A   0      -7.314   5.815 135.324  0.00  0.00    +0.000 N 
ATOM     38  H   UNK A   0      -6.961   6.679 135.016  0.00  0.00    +0.000 HD
BRANCH  37  39
ATOM     39  C   UNK A   0      -7.141   5.798 136.781  0.00  0.00    +0.000 C 
ATOM     40  C   UNK A   0      -5.745   6.307 137.162  0.00  0.00    +0.000 C 
ATOM     41  C   UNK A   0      -8.211   6.662 137.506  0.00  0.00    +0.000 C 
ENDBRANCH  37  39
ENDBRANCH  23  35
ENDBRANCH   8  23
TORSDOF 8
ENDMDL
MODEL 4
REMARK VINA RESULT:      -8.7      4.517      8.038
REMARK  Name = CHEMBL197298
REMARK  12 active torsions:
REMARK  status: ('A' for Active; 'I' for Inactive)
REMARK    1  A    between atoms: CD1_1  and  CG_2
REMARK    2  A    between atoms: CG_2  and  CD2_3
REMARK    3  A    between atoms: CG_2  and  CB_4
REMARK    4  A    between atoms: CB_4  and  CA_5
REMARK    5  A    between atoms: C_9  and  C_10
REMARK    6  A    between atoms: N_21  and  C_22
REMARK    7  A    between atoms: C_22  and  C_23
REMARK    8  A    between atoms: C_22  and  C_29
REMARK    9  A    between atoms: N_25  and  C_26
REMARK   10  A    between atoms: C_26  and  C_27
REMARK   11  A    between atoms: C_26  and  C_28
REMARK   12  A    between atoms: C_32  and  C_33
REMARK                            x       y       z     vdW  Elec       q    Type
REMARK                         _______ _______ _______ _____ _____    ______ ____
ROOT
ATOM      1  CA  LEU A   2      -8.521   2.406 130.463  0.00  0.00    +0.000 C 
ATOM      2  C   LEU A   2      -8.823   3.409 129.317  0.00  0.00    +0.000 C 
ATOM      3  O   LEU A   2      -8.636   3.217 128.113  0.00  0.00    +0.000 OA
ATOM      4  N   UNK A   1      -9.419   4.559 129.726  0.00  0.00    +0.000 N 
ATOM      5  C   UNK A   1      -9.863   4.780 131.090  0.00  0.00    +0.000 C 
ATOM      6  C   UNK A   1      -8.792   4.319 132.030  0.00  0.00    +0.000 C 
ATOM      7  O   UNK A   1      -8.692   4.906 133.110  0.00  0.00    +0.000 OA
ATOM      8  N   LEU A   2      -7.995   3.268 131.599  0.00  0.00    +0.000 N 
ATOM      9  H   UNK A   1      -9.624   5.220 128.987  0.00  0.00    +0.000 HD
ENDROOT
BRANCH   5  10
ATOM     10  C   UNK A   1     -10.028   6.279 131.456  0.00  0.00    +0.000 C 
ATOM     11  C   UNK A   1     -11.499   6.630 131.609  0.00  0.00    +0.000 C 
ATOM     12  C   UNK A   1     -11.819   7.055 130.211  0.00  0.00    +0.000 A 
ATOM     13  C   UNK A   1     -13.052   7.020 129.597  0.00  0.00    +0.000 A 
ATOM     14  C   UNK A   1     -13.116   7.335 128.241  0.00  0.00    +0.000 A 
ATOM     15  C   UNK A   1     -11.958   7.665 127.517  0.00  0.00    +0.000 A 
ATOM     16  C   UNK A   1     -10.709   7.681 128.138  0.00  0.00    +0.000 A 
ATOM     17  C   UNK A   1     -10.659   7.379 129.488  0.00  0.00    +0.000 A 
ATOM     18  C   UNK A   1      -9.448   7.214 130.346  0.00  0.00    +0.000 C 
ENDBRANCH   5  10
BRANCH   1  19
ATOM     19  CB  LEU A   2      -7.740   1.199 129.862  0.00  0.00    +0.000 C 
BRANCH  19  21
ATOM     20  CD1 LEU A   2      -8.640  -0.398 131.809  0.00  0.00    +0.000 C 
ATOM     21  CG  LEU A   2      -7.675  -0.188 130.657  0.00  0.00    +0.000 C 
ATOM     22  CD2 LEU A   2      -7.873  -1.467 129.893  0.00  0.00    +0.000 C 
ENDBRANCH  19  21
ENDBRANCH   1  19
BRANCH   8  23
ATOM     23  C   UNK A   0      -6.634   3.262 132.168  0.00  0.00    +0.000 C 
BRANCH  23  24
ATOM     24  C   UNK A   0      -5.512   4.029 131.433  0.00  0.00    +0.000 A 
ATOM     25  C   UNK A   0      -5.221   5.302 131.855  0.00  0.00    +0.000 A 
ATOM     26  C   UNK A   0      -4.285   6.058 131.218  0.00  0.00    +0.000 A 
ATOM     27  C   UNK A   0      -3.484   5.487 130.241  0.00  0.00    +0.000 A 
ATOM     28  C   UNK A   0      -3.813   4.250 129.692  0.00  0.00    +0.000 A 
ATOM     29  C   UNK A   0      -4.908   3.574 130.218  0.00  0.00    +0.000 A 
BRANCH  27  30
ATOM     30  C   UNK A   0      -2.223   6.157 129.865  0.00  0.00    +0.000 C 
ATOM     31  N   UNK A   0      -2.079   6.461 128.528  0.00  0.00    +0.000 N 
ATOM     32  O   UNK A   0      -1.394   6.464 130.682  0.00  0.00    +0.000 OA
ATOM     33  H   UNK A   0      -2.775   6.309 127.819  0.00  0.00    +0.000 HD
ATOM     34  H   UNK A   0      -1.252   6.964 128.259  0.00  0.00    +0.000 HD
ENDBRANCH  27  30
ENDBRANCH  23  24
BRANCH  23  35
ATOM     35  C   UNK A   0      -6.185   2.049 133.223  0.00  0.00    +0.000 C 
ATOM     36  O   UNK A   0      -6.910   1.572 134.094  0.00  0.00    +0.000 OA
ATOM     37  N   UNK A   0      -5.003   1.367 133.016  0.00  0.00    +0.000 N 
ATOM     38  H   UNK A   0      -4.800   1.252 132.061  0.00  0.00    +0.000 HD
BRANCH  37  39
ATOM     39  C   UNK A   0      -4.528   0.152 133.686  0.00  0.00    +0.000 C 
ATOM     40  C   UNK A   0      -5.067  -1.098 132.978  0.00  0.00    +0.000 C 
ATOM     41  C   UNK A   0      -2.975   0.080 133.730  0.00  0.00    +0.000 C 
ENDBRANCH  37  39
ENDBRANCH  23  35
ENDBRANCH   8  23
TORSDOF 8
ENDMDL
MODEL 5
REMARK VINA RESULT:      -8.6      2.470      7.600
REMARK  Name = CHEMBL197298
REMARK  12 active torsions:
REMARK  status: ('A' for Active; 'I' for Inactive)
REMARK    1  A    between atoms: CD1_1  and  CG_2
REMARK    2  A    between atoms: CG_2  and  CD2_3
REMARK    3  A    between atoms: CG_2  and  CB_4
REMARK    4  A    between atoms: CB_4  and  CA_5
REMARK    5  A    between atoms: C_9  and  C_10
REMARK    6  A    between atoms: N_21  and  C_22
REMARK    7  A    between atoms: C_22  and  C_23
REMARK    8  A    between atoms: C_22  and  C_29
REMARK    9  A    between atoms: N_25  and  C_26
REMARK   10  A    between atoms: C_26  and  C_27
REMARK   11  A    between atoms: C_26  and  C_28
REMARK   12  A    between atoms: C_32  and  C_33
REMARK                            x       y       z     vdW  Elec       q    Type
REMARK                         _______ _______ _______ _____ _____    ______ ____
ROOT
ATOM      1  CA  LEU A   2      -7.358   0.770 129.639  0.00  0.00    +0.000 C 
ATOM      2  C   LEU A   2      -6.245   0.060 128.821  0.00  0.00    +0.000 C 
ATOM      3  O   LEU A   2      -5.194  -0.405 129.270  0.00  0.00    +0.000 OA
ATOM      4  N   UNK A   1      -6.541  -0.105 127.505  0.00  0.00    +0.000 N 
ATOM      5  C   UNK A   1      -7.834   0.224 126.936  0.00  0.00    +0.000 C 
ATOM      6  C   UNK A   1      -8.272   1.555 127.463  0.00  0.00    +0.000 C 
ATOM      7  O   UNK A   1      -8.978   2.252 126.729  0.00  0.00    +0.000 OA
ATOM      8  N   LEU A   2      -7.840   1.894 128.737  0.00  0.00    +0.000 N 
ATOM      9  H   UNK A   1      -5.824  -0.569 126.962  0.00  0.00    +0.000 HD
ENDROOT
BRANCH   5  10
ATOM     10  C   UNK A   1      -7.800   0.449 125.401  0.00  0.00    +0.000 C 
ATOM     11  C   UNK A   1      -8.696  -0.557 124.696  0.00  0.00    +0.000 C 
ATOM     12  C   UNK A   1      -7.715  -1.656 124.441  0.00  0.00    +0.000 A 
ATOM     13  C   UNK A   1      -7.995  -2.996 124.286  0.00  0.00    +0.000 A 
ATOM     14  C   UNK A   1      -6.923  -3.882 124.189  0.00  0.00    +0.000 A 
ATOM     15  C   UNK A   1      -5.596  -3.425 124.260  0.00  0.00    +0.000 A 
ATOM     16  C   UNK A   1      -5.318  -2.069 124.436  0.00  0.00    +0.000 A 
ATOM     17  C   UNK A   1      -6.389  -1.198 124.518  0.00  0.00    +0.000 A 
ATOM     18  C   UNK A   1      -6.361   0.264 124.820  0.00  0.00    +0.000 C 
ENDBRANCH   5  10
BRANCH   1  19
ATOM     19  CB  LEU A   2      -6.832   0.991 131.089  0.00  0.00    +0.000 C 
BRANCH  19  21
ATOM     20  CD1 LEU A   2      -8.069   2.345 133.035  0.00  0.00    +0.000 C 
ATOM     21  CG  LEU A   2      -7.859   1.026 132.315  0.00  0.00    +0.000 C 
ATOM     22  CD2 LEU A   2      -9.284   0.611 132.076  0.00  0.00    +0.000 C 
ENDBRANCH  19  21
ENDBRANCH   1  19
BRANCH   8  23
ATOM     23  C   UNK A   0      -7.705   3.344 128.970  0.00  0.00    +0.000 C 
BRANCH  23  24
ATOM     24  C   UNK A   0      -8.903   4.122 129.561  0.00  0.00    +0.000 A 
ATOM     25  C   UNK A   0      -8.765   5.476 129.741  0.00  0.00    +0.000 A 
ATOM     26  C   UNK A   0      -9.756   6.215 130.310  0.00  0.00    +0.000 A 
ATOM     27  C   UNK A   0     -10.993   5.639 130.556  0.00  0.00    +0.000 A 
ATOM     28  C   UNK A   0     -11.150   4.255 130.510  0.00  0.00    +0.000 A 
ATOM     29  C   UNK A   0     -10.057   3.488 130.122  0.00  0.00    +0.000 A 
BRANCH  27  30
ATOM     30  C   UNK A   0     -12.164   6.515 130.764  0.00  0.00    +0.000 C 
ATOM     31  N   UNK A   0     -12.775   6.983 129.621  0.00  0.00    +0.000 N 
ATOM     32  O   UNK A   0     -12.588   6.763 131.862  0.00  0.00    +0.000 OA
ATOM     33  H   UNK A   0     -12.518   6.736 128.680  0.00  0.00    +0.000 HD
ATOM     34  H   UNK A   0     -13.605   7.538 129.739  0.00  0.00    +0.000 HD
ENDBRANCH  27  30
ENDBRANCH  23  24
BRANCH  23  35
ATOM     35  C   UNK A   0      -6.552   4.213 128.133  0.00  0.00    +0.000 C 
ATOM     36  O   UNK A   0      -5.702   4.934 128.652  0.00  0.00    +0.000 OA
ATOM     37  N   UNK A   0      -6.372   3.985 126.783  0.00  0.00    +0.000 N 
ATOM     38  H   UNK A   0      -6.513   3.043 126.541  0.00  0.00    +0.000 HD
BRANCH  37  39
ATOM     39  C   UNK A   0      -5.296   4.476 125.916  0.00  0.00    +0.000 C 
ATOM     40  C   UNK A   0      -4.068   3.562 126.013  0.00  0.00    +0.000 C 
ATOM     41  C   UNK A   0      -5.743   4.569 124.429  0.00  0.00    +0.000 C 
ENDBRANCH  37  39
ENDBRANCH  23  35
ENDBRANCH   8  23
TORSDOF 8
ENDMDL
MODEL 6
REMARK VINA RESULT:      -8.6      3.646      7.405
REMARK  Name = CHEMBL197298
REMARK  12 active torsions:
REMARK  status: ('A' for Active; 'I' for Inactive)
REMARK    1  A    between atoms: CD1_1  and  CG_2
REMARK    2  A    between atoms: CG_2  and  CD2_3
REMARK    3  A    between atoms: CG_2  and  CB_4
REMARK    4  A    between atoms: CB_4  and  CA_5
REMARK    5  A    between atoms: C_9  and  C_10
REMARK    6  A    between atoms: N_21  and  C_22
REMARK    7  A    between atoms: C_22  and  C_23
REMARK    8  A    between atoms: C_22  and  C_29
REMARK    9  A    between atoms: N_25  and  C_26
REMARK   10  A    between atoms: C_26  and  C_27
REMARK   11  A    between atoms: C_26  and  C_28
REMARK   12  A    between atoms: C_32  and  C_33
REMARK                            x       y       z     vdW  Elec       q    Type
REMARK                         _______ _______ _______ _____ _____    ______ ____
ROOT
ATOM      1  CA  LEU A   2      -6.654   3.581 132.103  0.00  0.00    +0.000 C 
ATOM      2  C   LEU A   2      -6.330   4.935 132.791  0.00  0.00    +0.000 C 
ATOM      3  O   LEU A   2      -6.799   5.342 133.856  0.00  0.00    +0.000 OA
ATOM      4  N   UNK A   1      -5.377   5.667 132.156  0.00  0.00    +0.000 N 
ATOM      5  C   UNK A   1      -4.626   5.175 131.017  0.00  0.00    +0.000 C 
ATOM      6  C   UNK A   1      -5.571   4.509 130.064  0.00  0.00    +0.000 C 
ATOM      7  O   UNK A   1      -5.290   4.549 128.864  0.00  0.00    +0.000 OA
ATOM      8  N   LEU A   2      -6.690   3.904 130.618  0.00  0.00    +0.000 N 
ATOM      9  H   UNK A   1      -5.155   6.552 132.597  0.00  0.00    +0.000 HD
ENDROOT
BRANCH   5  10
ATOM     10  C   UNK A   1      -3.995   6.299 130.153  0.00  0.00    +0.000 C 
ATOM     11  C   UNK A   1      -2.516   6.029 129.928  0.00  0.00    +0.000 C 
ATOM     12  C   UNK A   1      -1.930   6.755 131.096  0.00  0.00    +0.000 A 
ATOM     13  C   UNK A   1      -0.728   6.491 131.717  0.00  0.00    +0.000 A 
ATOM     14  C   UNK A   1      -0.423   7.199 132.878  0.00  0.00    +0.000 A 
ATOM     15  C   UNK A   1      -1.317   8.143 133.409  0.00  0.00    +0.000 A 
ATOM     16  C   UNK A   1      -2.542   8.393 132.788  0.00  0.00    +0.000 A 
ATOM     17  C   UNK A   1      -2.829   7.695 131.629  0.00  0.00    +0.000 A 
ATOM     18  C   UNK A   1      -4.103   7.694 130.850  0.00  0.00    +0.000 C 
ENDBRANCH   5  10
BRANCH   1  19
ATOM     19  CB  LEU A   2      -7.834   2.914 132.870  0.00  0.00    +0.000 C 
BRANCH  19  21
ATOM     20  CD1 LEU A   2      -9.514   1.086 131.877  0.00  0.00    +0.000 C 
ATOM     21  CG  LEU A   2      -8.209   1.384 132.590  0.00  0.00    +0.000 C 
ATOM     22  CD2 LEU A   2      -7.256   0.544 131.786  0.00  0.00    +0.000 C 
ENDBRANCH  19  21
ENDBRANCH   1  19
BRANCH   8  23
ATOM     23  C   UNK A   0      -7.860   3.849 129.721  0.00  0.00    +0.000 C 
BRANCH  23  24
ATOM     24  C   UNK A   0      -9.114   4.680 130.075  0.00  0.00    +0.000 A 
ATOM     25  C   UNK A   0      -8.944   6.014 130.351  0.00  0.00    +0.000 A 
ATOM     26  C   UNK A   0      -9.995   6.794 130.727  0.00  0.00    +0.000 A 
ATOM     27  C   UNK A   0     -11.286   6.292 130.664  0.00  0.00    +0.000 A 
ATOM     28  C   UNK A   0     -11.505   4.924 130.513  0.00  0.00    +0.000 A 
ATOM     29  C   UNK A   0     -10.397   4.103 130.335  0.00  0.00    +0.000 A 
BRANCH  27  30
ATOM     30  C   UNK A   0     -12.423   7.234 130.656  0.00  0.00    +0.000 C 
ATOM     31  N   UNK A   0     -12.629   7.916 129.476  0.00  0.00    +0.000 N 
ATOM     32  O   UNK A   0     -13.154   7.361 131.603  0.00  0.00    +0.000 OA
ATOM     33  H   UNK A   0     -12.105   7.784 128.628  0.00  0.00    +0.000 HD
ATOM     34  H   UNK A   0     -13.429   8.523 129.432  0.00  0.00    +0.000 HD
ENDBRANCH  27  30
ENDBRANCH  23  24
BRANCH  23  35
ATOM     35  C   UNK A   0      -8.053   2.549 128.693  0.00  0.00    +0.000 C 
ATOM     36  O   UNK A   0      -9.053   2.336 128.009  0.00  0.00    +0.000 OA
ATOM     37  N   UNK A   0      -6.972   1.740 128.406  0.00  0.00    +0.000 N 
ATOM     38  H   UNK A   0      -6.129   2.242 128.369  0.00  0.00    +0.000 HD
BRANCH  37  39
ATOM     39  C   UNK A   0      -6.871   0.690 127.387  0.00  0.00    +0.000 C 
ATOM     40  C   UNK A   0      -5.430   0.573 126.877  0.00  0.00    +0.000 C 
ATOM     41  C   UNK A   0      -7.330  -0.695 127.929  0.00  0.00    +0.000 C 
ENDBRANCH  37  39
ENDBRANCH  23  35
ENDBRANCH   8  23
TORSDOF 8
ENDMDL
MODEL 7
REMARK VINA RESULT:      -8.5      2.884      3.665
REMARK  Name = CHEMBL197298
REMARK  12 active torsions:
REMARK  status: ('A' for Active; 'I' for Inactive)
REMARK    1  A    between atoms: CD1_1  and  CG_2
REMARK    2  A    between atoms: CG_2  and  CD2_3
REMARK    3  A    between atoms: CG_2  and  CB_4
REMARK    4  A    between atoms: CB_4  and  CA_5
REMARK    5  A    between atoms: C_9  and  C_10
REMARK    6  A    between atoms: N_21  and  C_22
REMARK    7  A    between atoms: C_22  and  C_23
REMARK    8  A    between atoms: C_22  and  C_29
REMARK    9  A    between atoms: N_25  and  C_26
REMARK   10  A    between atoms: C_26  and  C_27
REMARK   11  A    between atoms: C_26  and  C_28
REMARK   12  A    between atoms: C_32  and  C_33
REMARK                            x       y       z     vdW  Elec       q    Type
REMARK                         _______ _______ _______ _____ _____    ______ ____
ROOT
ATOM      1  CA  LEU A   2      -5.610   2.552 128.218  0.00  0.00    +0.000 C 
ATOM      2  C   LEU A   2      -5.562   2.548 129.771  0.00  0.00    +0.000 C 
ATOM      3  O   LEU A   2      -4.550   2.438 130.468  0.00  0.00    +0.000 OA
ATOM      4  N   UNK A   1      -6.764   2.765 130.365  0.00  0.00    +0.000 N 
ATOM      5  C   UNK A   1      -7.964   3.109 129.626  0.00  0.00    +0.000 C 
ATOM      6  C   UNK A   1      -8.067   2.218 128.426  0.00  0.00    +0.000 C 
ATOM      7  O   UNK A   1      -9.198   1.937 128.023  0.00  0.00    +0.000 OA
ATOM      8  N   LEU A   2      -6.873   1.780 127.872  0.00  0.00    +0.000 N 
ATOM      9  H   UNK A   1      -6.745   2.767 131.378  0.00  0.00    +0.000 HD
ENDROOT
BRANCH   5  10
ATOM     10  C   UNK A   1      -9.278   2.810 130.396  0.00  0.00    +0.000 C 
ATOM     11  C   UNK A   1     -10.006   4.103 130.726  0.00  0.00    +0.000 C 
ATOM     12  C   UNK A   1      -9.423   4.405 132.068  0.00  0.00    +0.000 A 
ATOM     13  C   UNK A   1      -9.302   5.644 132.660  0.00  0.00    +0.000 A 
ATOM     14  C   UNK A   1      -8.604   5.729 133.863  0.00  0.00    +0.000 A 
ATOM     15  C   UNK A   1      -8.030   4.589 134.452  0.00  0.00    +0.000 A 
ATOM     16  C   UNK A   1      -8.139   3.340 133.840  0.00  0.00    +0.000 A 
ATOM     17  C   UNK A   1      -8.844   3.265 132.652  0.00  0.00    +0.000 A 
ATOM     18  C   UNK A   1      -9.001   2.083 131.752  0.00  0.00    +0.000 C 
ENDBRANCH   5  10
BRANCH   1  19
ATOM     19  CB  LEU A   2      -4.195   2.177 127.685  0.00  0.00    +0.000 C 
BRANCH  19  21
ATOM     20  CD1 LEU A   2      -2.828   4.436 128.102  0.00  0.00    +0.000 C 
ATOM     21  CG  LEU A   2      -3.213   3.321 127.150  0.00  0.00    +0.000 C 
ATOM     22  CD2 LEU A   2      -1.861   2.924 126.626  0.00  0.00    +0.000 C 
ENDBRANCH  19  21
ENDBRANCH   1  19
BRANCH   8  23
ATOM     23  C   UNK A   0      -6.962   0.479 127.182  0.00  0.00    +0.000 C 
BRANCH  23  24
ATOM     24  C   UNK A   0      -6.591  -0.806 127.955  0.00  0.00    +0.000 A 
ATOM     25  C   UNK A   0      -5.352  -1.354 127.734  0.00  0.00    +0.000 A 
ATOM     26  C   UNK A   0      -4.979  -2.516 128.337  0.00  0.00    +0.000 A 
ATOM     27  C   UNK A   0      -5.780  -3.072 129.322  0.00  0.00    +0.000 A 
ATOM     28  C   UNK A   0      -7.091  -2.633 129.498  0.00  0.00    +0.000 A 
ATOM     29  C   UNK A   0      -7.530  -1.567 128.721  0.00  0.00    +0.000 A 
BRANCH  27  30
ATOM     30  C   UNK A   0      -5.196  -4.061 130.250  0.00  0.00    +0.000 C 
ATOM     31  N   UNK A   0      -3.976  -3.724 130.797  0.00  0.00    +0.000 N 
ATOM     32  O   UNK A   0      -5.771  -5.074 130.549  0.00  0.00    +0.000 OA
ATOM     33  H   UNK A   0      -3.493  -2.853 130.651  0.00  0.00    +0.000 HD
ATOM     34  H   UNK A   0      -3.585  -4.359 131.471  0.00  0.00    +0.000 HD
ENDBRANCH  27  30
ENDBRANCH  23  24
BRANCH  23  35
ATOM     35  C   UNK A   0      -6.917   0.424 125.514  0.00  0.00    +0.000 C 
ATOM     36  O   UNK A   0      -6.320   1.227 124.801  0.00  0.00    +0.000 OA
ATOM     37  N   UNK A   0      -7.400  -0.689 124.855  0.00  0.00    +0.000 N 
ATOM     38  H   UNK A   0      -7.236  -1.520 125.354  0.00  0.00    +0.000 HD
BRANCH  37  39
ATOM     39  C   UNK A   0      -7.270  -1.029 123.435  0.00  0.00    +0.000 C 
ATOM     40  C   UNK A   0      -6.101  -1.998 123.219  0.00  0.00    +0.000 C 
ATOM     41  C   UNK A   0      -8.570  -1.667 122.866  0.00  0.00    +0.000 C 
ENDBRANCH  37  39
ENDBRANCH  23  35
ENDBRANCH   8  23
TORSDOF 8
ENDMDL
MODEL 8
REMARK VINA RESULT:      -8.4      3.292      7.320
REMARK  Name = CHEMBL197298
REMARK  12 active torsions:
REMARK  status: ('A' for Active; 'I' for Inactive)
REMARK    1  A    between atoms: CD1_1  and  CG_2
REMARK    2  A    between atoms: CG_2  and  CD2_3
REMARK    3  A    between atoms: CG_2  and  CB_4
REMARK    4  A    between atoms: CB_4  and  CA_5
REMARK    5  A    between atoms: C_9  and  C_10
REMARK    6  A    between atoms: N_21  and  C_22
REMARK    7  A    between atoms: C_22  and  C_23
REMARK    8  A    between atoms: C_22  and  C_29
REMARK    9  A    between atoms: N_25  and  C_26
REMARK   10  A    between atoms: C_26  and  C_27
REMARK   11  A    between atoms: C_26  and  C_28
REMARK   12  A    between atoms: C_32  and  C_33
REMARK                            x       y       z     vdW  Elec       q    Type
REMARK                         _______ _______ _______ _____ _____    ______ ____
ROOT
ATOM      1  CA  LEU A   2      -8.181   2.486 129.028  0.00  0.00    +0.000 C 
ATOM      2  C   LEU A   2      -8.302   3.842 128.281  0.00  0.00    +0.000 C 
ATOM      3  O   LEU A   2      -8.021   4.051 127.098  0.00  0.00    +0.000 OA
ATOM      4  N   UNK A   1      -8.844   4.841 129.026  0.00  0.00    +0.000 N 
ATOM      5  C   UNK A   1      -9.392   4.633 130.353  0.00  0.00    +0.000 C 
ATOM      6  C   UNK A   1      -8.448   3.776 131.139  0.00  0.00    +0.000 C 
ATOM      7  O   UNK A   1      -8.404   3.950 132.359  0.00  0.00    +0.000 OA
ATOM      8  N   LEU A   2      -7.698   2.856 130.420  0.00  0.00    +0.000 N 
ATOM      9  H   UNK A   1      -8.930   5.730 128.549  0.00  0.00    +0.000 HD
ENDROOT
BRANCH   5  10
ATOM     10  C   UNK A   1      -9.476   5.929 131.203  0.00  0.00    +0.000 C 
ATOM     11  C   UNK A   1     -10.907   6.181 131.648  0.00  0.00    +0.000 C 
ATOM     12  C   UNK A   1     -11.394   7.028 130.516  0.00  0.00    +0.000 A 
ATOM     13  C   UNK A   1     -12.696   7.168 130.088  0.00  0.00    +0.000 A 
ATOM     14  C   UNK A   1     -12.927   7.904 128.926  0.00  0.00    +0.000 A 
ATOM     15  C   UNK A   1     -11.864   8.475 128.206  0.00  0.00    +0.000 A 
ATOM     16  C   UNK A   1     -10.546   8.314 128.633  0.00  0.00    +0.000 A 
ATOM     17  C   UNK A   1     -10.330   7.593 129.794  0.00  0.00    +0.000 A 
ATOM     18  C   UNK A   1      -9.023   7.185 130.390  0.00  0.00    +0.000 C 
ENDBRANCH   5  10
BRANCH   1  19
ATOM     19  CB  LEU A   2      -7.442   1.480 128.096  0.00  0.00    +0.000 C 
BRANCH  19  21
ATOM     20  CD1 LEU A   2      -8.493   0.597 125.801  0.00  0.00    +0.000 C 
ATOM     21  CG  LEU A   2      -8.275   0.379 127.286  0.00  0.00    +0.000 C 
ATOM     22  CD2 LEU A   2      -7.785  -1.042 127.289  0.00  0.00    +0.000 C 
ENDBRANCH  19  21
ENDBRANCH   1  19
BRANCH   8  23
ATOM     23  C   UNK A   0      -6.398   2.519 131.032  0.00  0.00    +0.000 C 
BRANCH  23  24
ATOM     24  C   UNK A   0      -5.176   3.418 130.737  0.00  0.00    +0.000 A 
ATOM     25  C   UNK A   0      -4.523   3.243 129.542  0.00  0.00    +0.000 A 
ATOM     26  C   UNK A   0      -3.405   3.959 129.240  0.00  0.00    +0.000 A 
ATOM     27  C   UNK A   0      -3.011   5.004 130.061  0.00  0.00    +0.000 A 
ATOM     28  C   UNK A   0      -3.556   5.146 131.335  0.00  0.00    +0.000 A 
ATOM     29  C   UNK A   0      -4.565   4.267 131.713  0.00  0.00    +0.000 A 
BRANCH  27  30
ATOM     30  C   UNK A   0      -2.084   6.023 129.530  0.00  0.00    +0.000 C 
ATOM     31  N   UNK A   0      -2.156   6.252 128.172  0.00  0.00    +0.000 N 
ATOM     32  O   UNK A   0      -1.347   6.651 130.245  0.00  0.00    +0.000 OA
ATOM     33  H   UNK A   0      -2.812   5.821 127.544  0.00  0.00    +0.000 HD
ATOM     34  H   UNK A   0      -1.571   6.979 127.799  0.00  0.00    +0.000 HD
ENDBRANCH  27  30
ENDBRANCH  23  24
BRANCH  23  35
ATOM     35  C   UNK A   0      -6.109   0.960 131.552  0.00  0.00    +0.000 C 
ATOM     36  O   UNK A   0      -6.055   0.611 132.730  0.00  0.00    +0.000 OA
ATOM     37  N   UNK A   0      -6.123  -0.077 130.641  0.00  0.00    +0.000 N 
ATOM     38  H   UNK A   0      -6.784   0.061 129.927  0.00  0.00    +0.000 HD
BRANCH  37  39
ATOM     39  C   UNK A   0      -6.101  -1.519 130.908  0.00  0.00    +0.000 C 
ATOM     40  C   UNK A   0      -7.518  -2.102 130.829  0.00  0.00    +0.000 C 
ATOM     41  C   UNK A   0      -5.182  -2.283 129.912  0.00  0.00    +0.000 C 
ENDBRANCH  37  39
ENDBRANCH  23  35
ENDBRANCH   8  23
TORSDOF 8
ENDMDL
MODEL 9
REMARK VINA RESULT:      -8.4      4.215      7.737
REMARK  Name = CHEMBL197298
REMARK  12 active torsions:
REMARK  status: ('A' for Active; 'I' for Inactive)
REMARK    1  A    between atoms: CD1_1  and  CG_2
REMARK    2  A    between atoms: CG_2  and  CD2_3
REMARK    3  A    between atoms: CG_2  and  CB_4
REMARK    4  A    between atoms: CB_4  and  CA_5
REMARK    5  A    between atoms: C_9  and  C_10
REMARK    6  A    between atoms: N_21  and  C_22
REMARK    7  A    between atoms: C_22  and  C_23
REMARK    8  A    between atoms: C_22  and  C_29
REMARK    9  A    between atoms: N_25  and  C_26
REMARK   10  A    between atoms: C_26  and  C_27
REMARK   11  A    between atoms: C_26  and  C_28
REMARK   12  A    between atoms: C_32  and  C_33
REMARK                            x       y       z     vdW  Elec       q    Type
REMARK                         _______ _______ _______ _____ _____    ______ ____
ROOT
ATOM      1  CA  LEU A   2      -8.164   1.653 130.590  0.00  0.00    +0.000 C 
ATOM      2  C   LEU A   2      -8.605   2.742 129.574  0.00  0.00    +0.000 C 
ATOM      3  O   LEU A   2      -8.755   2.588 128.360  0.00  0.00    +0.000 OA
ATOM      4  N   UNK A   1      -8.914   3.938 130.140  0.00  0.00    +0.000 N 
ATOM      5  C   UNK A   1      -8.965   4.147 131.575  0.00  0.00    +0.000 C 
ATOM      6  C   UNK A   1      -7.766   3.506 132.202  0.00  0.00    +0.000 C 
ATOM      7  O   UNK A   1      -7.318   4.021 133.229  0.00  0.00    +0.000 OA
ATOM      8  N   LEU A   2      -7.256   2.383 131.565  0.00  0.00    +0.000 N 
ATOM      9  H   UNK A   1      -9.206   4.656 129.488  0.00  0.00    +0.000 HD
ENDROOT
BRANCH   5  10
ATOM     10  C   UNK A   1      -8.825   5.635 131.993  0.00  0.00    +0.000 C 
ATOM     11  C   UNK A   1     -10.090   6.114 132.686  0.00  0.00    +0.000 C 
ATOM     12  C   UNK A   1     -10.857   6.635 131.514  0.00  0.00    +0.000 A 
ATOM     13  C   UNK A   1     -12.226   6.747 131.403  0.00  0.00    +0.000 A 
ATOM     14  C   UNK A   1     -12.753   7.133 130.172  0.00  0.00    +0.000 A 
ATOM     15  C   UNK A   1     -11.917   7.389 129.072  0.00  0.00    +0.000 A 
ATOM     16  C   UNK A   1     -10.533   7.257 129.184  0.00  0.00    +0.000 A 
ATOM     17  C   UNK A   1     -10.019   6.885 130.414  0.00  0.00    +0.000 A 
ATOM     18  C   UNK A   1      -8.601   6.565 130.756  0.00  0.00    +0.000 C 
ENDBRANCH   5  10
BRANCH   1  19
ATOM     19  CB  LEU A   2      -7.734   0.386 129.792  0.00  0.00    +0.000 C 
BRANCH  19  21
ATOM     20  CD1 LEU A   2      -7.877  -2.255 129.404  0.00  0.00    +0.000 C 
ATOM     21  CG  LEU A   2      -8.174  -1.066 130.297  0.00  0.00    +0.000 C 
ATOM     22  CD2 LEU A   2      -7.638  -1.566 131.610  0.00  0.00    +0.000 C 
ENDBRANCH  19  21
ENDBRANCH   1  19
BRANCH   8  23
ATOM     23  C   UNK A   0      -5.810   2.173 131.766  0.00  0.00    +0.000 C 
BRANCH  23  24
ATOM     24  C   UNK A   0      -4.813   2.856 130.803  0.00  0.00    +0.000 A 
ATOM     25  C   UNK A   0      -4.612   2.280 129.572  0.00  0.00    +0.000 A 
ATOM     26  C   UNK A   0      -3.706   2.794 128.695  0.00  0.00    +0.000 A 
ATOM     27  C   UNK A   0      -3.100   4.012 128.962  0.00  0.00    +0.000 A 
ATOM     28  C   UNK A   0      -3.170   4.573 130.236  0.00  0.00    +0.000 A 
ATOM     29  C   UNK A   0      -3.940   3.920 131.193  0.00  0.00    +0.000 A 
BRANCH  27  30
ATOM     30  C   UNK A   0      -2.467   4.757 127.855  0.00  0.00    +0.000 C 
ATOM     31  N   UNK A   0      -1.943   3.989 126.837  0.00  0.00    +0.000 N 
ATOM     32  O   UNK A   0      -2.454   5.960 127.820  0.00  0.00    +0.000 OA
ATOM     33  H   UNK A   0      -2.005   2.988 126.772  0.00  0.00    +0.000 HD
ATOM     34  H   UNK A   0      -1.555   4.478 126.049  0.00  0.00    +0.000 HD
ENDBRANCH  27  30
ENDBRANCH  23  24
BRANCH  23  35
ATOM     35  C   UNK A   0      -5.279   0.839 132.617  0.00  0.00    +0.000 C 
ATOM     36  O   UNK A   0      -4.380   0.084 132.252  0.00  0.00    +0.000 OA
ATOM     37  N   UNK A   0      -5.710   0.642 133.914  0.00  0.00    +0.000 N 
ATOM     38  H   UNK A   0      -5.831   1.486 134.401  0.00  0.00    +0.000 HD
BRANCH  37  39
ATOM     39  C   UNK A   0      -5.216  -0.331 134.895  0.00  0.00    +0.000 C 
ATOM     40  C   UNK A   0      -5.069   0.325 136.274  0.00  0.00    +0.000 C 
ATOM     41  C   UNK A   0      -6.157  -1.564 135.018  0.00  0.00    +0.000 C 
ENDBRANCH  37  39
ENDBRANCH  23  35
ENDBRANCH   8  23
TORSDOF 8
ENDMDL
