MODEL 1
REMARK VINA RESULT:      -9.3      0.000      0.000
REMARK  Name = CHEMBL24806
REMARK  9 active torsions:
REMARK  status: ('A' for Active; 'I' for Inactive)
REMARK    1  A    between atoms: C_1  and  C_2
REMARK    2  A    between atoms: N_4  and  C_5
REMARK    3  A    between atoms: C_7  and  C_8
REMARK    4  A    between atoms: N_20  and  C_21
REMARK    5  A    between atoms: C_21  and  C_22
REMARK    6  A    between atoms: N_24  and  C_25
REMARK    7  A    between atoms: C_25  and  C_26
REMARK    8  A    between atoms: C_25  and  C_35
REMARK    9  A    between atoms: C_26  and  C_27
REMARK                            x       y       z     vdW  Elec       q    Type
REMARK                         _______ _______ _______ _____ _____    ______ ____
ROOT
ATOM      1  C   UNL     1      -9.995   6.125 130.662  0.00  0.00    +0.000 C 
ATOM      2  N   UNL     1      -9.050   6.457 131.775  0.00  0.00    +0.000 NA
ATOM      3  C   UNL     1      -8.415   5.480 132.350  0.00  0.00    +0.000 C 
ATOM      4  C   UNL     1      -8.662   4.101 131.993  0.00  0.00    +0.000 A 
ATOM      5  C   UNL     1      -8.725   3.224 133.060  0.00  0.00    +0.000 A 
ATOM      6  C   UNL     1      -8.932   1.982 132.623  0.00  0.00    +0.000 A 
ATOM      7  C   UNL     1      -9.312   1.722 131.239  0.00  0.00    +0.000 A 
ATOM      8  C   UNL     1      -9.393   2.595 130.221  0.00  0.00    +0.000 A 
ATOM      9  C   UNL     1      -8.820   3.755 130.584  0.00  0.00    +0.000 A 
ATOM     10  N   UNL     1      -8.371   4.598 129.534  0.00  0.00    +0.000 N 
ATOM     11  C   UNL     1      -9.278   5.601 129.365  0.00  0.00    +0.000 C 
ATOM     12  O   UNL     1      -9.603   5.831 128.198  0.00  0.00    +0.000 OA
ENDROOT
BRANCH   3  13
ATOM     13  C   UNL     1      -7.448   5.693 133.473  0.00  0.00    +0.000 A 
ATOM     14  C   UNL     1      -6.103   5.866 133.160  0.00  0.00    +0.000 A 
ATOM     15  C   UNL     1      -5.159   5.856 134.183  0.00  0.00    +0.000 A 
ATOM     16  C   UNL     1      -5.569   5.869 135.516  0.00  0.00    +0.000 A 
ATOM     17  C   UNL     1      -6.925   5.954 135.825  0.00  0.00    +0.000 A 
ATOM     18  C   UNL     1      -7.874   5.817 134.806  0.00  0.00    +0.000 A 
ENDBRANCH   3  13
BRANCH   1  22
ATOM     19  C   UNL     1     -12.813   8.622 130.436  0.00  0.00    +0.000 C 
ATOM     20  C   UNL     1     -12.093   7.404 130.846  0.00  0.00    +0.000 C 
ATOM     21  O   UNL     1     -12.720   6.640 131.574  0.00  0.00    +0.000 OA
ATOM     22  N   UNL     1     -10.820   7.256 130.339  0.00  0.00    +0.000 N 
ATOM     23  H   UNL     1     -10.544   7.747 129.504  0.00  0.00    +0.000 HD
ENDBRANCH   1  22
BRANCH  10  24
ATOM     24  C   UNL     1      -7.803   4.145 128.194  0.00  0.00    +0.000 C 
BRANCH  24  25
ATOM     25  C   UNL     1      -6.304   4.289 128.089  0.00  0.00    +0.000 C 
ATOM     26  O   UNL     1      -5.932   5.038 127.263  0.00  0.00    +0.000 OA
ATOM     27  N   UNL     1      -5.398   3.611 128.881  0.00  0.00    +0.000 N 
ATOM     28  H   UNL     1      -5.713   2.762 129.311  0.00  0.00    +0.000 HD
BRANCH  27  29
ATOM     29  C   UNL     1      -3.915   3.864 128.732  0.00  0.00    +0.000 C 
BRANCH  29  30
ATOM     30  C   UNL     1      -3.227   2.886 127.757  0.00  0.00    +0.000 C 
ATOM     31  N   UNL     1      -3.944   1.803 127.343  0.00  0.00    +0.000 N 
ATOM     32  O   UNL     1      -2.089   3.060 127.325  0.00  0.00    +0.000 OA
ATOM     33  H   UNL     1      -4.881   1.578 127.615  0.00  0.00    +0.000 HD
ATOM     34  H   UNL     1      -3.489   1.159 126.711  0.00  0.00    +0.000 HD
ENDBRANCH  29  30
BRANCH  29  35
ATOM     35  C   UNL     1      -3.094   3.819 130.085  0.00  0.00    +0.000 C 
BRANCH  35  36
ATOM     36  C   UNL     1      -2.799   5.107 130.831  0.00  0.00    +0.000 A 
ATOM     37  C   UNL     1      -2.004   5.176 131.979  0.00  0.00    +0.000 A 
ATOM     38  C   UNL     1      -1.777   6.374 132.664  0.00  0.00    +0.000 A 
ATOM     39  C   UNL     1      -2.391   7.556 132.254  0.00  0.00    +0.000 A 
ATOM     40 CL   UNL     1      -2.582   8.443 133.981  0.00  0.00    +0.000 Cl
ATOM     41  C   UNL     1      -3.111   7.534 130.955  0.00  0.00    +0.000 A 
ATOM     42 CL   UNL     1      -4.220   8.615 130.022  0.00  0.00    +0.000 Cl
ATOM     43  C   UNL     1      -3.182   6.312 130.272  0.00  0.00    +0.000 A 
ENDBRANCH  35  36
ENDBRANCH  29  35
ENDBRANCH  27  29
ENDBRANCH  24  25
ENDBRANCH  10  24
TORSDOF 8
ENDMDL
MODEL 2
REMARK VINA RESULT:      -8.9      5.701      9.400
REMARK  Name = CHEMBL24806
REMARK  9 active torsions:
REMARK  status: ('A' for Active; 'I' for Inactive)
REMARK    1  A    between atoms: C_1  and  C_2
REMARK    2  A    between atoms: N_4  and  C_5
REMARK    3  A    between atoms: C_7  and  C_8
REMARK    4  A    between atoms: N_20  and  C_21
REMARK    5  A    between atoms: C_21  and  C_22
REMARK    6  A    between atoms: N_24  and  C_25
REMARK    7  A    between atoms: C_25  and  C_26
REMARK    8  A    between atoms: C_25  and  C_35
REMARK    9  A    between atoms: C_26  and  C_27
REMARK                            x       y       z     vdW  Elec       q    Type
REMARK                         _______ _______ _______ _____ _____    ______ ____
ROOT
ATOM      1  C   UNL     1      -7.362   2.692 123.374  0.00  0.00    +0.000 C 
ATOM      2  N   UNL     1      -8.086   1.384 123.286  0.00  0.00    +0.000 NA
ATOM      3  C   UNL     1      -7.784   0.459 124.147  0.00  0.00    +0.000 C 
ATOM      4  C   UNL     1      -6.727   0.641 125.116  0.00  0.00    +0.000 A 
ATOM      5  C   UNL     1      -5.916  -0.463 125.307  0.00  0.00    +0.000 A 
ATOM      6  C   UNL     1      -4.991  -0.199 126.231  0.00  0.00    +0.000 A 
ATOM      7  C   UNL     1      -4.763   1.161 126.704  0.00  0.00    +0.000 A 
ATOM      8  C   UNL     1      -5.461   2.272 126.411  0.00  0.00    +0.000 A 
ATOM      9  C   UNL     1      -6.602   1.927 125.791  0.00  0.00    +0.000 A 
ATOM     10  N   UNL     1      -7.665   2.868 125.847  0.00  0.00    +0.000 N 
ATOM     11  C   UNL     1      -7.724   3.526 124.656  0.00  0.00    +0.000 C 
ATOM     12  O   UNL     1      -7.834   4.752 124.732  0.00  0.00    +0.000 OA
ENDROOT
BRANCH   3  13
ATOM     13  C   UNL     1      -8.443  -0.885 124.154  0.00  0.00    +0.000 A 
ATOM     14  C   UNL     1      -8.997  -1.343 125.347  0.00  0.00    +0.000 A 
ATOM     15  C   UNL     1      -9.425  -2.664 125.437  0.00  0.00    +0.000 A 
ATOM     16  C   UNL     1      -9.480  -3.462 124.295  0.00  0.00    +0.000 A 
ATOM     17  C   UNL     1      -9.164  -2.920 123.050  0.00  0.00    +0.000 A 
ATOM     18  C   UNL     1      -8.597  -1.642 122.980  0.00  0.00    +0.000 A 
ENDBRANCH   3  13
BRANCH   1  22
ATOM     19  C   UNL     1      -7.107   4.318 119.980  0.00  0.00    +0.000 C 
ATOM     20  C   UNL     1      -6.732   3.464 121.120  0.00  0.00    +0.000 C 
ATOM     21  O   UNL     1      -5.675   2.851 120.997  0.00  0.00    +0.000 OA
ATOM     22  N   UNL     1      -7.593   3.482 122.197  0.00  0.00    +0.000 N 
ATOM     23  H   UNL     1      -8.222   4.256 122.333  0.00  0.00    +0.000 HD
ENDBRANCH   1  22
BRANCH  10  24
ATOM     24  C   UNL     1      -7.976   3.809 127.006  0.00  0.00    +0.000 C 
BRANCH  24  25
ATOM     25  C   UNL     1      -8.241   3.099 128.311  0.00  0.00    +0.000 C 
ATOM     26  O   UNL     1      -9.153   2.357 128.298  0.00  0.00    +0.000 OA
ATOM     27  N   UNL     1      -7.497   3.276 129.460  0.00  0.00    +0.000 N 
ATOM     28  H   UNL     1      -6.976   4.128 129.541  0.00  0.00    +0.000 HD
BRANCH  27  29
ATOM     29  C   UNL     1      -7.813   2.477 130.705  0.00  0.00    +0.000 C 
BRANCH  29  30
ATOM     30  C   UNL     1      -7.911   3.345 131.976  0.00  0.00    +0.000 C 
ATOM     31  N   UNL     1      -8.887   3.033 132.875  0.00  0.00    +0.000 N 
ATOM     32  O   UNL     1      -7.138   4.270 132.218  0.00  0.00    +0.000 OA
ATOM     33  H   UNL     1      -9.554   2.290 132.788  0.00  0.00    +0.000 HD
ATOM     34  H   UNL     1      -8.956   3.608 133.704  0.00  0.00    +0.000 HD
ENDBRANCH  29  30
BRANCH  29  35
ATOM     35  C   UNL     1      -6.790   1.310 131.023  0.00  0.00    +0.000 C 
BRANCH  35  36
ATOM     36  C   UNL     1      -7.061  -0.091 130.507  0.00  0.00    +0.000 A 
ATOM     37  C   UNL     1      -7.247  -0.399 129.156  0.00  0.00    +0.000 A 
ATOM     38  C   UNL     1      -7.527  -1.696 128.713  0.00  0.00    +0.000 A 
ATOM     39  C   UNL     1      -7.689  -2.739 129.623  0.00  0.00    +0.000 A 
ATOM     40 CL   UNL     1      -8.985  -3.824 128.649  0.00  0.00    +0.000 Cl
ATOM     41  C   UNL     1      -7.345  -2.465 131.041  0.00  0.00    +0.000 A 
ATOM     42 CL   UNL     1      -7.520  -3.285 132.643  0.00  0.00    +0.000 Cl
ATOM     43  C   UNL     1      -6.951  -1.161 131.375  0.00  0.00    +0.000 A 
ENDBRANCH  35  36
ENDBRANCH  29  35
ENDBRANCH  27  29
ENDBRANCH  24  25
ENDBRANCH  10  24
TORSDOF 8
ENDMDL
MODEL 3
REMARK VINA RESULT:      -8.7      2.514      4.059
REMARK  Name = CHEMBL24806
REMARK  9 active torsions:
REMARK  status: ('A' for Active; 'I' for Inactive)
REMARK    1  A    between atoms: C_1  and  C_2
REMARK    2  A    between atoms: N_4  and  C_5
REMARK    3  A    between atoms: C_7  and  C_8
REMARK    4  A    between atoms: N_20  and  C_21
REMARK    5  A    between atoms: C_21  and  C_22
REMARK    6  A    between atoms: N_24  and  C_25
REMARK    7  A    between atoms: C_25  and  C_26
REMARK    8  A    between atoms: C_25  and  C_35
REMARK    9  A    between atoms: C_26  and  C_27
REMARK                            x       y       z     vdW  Elec       q    Type
REMARK                         _______ _______ _______ _____ _____    ______ ____
ROOT
ATOM      1  C   UNL     1      -8.971   5.825 130.354  0.00  0.00    +0.000 C 
ATOM      2  N   UNL     1      -7.509   6.126 130.240  0.00  0.00    +0.000 NA
ATOM      3  C   UNL     1      -6.730   5.754 131.213  0.00  0.00    +0.000 C 
ATOM      4  C   UNL     1      -7.255   5.141 132.411  0.00  0.00    +0.000 A 
ATOM      5  C   UNL     1      -6.680   5.579 133.590  0.00  0.00    +0.000 A 
ATOM      6  C   UNL     1      -7.217   4.938 134.629  0.00  0.00    +0.000 A 
ATOM      7  C   UNL     1      -8.420   4.129 134.478  0.00  0.00    +0.000 A 
ATOM      8  C   UNL     1      -9.072   3.812 133.346  0.00  0.00    +0.000 A 
ATOM      9  C   UNL     1      -8.313   4.143 132.288  0.00  0.00    +0.000 A 
ATOM     10  N   UNL     1      -8.586   3.464 131.072  0.00  0.00    +0.000 N 
ATOM     11  C   UNL     1      -9.306   4.292 130.265  0.00  0.00    +0.000 C 
ATOM     12  O   UNL     1     -10.290   3.782 129.723  0.00  0.00    +0.000 OA
ENDROOT
BRANCH   3  13
ATOM     13  C   UNL     1      -5.254   6.002 131.206  0.00  0.00    +0.000 A 
ATOM     14  C   UNL     1      -4.401   4.904 131.136  0.00  0.00    +0.000 A 
ATOM     15  C   UNL     1      -3.037   5.088 131.339  0.00  0.00    +0.000 A 
ATOM     16  C   UNL     1      -2.506   6.375 131.418  0.00  0.00    +0.000 A 
ATOM     17  C   UNL     1      -3.333   7.481 131.232  0.00  0.00    +0.000 A 
ATOM     18  C   UNL     1      -4.720   7.302 131.174  0.00  0.00    +0.000 A 
ENDBRANCH   3  13
BRANCH   1  22
ATOM     19  C   UNL     1     -11.547   7.898 128.537  0.00  0.00    +0.000 C 
ATOM     20  C   UNL     1     -10.901   7.191 129.657  0.00  0.00    +0.000 C 
ATOM     21  O   UNL     1     -11.503   7.230 130.725  0.00  0.00    +0.000 OA
ATOM     22  N   UNL     1      -9.718   6.545 129.361  0.00  0.00    +0.000 N 
ATOM     23  H   UNL     1      -9.501   6.291 128.411  0.00  0.00    +0.000 HD
ENDBRANCH   1  22
BRANCH  10  24
ATOM     24  C   UNL     1      -9.057   2.021 130.931  0.00  0.00    +0.000 C 
BRANCH  24  25
ATOM     25  C   UNL     1      -8.003   1.088 130.384  0.00  0.00    +0.000 C 
ATOM     26  O   UNL     1      -8.284  -0.053 130.417  0.00  0.00    +0.000 OA
ATOM     27  N   UNL     1      -6.787   1.498 129.875  0.00  0.00    +0.000 N 
ATOM     28  H   UNL     1      -6.448   2.394 130.168  0.00  0.00    +0.000 HD
BRANCH  27  29
ATOM     29  C   UNL     1      -5.820   0.488 129.302  0.00  0.00    +0.000 C 
BRANCH  29  30
ATOM     30  C   UNL     1      -4.581   0.259 130.193  0.00  0.00    +0.000 C 
ATOM     31  N   UNL     1      -3.783  -0.806 129.897  0.00  0.00    +0.000 N 
ATOM     32  O   UNL     1      -4.275   1.004 131.121  0.00  0.00    +0.000 OA
ATOM     33  H   UNL     1      -3.927  -1.461 129.153  0.00  0.00    +0.000 HD
ATOM     34  H   UNL     1      -2.976  -0.960 130.486  0.00  0.00    +0.000 HD
ENDBRANCH  29  30
BRANCH  29  35
ATOM     35  C   UNL     1      -5.286   0.827 127.850  0.00  0.00    +0.000 C 
BRANCH  35  36
ATOM     36  C   UNL     1      -4.731   2.208 127.554  0.00  0.00    +0.000 A 
ATOM     37  C   UNL     1      -3.533   2.695 128.085  0.00  0.00    +0.000 A 
ATOM     38  C   UNL     1      -3.063   3.985 127.820  0.00  0.00    +0.000 A 
ATOM     39  C   UNL     1      -3.813   4.870 127.047  0.00  0.00    +0.000 A 
ATOM     40 CL   UNL     1      -3.286   6.555 127.876  0.00  0.00    +0.000 Cl
ATOM     41  C   UNL     1      -5.005   4.324 126.351  0.00  0.00    +0.000 A 
ATOM     42 CL   UNL     1      -6.420   4.961 125.422  0.00  0.00    +0.000 Cl
ATOM     43  C   UNL     1      -5.332   2.980 126.578  0.00  0.00    +0.000 A 
ENDBRANCH  35  36
ENDBRANCH  29  35
ENDBRANCH  27  29
ENDBRANCH  24  25
ENDBRANCH  10  24
TORSDOF 8
ENDMDL
MODEL 4
REMARK VINA RESULT:      -8.6      2.801      4.449
REMARK  Name = CHEMBL24806
REMARK  9 active torsions:
REMARK  status: ('A' for Active; 'I' for Inactive)
REMARK    1  A    between atoms: C_1  and  C_2
REMARK    2  A    between atoms: N_4  and  C_5
REMARK    3  A    between atoms: C_7  and  C_8
REMARK    4  A    between atoms: N_20  and  C_21
REMARK    5  A    between atoms: C_21  and  C_22
REMARK    6  A    between atoms: N_24  and  C_25
REMARK    7  A    between atoms: C_25  and  C_26
REMARK    8  A    between atoms: C_25  and  C_35
REMARK    9  A    between atoms: C_26  and  C_27
REMARK                            x       y       z     vdW  Elec       q    Type
REMARK                         _______ _______ _______ _____ _____    ______ ____
ROOT
ATOM      1  C   UNL     1      -9.591   6.522 130.719  0.00  0.00    +0.000 C 
ATOM      2  N   UNL     1      -8.150   6.824 130.444  0.00  0.00    +0.000 NA
ATOM      3  C   UNL     1      -7.256   6.304 131.231  0.00  0.00    +0.000 C 
ATOM      4  C   UNL     1      -7.627   5.522 132.388  0.00  0.00    +0.000 A 
ATOM      5  C   UNL     1      -6.881   5.774 133.525  0.00  0.00    +0.000 A 
ATOM      6  C   UNL     1      -7.287   4.989 134.524  0.00  0.00    +0.000 A 
ATOM      7  C   UNL     1      -8.523   4.221 134.427  0.00  0.00    +0.000 A 
ATOM      8  C   UNL     1      -9.335   4.084 133.365  0.00  0.00    +0.000 A 
ATOM      9  C   UNL     1      -8.720   4.563 132.271  0.00  0.00    +0.000 A 
ATOM     10  N   UNL     1      -9.180   4.076 131.018  0.00  0.00    +0.000 N 
ATOM     11  C   UNL     1      -9.981   5.023 130.453  0.00  0.00    +0.000 C 
ATOM     12  O   UNL     1     -11.044   4.608 129.987  0.00  0.00    +0.000 OA
ENDROOT
BRANCH   3  13
ATOM     13  C   UNL     1      -5.788   6.538 131.052  0.00  0.00    +0.000 A 
ATOM     14  C   UNL     1      -4.914   5.492 131.336  0.00  0.00    +0.000 A 
ATOM     15  C   UNL     1      -3.546   5.741 131.382  0.00  0.00    +0.000 A 
ATOM     16  C   UNL     1      -3.042   6.971 130.958  0.00  0.00    +0.000 A 
ATOM     17  C   UNL     1      -3.904   7.931 130.431  0.00  0.00    +0.000 A 
ATOM     18  C   UNL     1      -5.287   7.738 130.521  0.00  0.00    +0.000 A 
ENDBRANCH   3  13
BRANCH   1  22
ATOM     19  C   UNL     1     -11.406   8.315 127.940  0.00  0.00    +0.000 C 
ATOM     20  C   UNL     1     -10.467   7.377 128.580  0.00  0.00    +0.000 C 
ATOM     21  O   UNL     1      -9.782   6.708 127.811  0.00  0.00    +0.000 OA
ATOM     22  N   UNL     1     -10.447   7.389 129.959  0.00  0.00    +0.000 N 
ATOM     23  H   UNL     1     -10.781   8.193 130.465  0.00  0.00    +0.000 HD
ENDBRANCH   1  22
BRANCH  10  24
ATOM     24  C   UNL     1      -9.708   2.675 130.735  0.00  0.00    +0.000 C 
BRANCH  24  25
ATOM     25  C   UNL     1      -8.879   1.903 129.738  0.00  0.00    +0.000 C 
ATOM     26  O   UNL     1      -8.959   2.279 128.626  0.00  0.00    +0.000 OA
ATOM     27  N   UNL     1      -8.073   0.829 130.058  0.00  0.00    +0.000 N 
ATOM     28  H   UNL     1      -8.285   0.335 130.904  0.00  0.00    +0.000 HD
BRANCH  27  29
ATOM     29  C   UNL     1      -7.240   0.154 128.992  0.00  0.00    +0.000 C 
BRANCH  29  30
ATOM     30  C   UNL     1      -7.507  -1.361 128.881  0.00  0.00    +0.000 C 
ATOM     31  N   UNL     1      -7.072  -1.994 127.754  0.00  0.00    +0.000 N 
ATOM     32  O   UNL     1      -8.058  -2.012 129.766  0.00  0.00    +0.000 OA
ATOM     33  H   UNL     1      -6.595  -1.566 126.985  0.00  0.00    +0.000 HD
ATOM     34  H   UNL     1      -7.255  -2.985 127.679  0.00  0.00    +0.000 HD
ENDBRANCH  29  30
BRANCH  29  35
ATOM     35  C   UNL     1      -5.675   0.335 129.157  0.00  0.00    +0.000 C 
BRANCH  35  36
ATOM     36  C   UNL     1      -4.987   1.539 128.543  0.00  0.00    +0.000 A 
ATOM     37  C   UNL     1      -4.042   2.321 129.216  0.00  0.00    +0.000 A 
ATOM     38  C   UNL     1      -3.448   3.446 128.634  0.00  0.00    +0.000 A 
ATOM     39  C   UNL     1      -3.823   3.870 127.361  0.00  0.00    +0.000 A 
ATOM     40 CL   UNL     1      -3.555   5.792 127.564  0.00  0.00    +0.000 Cl
ATOM     41  C   UNL     1      -4.704   2.971 126.575  0.00  0.00    +0.000 A 
ATOM     42 CL   UNL     1      -5.653   3.036 125.037  0.00  0.00    +0.000 Cl
ATOM     43  C   UNL     1      -5.155   1.797 127.195  0.00  0.00    +0.000 A 
ENDBRANCH  35  36
ENDBRANCH  29  35
ENDBRANCH  27  29
ENDBRANCH  24  25
ENDBRANCH  10  24
TORSDOF 8
ENDMDL
MODEL 5
REMARK VINA RESULT:      -8.6      4.584      6.721
REMARK  Name = CHEMBL24806
REMARK  9 active torsions:
REMARK  status: ('A' for Active; 'I' for Inactive)
REMARK    1  A    between atoms: C_1  and  C_2
REMARK    2  A    between atoms: N_4  and  C_5
REMARK    3  A    between atoms: C_7  and  C_8
REMARK    4  A    between atoms: N_20  and  C_21
REMARK    5  A    between atoms: C_21  and  C_22
REMARK    6  A    between atoms: N_24  and  C_25
REMARK    7  A    between atoms: C_25  and  C_26
REMARK    8  A    between atoms: C_25  and  C_35
REMARK    9  A    between atoms: C_26  and  C_27
REMARK                            x       y       z     vdW  Elec       q    Type
REMARK                         _______ _______ _______ _____ _____    ______ ____
ROOT
ATOM      1  C   UNL     1      -9.524   6.361 130.715  0.00  0.00    +0.000 C 
ATOM      2  N   UNL     1      -8.095   6.597 130.333  0.00  0.00    +0.000 NA
ATOM      3  C   UNL     1      -7.168   6.093 131.092  0.00  0.00    +0.000 C 
ATOM      4  C   UNL     1      -7.487   5.391 132.314  0.00  0.00    +0.000 A 
ATOM      5  C   UNL     1      -6.662   5.682 133.386  0.00  0.00    +0.000 A 
ATOM      6  C   UNL     1      -7.027   4.969 134.452  0.00  0.00    +0.000 A 
ATOM      7  C   UNL     1      -8.289   4.240 134.479  0.00  0.00    +0.000 A 
ATOM      8  C   UNL     1      -9.172   4.070 133.480  0.00  0.00    +0.000 A 
ATOM      9  C   UNL     1      -8.615   4.465 132.323  0.00  0.00    +0.000 A 
ATOM     10  N   UNL     1      -9.169   3.924 131.133  0.00  0.00    +0.000 N 
ATOM     11  C   UNL     1      -9.975   4.863 130.563  0.00  0.00    +0.000 C 
ATOM     12  O   UNL     1     -11.079   4.459 130.191  0.00  0.00    +0.000 OA
ENDROOT
BRANCH   3  13
ATOM     13  C   UNL     1      -5.708   6.265 130.808  0.00  0.00    +0.000 A 
ATOM     14  C   UNL     1      -4.958   5.133 130.500  0.00  0.00    +0.000 A 
ATOM     15  C   UNL     1      -3.571   5.232 130.439  0.00  0.00    +0.000 A 
ATOM     16  C   UNL     1      -2.953   6.481 130.492  0.00  0.00    +0.000 A 
ATOM     17  C   UNL     1      -3.728   7.638 130.544  0.00  0.00    +0.000 A 
ATOM     18  C   UNL     1      -5.108   7.534 130.752  0.00  0.00    +0.000 A 
ENDBRANCH   3  13
BRANCH   1  22
ATOM     19  C   UNL     1     -11.391   8.117 127.948  0.00  0.00    +0.000 C 
ATOM     20  C   UNL     1     -10.432   7.196 128.582  0.00  0.00    +0.000 C 
ATOM     21  O   UNL     1      -9.744   6.534 127.809  0.00  0.00    +0.000 OA
ATOM     22  N   UNL     1     -10.400   7.213 129.960  0.00  0.00    +0.000 N 
ATOM     23  H   UNL     1     -10.742   8.012 130.468  0.00  0.00    +0.000 HD
ENDBRANCH   1  22
BRANCH  10  24
ATOM     24  C   UNL     1      -9.757   2.528 130.966  0.00  0.00    +0.000 C 
BRANCH  24  25
ATOM     25  C   UNL     1      -8.822   1.550 130.296  0.00  0.00    +0.000 C 
ATOM     26  O   UNL     1      -8.690   0.524 130.855  0.00  0.00    +0.000 OA
ATOM     27  N   UNL     1      -8.150   1.798 129.116  0.00  0.00    +0.000 N 
ATOM     28  H   UNL     1      -8.012   2.758 128.862  0.00  0.00    +0.000 HD
BRANCH  27  29
ATOM     29  C   UNL     1      -7.274   0.732 128.498  0.00  0.00    +0.000 C 
BRANCH  29  30
ATOM     30  C   UNL     1      -5.808   0.797 128.974  0.00  0.00    +0.000 C 
ATOM     31  N   UNL     1      -4.923  -0.064 128.397  0.00  0.00    +0.000 N 
ATOM     32  O   UNL     1      -5.411   1.600 129.816  0.00  0.00    +0.000 OA
ATOM     33  H   UNL     1      -5.134  -0.741 127.690  0.00  0.00    +0.000 HD
ATOM     34  H   UNL     1      -3.964  -0.026 128.716  0.00  0.00    +0.000 HD
ENDBRANCH  29  30
BRANCH  29  35
ATOM     35  C   UNL     1      -7.243   0.732 126.914  0.00  0.00    +0.000 C 
BRANCH  35  36
ATOM     36  C   UNL     1      -7.645  -0.517 126.152  0.00  0.00    +0.000 A 
ATOM     37  C   UNL     1      -7.601  -0.625 124.759  0.00  0.00    +0.000 A 
ATOM     38  C   UNL     1      -8.008  -1.779 124.082  0.00  0.00    +0.000 A 
ATOM     39  C   UNL     1      -8.536  -2.864 124.780  0.00  0.00    +0.000 A 
ATOM     40 CL   UNL     1      -9.774  -3.547 123.436  0.00  0.00    +0.000 Cl
ATOM     41  C   UNL     1      -8.447  -2.829 126.261  0.00  0.00    +0.000 A 
ATOM     42 CL   UNL     1      -9.091  -3.773 127.663  0.00  0.00    +0.000 Cl
ATOM     43  C   UNL     1      -7.907  -1.679 126.854  0.00  0.00    +0.000 A 
ENDBRANCH  35  36
ENDBRANCH  29  35
ENDBRANCH  27  29
ENDBRANCH  24  25
ENDBRANCH  10  24
TORSDOF 8
ENDMDL
MODEL 6
REMARK VINA RESULT:      -8.6      4.501      6.595
REMARK  Name = CHEMBL24806
REMARK  9 active torsions:
REMARK  status: ('A' for Active; 'I' for Inactive)
REMARK    1  A    between atoms: C_1  and  C_2
REMARK    2  A    between atoms: N_4  and  C_5
REMARK    3  A    between atoms: C_7  and  C_8
REMARK    4  A    between atoms: N_20  and  C_21
REMARK    5  A    between atoms: C_21  and  C_22
REMARK    6  A    between atoms: N_24  and  C_25
REMARK    7  A    between atoms: C_25  and  C_26
REMARK    8  A    between atoms: C_25  and  C_35
REMARK    9  A    between atoms: C_26  and  C_27
REMARK                            x       y       z     vdW  Elec       q    Type
REMARK                         _______ _______ _______ _____ _____    ______ ____
ROOT
ATOM      1  C   UNL     1      -9.679   6.222 130.870  0.00  0.00    +0.000 C 
ATOM      2  N   UNL     1      -8.290   6.727 130.632  0.00  0.00    +0.000 NA
ATOM      3  C   UNL     1      -7.349   6.326 131.434  0.00  0.00    +0.000 C 
ATOM      4  C   UNL     1      -7.632   5.483 132.573  0.00  0.00    +0.000 A 
ATOM      5  C   UNL     1      -6.953   5.819 133.730  0.00  0.00    +0.000 A 
ATOM      6  C   UNL     1      -7.267   4.970 134.710  0.00  0.00    +0.000 A 
ATOM      7  C   UNL     1      -8.380   4.039 134.575  0.00  0.00    +0.000 A 
ATOM      8  C   UNL     1      -9.142   3.804 133.492  0.00  0.00    +0.000 A 
ATOM      9  C   UNL     1      -8.576   4.382 132.419  0.00  0.00    +0.000 A 
ATOM     10  N   UNL     1      -8.935   3.854 131.150  0.00  0.00    +0.000 N 
ATOM     11  C   UNL     1      -9.849   4.687 130.577  0.00  0.00    +0.000 C 
ATOM     12  O   UNL     1     -10.833   4.134 130.081  0.00  0.00    +0.000 OA
ENDROOT
BRANCH   3  13
ATOM     13  C   UNL     1      -5.925   6.765 131.293  0.00  0.00    +0.000 A 
ATOM     14  C   UNL     1      -4.960   6.136 132.075  0.00  0.00    +0.000 A 
ATOM     15  C   UNL     1      -3.671   6.661 132.120  0.00  0.00    +0.000 A 
ATOM     16  C   UNL     1      -3.299   7.683 131.247  0.00  0.00    +0.000 A 
ATOM     17  C   UNL     1      -4.200   8.138 130.285  0.00  0.00    +0.000 A 
ATOM     18  C   UNL     1      -5.533   7.716 130.335  0.00  0.00    +0.000 A 
ENDBRANCH   3  13
BRANCH   1  22
ATOM     19  C   UNL     1     -12.769   8.017 129.660  0.00  0.00    +0.000 C 
ATOM     20  C   UNL     1     -11.909   7.223 130.555  0.00  0.00    +0.000 C 
ATOM     21  O   UNL     1     -12.437   6.847 131.598  0.00  0.00    +0.000 OA
ATOM     22  N   UNL     1     -10.632   6.972 130.099  0.00  0.00    +0.000 N 
ATOM     23  H   UNL     1     -10.423   7.025 129.116  0.00  0.00    +0.000 HD
ENDBRANCH   1  22
BRANCH  10  24
ATOM     24  C   UNL     1      -9.256   2.397 130.838  0.00  0.00    +0.000 C 
BRANCH  24  25
ATOM     25  C   UNL     1      -8.562   1.873 129.604  0.00  0.00    +0.000 C 
ATOM     26  O   UNL     1      -7.746   1.050 129.802  0.00  0.00    +0.000 OA
ATOM     27  N   UNL     1      -8.832   2.299 128.318  0.00  0.00    +0.000 N 
ATOM     28  H   UNL     1      -9.255   3.201 128.215  0.00  0.00    +0.000 HD
BRANCH  27  29
ATOM     29  C   UNL     1      -8.117   1.674 127.142  0.00  0.00    +0.000 C 
BRANCH  29  30
ATOM     30  C   UNL     1      -7.744   2.693 126.045  0.00  0.00    +0.000 C 
ATOM     31  N   UNL     1      -6.486   2.624 125.527  0.00  0.00    +0.000 N 
ATOM     32  O   UNL     1      -8.533   3.529 125.609  0.00  0.00    +0.000 OA
ATOM     33  H   UNL     1      -5.773   1.971 125.793  0.00  0.00    +0.000 HD
ATOM     34  H   UNL     1      -6.239   3.297 124.814  0.00  0.00    +0.000 HD
ENDBRANCH  29  30
BRANCH  29  35
ATOM     35  C   UNL     1      -8.909   0.501 126.429  0.00  0.00    +0.000 C 
BRANCH  35  36
ATOM     36  C   UNL     1      -8.155  -0.702 125.894  0.00  0.00    +0.000 A 
ATOM     37  C   UNL     1      -6.817  -0.976 126.193  0.00  0.00    +0.000 A 
ATOM     38  C   UNL     1      -6.138  -2.076 125.659  0.00  0.00    +0.000 A 
ATOM     39  C   UNL     1      -6.765  -2.924 124.746  0.00  0.00    +0.000 A 
ATOM     40 CL   UNL     1      -5.221  -3.454 123.679  0.00  0.00    +0.000 Cl
ATOM     41  C   UNL     1      -8.223  -2.740 124.536  0.00  0.00    +0.000 A 
ATOM     42 CL   UNL     1      -9.498  -3.343 123.405  0.00  0.00    +0.000 Cl
ATOM     43  C   UNL     1      -8.850  -1.684 125.213  0.00  0.00    +0.000 A 
ENDBRANCH  35  36
ENDBRANCH  29  35
ENDBRANCH  27  29
ENDBRANCH  24  25
ENDBRANCH  10  24
TORSDOF 8
ENDMDL
MODEL 7
REMARK VINA RESULT:      -8.5      3.355      4.828
REMARK  Name = CHEMBL24806
REMARK  9 active torsions:
REMARK  status: ('A' for Active; 'I' for Inactive)
REMARK    1  A    between atoms: C_1  and  C_2
REMARK    2  A    between atoms: N_4  and  C_5
REMARK    3  A    between atoms: C_7  and  C_8
REMARK    4  A    between atoms: N_20  and  C_21
REMARK    5  A    between atoms: C_21  and  C_22
REMARK    6  A    between atoms: N_24  and  C_25
REMARK    7  A    between atoms: C_25  and  C_26
REMARK    8  A    between atoms: C_25  and  C_35
REMARK    9  A    between atoms: C_26  and  C_27
REMARK                            x       y       z     vdW  Elec       q    Type
REMARK                         _______ _______ _______ _____ _____    ______ ____
ROOT
ATOM      1  C   UNL     1      -9.761   5.666 130.623  0.00  0.00    +0.000 C 
ATOM      2  N   UNL     1      -8.396   6.086 130.174  0.00  0.00    +0.000 NA
ATOM      3  C   UNL     1      -7.381   5.765 130.920  0.00  0.00    +0.000 C 
ATOM      4  C   UNL     1      -7.555   5.095 132.189  0.00  0.00    +0.000 A 
ATOM      5  C   UNL     1      -6.749   5.562 133.210  0.00  0.00    +0.000 A 
ATOM      6  C   UNL     1      -6.971   4.866 134.326  0.00  0.00    +0.000 A 
ATOM      7  C   UNL     1      -8.110   3.963 134.439  0.00  0.00    +0.000 A 
ATOM      8  C   UNL     1      -8.989   3.611 133.485  0.00  0.00    +0.000 A 
ATOM      9  C   UNL     1      -8.533   4.017 132.289  0.00  0.00    +0.000 A 
ATOM     10  N   UNL     1      -9.038   3.334 131.151  0.00  0.00    +0.000 N 
ATOM     11  C   UNL     1      -9.992   4.113 130.566  0.00  0.00    +0.000 C 
ATOM     12  O   UNL     1     -11.035   3.532 130.258  0.00  0.00    +0.000 OA
ENDROOT
BRANCH   3  13
ATOM     13  C   UNL     1      -5.972   6.132 130.571  0.00  0.00    +0.000 A 
ATOM     14  C   UNL     1      -5.187   5.185 129.920  0.00  0.00    +0.000 A 
ATOM     15  C   UNL     1      -3.822   5.417 129.772  0.00  0.00    +0.000 A 
ATOM     16  C   UNL     1      -3.284   6.663 130.094  0.00  0.00    +0.000 A 
ATOM     17  C   UNL     1      -4.122   7.697 130.508  0.00  0.00    +0.000 A 
ATOM     18  C   UNL     1      -5.464   7.422 130.796  0.00  0.00    +0.000 A 
ENDBRANCH   3  13
BRANCH   1  22
ATOM     19  C   UNL     1     -12.909   7.426 129.518  0.00  0.00    +0.000 C 
ATOM     20  C   UNL     1     -11.971   6.739 130.422  0.00  0.00    +0.000 C 
ATOM     21  O   UNL     1     -12.369   6.573 131.571  0.00  0.00    +0.000 OA
ATOM     22  N   UNL     1     -10.777   6.337 129.861  0.00  0.00    +0.000 N 
ATOM     23  H   UNL     1     -10.699   6.215 128.865  0.00  0.00    +0.000 HD
ENDBRANCH   1  22
BRANCH  10  24
ATOM     24  C   UNL     1      -9.419   1.860 131.079  0.00  0.00    +0.000 C 
BRANCH  24  25
ATOM     25  C   UNL     1      -8.278   0.922 131.388  0.00  0.00    +0.000 C 
ATOM     26  O   UNL     1      -7.543   0.720 130.493  0.00  0.00    +0.000 OA
ATOM     27  N   UNL     1      -8.072   0.321 132.614  0.00  0.00    +0.000 N 
ATOM     28  H   UNL     1      -8.866   0.235 133.220  0.00  0.00    +0.000 HD
BRANCH  27  29
ATOM     29  C   UNL     1      -6.867  -0.565 132.838  0.00  0.00    +0.000 C 
BRANCH  29  30
ATOM     30  C   UNL     1      -7.239  -2.024 133.171  0.00  0.00    +0.000 C 
ATOM     31  N   UNL     1      -6.337  -2.992 132.842  0.00  0.00    +0.000 N 
ATOM     32  O   UNL     1      -8.283  -2.338 133.739  0.00  0.00    +0.000 OA
ATOM     33  H   UNL     1      -5.451  -2.846 132.399  0.00  0.00    +0.000 HD
ATOM     34  H   UNL     1      -6.585  -3.949 133.054  0.00  0.00    +0.000 HD
ENDBRANCH  29  30
BRANCH  29  35
ATOM     35  C   UNL     1      -5.880  -0.070 133.973  0.00  0.00    +0.000 C 
BRANCH  35  36
ATOM     36  C   UNL     1      -5.082   1.205 133.775  0.00  0.00    +0.000 A 
ATOM     37  C   UNL     1      -4.693   1.693 132.524  0.00  0.00    +0.000 A 
ATOM     38  C   UNL     1      -3.930   2.856 132.376  0.00  0.00    +0.000 A 
ATOM     39  C   UNL     1      -3.472   3.554 133.492  0.00  0.00    +0.000 A 
ATOM     40 CL   UNL     1      -1.801   4.259 132.775  0.00  0.00    +0.000 Cl
ATOM     41  C   UNL     1      -4.001   3.142 134.816  0.00  0.00    +0.000 A 
ATOM     42 CL   UNL     1      -3.665   3.491 136.559  0.00  0.00    +0.000 Cl
ATOM     43  C   UNL     1      -4.863   2.037 134.858  0.00  0.00    +0.000 A 
ENDBRANCH  35  36
ENDBRANCH  29  35
ENDBRANCH  27  29
ENDBRANCH  24  25
ENDBRANCH  10  24
TORSDOF 8
ENDMDL
MODEL 8
REMARK VINA RESULT:      -8.4      5.193      8.230
REMARK  Name = CHEMBL24806
REMARK  9 active torsions:
REMARK  status: ('A' for Active; 'I' for Inactive)
REMARK    1  A    between atoms: C_1  and  C_2
REMARK    2  A    between atoms: N_4  and  C_5
REMARK    3  A    between atoms: C_7  and  C_8
REMARK    4  A    between atoms: N_20  and  C_21
REMARK    5  A    between atoms: C_21  and  C_22
REMARK    6  A    between atoms: N_24  and  C_25
REMARK    7  A    between atoms: C_25  and  C_26
REMARK    8  A    between atoms: C_25  and  C_35
REMARK    9  A    between atoms: C_26  and  C_27
REMARK                            x       y       z     vdW  Elec       q    Type
REMARK                         _______ _______ _______ _____ _____    ______ ____
ROOT
ATOM      1  C   UNL     1      -7.490   4.350 129.282  0.00  0.00    +0.000 C 
ATOM      2  N   UNL     1      -8.302   3.737 128.182  0.00  0.00    +0.000 NA
ATOM      3  C   UNL     1      -7.713   2.899 127.383  0.00  0.00    +0.000 C 
ATOM      4  C   UNL     1      -6.299   2.617 127.487  0.00  0.00    +0.000 A 
ATOM      5  C   UNL     1      -5.631   2.531 126.280  0.00  0.00    +0.000 A 
ATOM      6  C   UNL     1      -4.345   2.247 126.486  0.00  0.00    +0.000 A 
ATOM      7  C   UNL     1      -3.759   2.320 127.818  0.00  0.00    +0.000 A 
ATOM      8  C   UNL     1      -4.381   2.546 128.989  0.00  0.00    +0.000 A 
ATOM      9  C   UNL     1      -5.709   2.451 128.811  0.00  0.00    +0.000 A 
ATOM     10  N   UNL     1      -6.486   2.168 129.965  0.00  0.00    +0.000 N 
ATOM     11  C   UNL     1      -7.063   3.326 130.394  0.00  0.00    +0.000 C 
ATOM     12  O   UNL     1      -6.982   3.542 131.605  0.00  0.00    +0.000 OA
ENDROOT
BRANCH   3  13
ATOM     13  C   UNL     1      -8.424   2.226 126.250  0.00  0.00    +0.000 A 
ATOM     14  C   UNL     1      -8.381   2.826 124.995  0.00  0.00    +0.000 A 
ATOM     15  C   UNL     1      -9.200   2.340 123.980  0.00  0.00    +0.000 A 
ATOM     16  C   UNL     1      -9.908   1.152 124.158  0.00  0.00    +0.000 A 
ATOM     17  C   UNL     1      -9.749   0.416 125.330  0.00  0.00    +0.000 A 
ATOM     18  C   UNL     1      -9.044   0.974 126.403  0.00  0.00    +0.000 A 
ENDBRANCH   3  13
BRANCH   1  22
ATOM     19  C   UNL     1     -10.120   6.603 130.777  0.00  0.00    +0.000 C 
ATOM     20  C   UNL     1      -9.542   5.401 130.152  0.00  0.00    +0.000 C 
ATOM     21  O   UNL     1     -10.336   4.494 129.917  0.00  0.00    +0.000 OA
ATOM     22  N   UNL     1      -8.192   5.452 129.879  0.00  0.00    +0.000 N 
ATOM     23  H   UNL     1      -7.724   6.340 129.793  0.00  0.00    +0.000 HD
ENDBRANCH   1  22
BRANCH  10  24
ATOM     24  C   UNL     1      -6.064   1.300 131.145  0.00  0.00    +0.000 C 
BRANCH  24  25
ATOM     25  C   UNL     1      -6.495  -0.142 131.023  0.00  0.00    +0.000 C 
ATOM     26  O   UNL     1      -6.962  -0.606 131.997  0.00  0.00    +0.000 OA
ATOM     27  N   UNL     1      -6.368  -0.899 129.876  0.00  0.00    +0.000 N 
ATOM     28  H   UNL     1      -5.683  -0.604 129.207  0.00  0.00    +0.000 HD
BRANCH  27  29
ATOM     29  C   UNL     1      -6.878  -2.322 129.840  0.00  0.00    +0.000 C 
BRANCH  29  30
ATOM     30  C   UNL     1      -5.749  -3.371 129.776  0.00  0.00    +0.000 C 
ATOM     31  N   UNL     1      -6.011  -4.607 130.289  0.00  0.00    +0.000 N 
ATOM     32  O   UNL     1      -4.655  -3.149 129.261  0.00  0.00    +0.000 OA
ATOM     33  H   UNL     1      -6.871  -4.900 130.710  0.00  0.00    +0.000 HD
ATOM     34  H   UNL     1      -5.267  -5.291 130.254  0.00  0.00    +0.000 HD
ENDBRANCH  29  30
BRANCH  29  35
ATOM     35  C   UNL     1      -7.872  -2.643 128.649  0.00  0.00    +0.000 C 
BRANCH  35  36
ATOM     36  C   UNL     1      -7.474  -2.309 127.224  0.00  0.00    +0.000 A 
ATOM     37  C   UNL     1      -6.409  -1.466 126.891  0.00  0.00    +0.000 A 
ATOM     38  C   UNL     1      -6.085  -1.151 125.567  0.00  0.00    +0.000 A 
ATOM     39  C   UNL     1      -6.861  -1.630 124.512  0.00  0.00    +0.000 A 
ATOM     40 CL   UNL     1      -6.644  -0.157 123.252  0.00  0.00    +0.000 Cl
ATOM     41  C   UNL     1      -7.895  -2.645 124.834  0.00  0.00    +0.000 A 
ATOM     42 CL   UNL     1      -9.279  -3.456 123.998  0.00  0.00    +0.000 Cl
ATOM     43  C   UNL     1      -8.067  -2.995 126.180  0.00  0.00    +0.000 A 
ENDBRANCH  35  36
ENDBRANCH  29  35
ENDBRANCH  27  29
ENDBRANCH  24  25
ENDBRANCH  10  24
TORSDOF 8
ENDMDL
MODEL 9
REMARK VINA RESULT:      -8.4      4.866      7.635
REMARK  Name = CHEMBL24806
REMARK  9 active torsions:
REMARK  status: ('A' for Active; 'I' for Inactive)
REMARK    1  A    between atoms: C_1  and  C_2
REMARK    2  A    between atoms: N_4  and  C_5
REMARK    3  A    between atoms: C_7  and  C_8
REMARK    4  A    between atoms: N_20  and  C_21
REMARK    5  A    between atoms: C_21  and  C_22
REMARK    6  A    between atoms: N_24  and  C_25
REMARK    7  A    between atoms: C_25  and  C_26
REMARK    8  A    between atoms: C_25  and  C_35
REMARK    9  A    between atoms: C_26  and  C_27
REMARK                            x       y       z     vdW  Elec       q    Type
REMARK                         _______ _______ _______ _____ _____    ______ ____
ROOT
ATOM      1  C   UNL     1      -5.649   4.262 127.683  0.00  0.00    +0.000 C 
ATOM      2  N   UNL     1      -4.419   4.444 128.518  0.00  0.00    +0.000 NA
ATOM      3  C   UNL     1      -4.564   4.888 129.731  0.00  0.00    +0.000 C 
ATOM      4  C   UNL     1      -5.857   5.276 130.247  0.00  0.00    +0.000 A 
ATOM      5  C   UNL     1      -5.859   6.435 131.002  0.00  0.00    +0.000 A 
ATOM      6  C   UNL     1      -7.090   6.690 131.447  0.00  0.00    +0.000 A 
ATOM      7  C   UNL     1      -8.246   5.968 130.928  0.00  0.00    +0.000 A 
ATOM      8  C   UNL     1      -8.263   4.927 130.079  0.00  0.00    +0.000 A 
ATOM      9  C   UNL     1      -7.016   4.445 129.942  0.00  0.00    +0.000 A 
ATOM     10  N   UNL     1      -6.900   3.099 129.507  0.00  0.00    +0.000 N 
ATOM     11  C   UNL     1      -6.580   3.097 128.182  0.00  0.00    +0.000 C 
ATOM     12  O   UNL     1      -7.233   2.322 127.479  0.00  0.00    +0.000 OA
ENDROOT
BRANCH   3  13
ATOM     13  C   UNL     1      -3.406   5.109 130.654  0.00  0.00    +0.000 A 
ATOM     14  C   UNL     1      -2.613   6.236 130.459  0.00  0.00    +0.000 A 
ATOM     15  C   UNL     1      -1.417   6.357 131.161  0.00  0.00    +0.000 A 
ATOM     16  C   UNL     1      -1.112   5.461 132.186  0.00  0.00    +0.000 A 
ATOM     17  C   UNL     1      -2.033   4.481 132.551  0.00  0.00    +0.000 A 
ATOM     18  C   UNL     1      -3.164   4.268 131.754  0.00  0.00    +0.000 A 
ENDBRANCH   3  13
BRANCH   1  22
ATOM     19  C   UNL     1      -5.436   4.440 123.921  0.00  0.00    +0.000 C 
ATOM     20  C   UNL     1      -5.904   4.756 125.282  0.00  0.00    +0.000 C 
ATOM     21  O   UNL     1      -6.799   5.592 125.353  0.00  0.00    +0.000 OA
ATOM     22  N   UNL     1      -5.303   4.052 126.305  0.00  0.00    +0.000 N 
ATOM     23  H   UNL     1      -4.848   3.173 126.119  0.00  0.00    +0.000 HD
ENDBRANCH   1  22
BRANCH  10  24
ATOM     24  C   UNL     1      -7.855   1.958 129.838  0.00  0.00    +0.000 C 
BRANCH  24  25
ATOM     25  C   UNL     1      -7.162   0.649 130.127  0.00  0.00    +0.000 C 
ATOM     26  O   UNL     1      -6.864   0.481 131.252  0.00  0.00    +0.000 OA
ATOM     27  N   UNL     1      -6.876  -0.309 129.174  0.00  0.00    +0.000 N 
ATOM     28  H   UNL     1      -6.825  -0.005 128.221  0.00  0.00    +0.000 HD
BRANCH  27  29
ATOM     29  C   UNL     1      -6.224  -1.613 129.575  0.00  0.00    +0.000 C 
BRANCH  29  30
ATOM     30  C   UNL     1      -4.688  -1.594 129.429  0.00  0.00    +0.000 C 
ATOM     31  N   UNL     1      -4.039  -0.447 129.777  0.00  0.00    +0.000 N 
ATOM     32  O   UNL     1      -4.038  -2.566 129.048  0.00  0.00    +0.000 OA
ATOM     33  H   UNL     1      -4.466   0.392 130.118  0.00  0.00    +0.000 HD
ATOM     34  H   UNL     1      -3.033  -0.434 129.674  0.00  0.00    +0.000 HD
ENDBRANCH  29  30
BRANCH  29  35
ATOM     35  C   UNL     1      -6.745  -2.886 128.790  0.00  0.00    +0.000 C 
BRANCH  35  36
ATOM     36  C   UNL     1      -7.368  -2.722 127.416  0.00  0.00    +0.000 A 
ATOM     37  C   UNL     1      -8.746  -2.742 127.180  0.00  0.00    +0.000 A 
ATOM     38  C   UNL     1      -9.290  -2.620 125.897  0.00  0.00    +0.000 A 
ATOM     39  C   UNL     1      -8.462  -2.530 124.779  0.00  0.00    +0.000 A 
ATOM     40 CL   UNL     1      -9.596  -3.412 123.460  0.00  0.00    +0.000 Cl
ATOM     41  C   UNL     1      -7.009  -2.352 125.021  0.00  0.00    +0.000 A 
ATOM     42 CL   UNL     1      -5.479  -2.375 124.056  0.00  0.00    +0.000 Cl
ATOM     43  C   UNL     1      -6.564  -2.362 126.351  0.00  0.00    +0.000 A 
ENDBRANCH  35  36
ENDBRANCH  29  35
ENDBRANCH  27  29
ENDBRANCH  24  25
ENDBRANCH  10  24
TORSDOF 8
ENDMDL
