MODEL 1
REMARK VINA RESULT:      -9.2      0.000      0.000
REMARK  Name = CHEMBL286084
REMARK  2 active torsions:
REMARK  status: ('A' for Active; 'I' for Inactive)
REMARK    1  A    between atoms: C_2  and  C_3
REMARK    2  A    between atoms: C_15  and  N_16
REMARK                            x       y       z     vdW  Elec       q    Type
REMARK                         _______ _______ _______ _____ _____    ______ ____
ROOT
ATOM      1  O   UNL     1      -7.576   0.912 123.837  0.00  0.00    +0.000 OA
ATOM      2  C   UNL     1      -7.238   2.089 123.801  0.00  0.00    +0.000 C 
ATOM      3  N   UNL     1      -6.620   2.753 124.846  0.00  0.00    +0.000 N 
ATOM      4  C   UNL     1      -6.946   4.129 125.220  0.00  0.00    +0.000 C 
ATOM      5  C   UNL     1      -5.667   4.932 125.346  0.00  0.00    +0.000 C 
ATOM      6  C   UNL     1      -4.686   4.254 126.329  0.00  0.00    +0.000 C 
ATOM      7  C   UNL     1      -4.459   2.778 125.952  0.00  0.00    +0.000 C 
ATOM      8  C   UNL     1      -5.764   2.012 125.764  0.00  0.00    +0.000 C 
ENDROOT
BRANCH   6   9
ATOM      9  N   UNL     1      -5.046   4.513 127.756  0.00  0.00    +0.000 N 
ATOM     10  C   UNL     1      -6.212   4.049 128.367  0.00  0.00    +0.000 C 
ATOM     11  O   UNL     1      -6.686   2.921 128.326  0.00  0.00    +0.000 OA
ATOM     12  O   UNL     1      -6.898   5.019 129.017  0.00  0.00    +0.000 OA
ATOM     13  C   UNL     1      -6.181   5.445 130.155  0.00  0.00    +0.000 C 
ATOM     14  C   UNL     1      -4.767   5.783 129.797  0.00  0.00    +0.000 A 
ATOM     15  C   UNL     1      -3.995   6.519 130.697  0.00  0.00    +0.000 A 
ATOM     16  C   UNL     1      -2.675   6.815 130.391  0.00  0.00    +0.000 A 
ATOM     17  C   UNL     1      -2.121   6.367 129.196  0.00  0.00    +0.000 A 
ATOM     18  C   UNL     1      -2.887   5.628 128.294  0.00  0.00    +0.000 A 
ATOM     19  C   UNL     1      -4.221   5.333 128.581  0.00  0.00    +0.000 A 
ENDBRANCH   6   9
BRANCH   2  20
ATOM     20  C   UNL     1      -7.345   2.837 122.519  0.00  0.00    +0.000 A 
ATOM     21  C   UNL     1      -8.592   2.993 121.909  0.00  0.00    +0.000 A 
ATOM     22  C   UNL     1      -8.717   3.691 120.699  0.00  0.00    +0.000 A 
ATOM     23  C   UNL     1      -7.547   4.216 120.150  0.00  0.00    +0.000 A 
ATOM     24  O   UNL     1      -7.458   4.962 119.012  0.00  0.00    +0.000 OA
ATOM     25  C   UNL     1      -6.146   5.279 118.844  0.00  0.00    +0.000 A 
ATOM     26  C   UNL     1      -5.382   4.725 119.846  0.00  0.00    +0.000 A 
ATOM     27  C   UNL     1      -6.285   4.048 120.707  0.00  0.00    +0.000 A 
ATOM     28  C   UNL     1      -6.173   3.315 121.899  0.00  0.00    +0.000 A 
ENDBRANCH   2  20
TORSDOF 2
ENDMDL
MODEL 2
REMARK VINA RESULT:      -9.1      6.576      8.546
REMARK  Name = CHEMBL286084
REMARK  2 active torsions:
REMARK  status: ('A' for Active; 'I' for Inactive)
REMARK    1  A    between atoms: C_2  and  C_3
REMARK    2  A    between atoms: C_15  and  N_16
REMARK                            x       y       z     vdW  Elec       q    Type
REMARK                         _______ _______ _______ _____ _____    ______ ____
ROOT
ATOM      1  O   UNL     1      -7.881   1.412 133.208  0.00  0.00    +0.000 OA
ATOM      2  C   UNL     1      -8.140   1.734 132.054  0.00  0.00    +0.000 C 
ATOM      3  N   UNL     1      -8.635   2.974 131.686  0.00  0.00    +0.000 N 
ATOM      4  C   UNL     1      -9.675   3.148 130.672  0.00  0.00    +0.000 C 
ATOM      5  C   UNL     1      -9.234   4.202 129.677  0.00  0.00    +0.000 C 
ATOM      6  C   UNL     1      -8.864   5.518 130.397  0.00  0.00    +0.000 C 
ATOM      7  C   UNL     1      -7.846   5.264 131.523  0.00  0.00    +0.000 C 
ATOM      8  C   UNL     1      -8.283   4.151 132.469  0.00  0.00    +0.000 C 
ENDROOT
BRANCH   6   9
ATOM      9  N   UNL     1     -10.071   6.314 130.777  0.00  0.00    +0.000 N 
ATOM     10  C   UNL     1     -10.624   6.333 132.058  0.00  0.00    +0.000 C 
ATOM     11  O   UNL     1     -10.043   6.475 133.127  0.00  0.00    +0.000 OA
ATOM     12  O   UNL     1     -11.958   6.097 132.070  0.00  0.00    +0.000 OA
ATOM     13  C   UNL     1     -12.650   7.181 131.489  0.00  0.00    +0.000 C 
ATOM     14  C   UNL     1     -12.067   7.532 130.156  0.00  0.00    +0.000 A 
ATOM     15  C   UNL     1     -12.796   8.347 129.289  0.00  0.00    +0.000 A 
ATOM     16  C   UNL     1     -12.256   8.705 128.062  0.00  0.00    +0.000 A 
ATOM     17  C   UNL     1     -10.987   8.260 127.705  0.00  0.00    +0.000 A 
ATOM     18  C   UNL     1     -10.253   7.446 128.569  0.00  0.00    +0.000 A 
ATOM     19  C   UNL     1     -10.787   7.068 129.802  0.00  0.00    +0.000 A 
ENDBRANCH   6   9
BRANCH   2  20
ATOM     20  C   UNL     1      -7.773   0.817 130.942  0.00  0.00    +0.000 A 
ATOM     21  C   UNL     1      -6.981   1.284 129.890  0.00  0.00    +0.000 A 
ATOM     22  C   UNL     1      -6.625   0.439 128.829  0.00  0.00    +0.000 A 
ATOM     23  C   UNL     1      -7.095  -0.873 128.883  0.00  0.00    +0.000 A 
ATOM     24  O   UNL     1      -6.827  -1.860 127.981  0.00  0.00    +0.000 OA
ATOM     25  C   UNL     1      -7.465  -2.980 128.414  0.00  0.00    +0.000 A 
ATOM     26  C   UNL     1      -8.165  -2.722 129.571  0.00  0.00    +0.000 A 
ATOM     27  C   UNL     1      -7.917  -1.363 129.891  0.00  0.00    +0.000 A 
ATOM     28  C   UNL     1      -8.293  -0.493 130.927  0.00  0.00    +0.000 A 
ENDBRANCH   2  20
TORSDOF 2
ENDMDL
MODEL 3
REMARK VINA RESULT:      -8.8      4.594      6.204
REMARK  Name = CHEMBL286084
REMARK  2 active torsions:
REMARK  status: ('A' for Active; 'I' for Inactive)
REMARK    1  A    between atoms: C_2  and  C_3
REMARK    2  A    between atoms: C_15  and  N_16
REMARK                            x       y       z     vdW  Elec       q    Type
REMARK                         _______ _______ _______ _____ _____    ______ ____
ROOT
ATOM      1  O   UNL     1     -10.059   1.340 124.948  0.00  0.00    +0.000 OA
ATOM      2  C   UNL     1      -8.863   1.238 125.197  0.00  0.00    +0.000 C 
ATOM      3  N   UNL     1      -8.300   0.183 125.894  0.00  0.00    +0.000 N 
ATOM      4  C   UNL     1      -7.241   0.359 126.888  0.00  0.00    +0.000 C 
ATOM      5  C   UNL     1      -6.115  -0.612 126.597  0.00  0.00    +0.000 C 
ATOM      6  C   UNL     1      -6.643  -2.062 126.526  0.00  0.00    +0.000 C 
ATOM      7  C   UNL     1      -7.825  -2.172 125.545  0.00  0.00    +0.000 C 
ATOM      8  C   UNL     1      -8.911  -1.138 125.818  0.00  0.00    +0.000 C 
ENDROOT
BRANCH   6   9
ATOM      9  N   UNL     1      -6.865  -2.651 127.882  0.00  0.00    +0.000 N 
ATOM     10  C   UNL     1      -8.115  -3.023 128.379  0.00  0.00    +0.000 C 
ATOM     11  O   UNL     1      -8.983  -3.680 127.818  0.00  0.00    +0.000 OA
ATOM     12  O   UNL     1      -8.375  -2.517 129.608  0.00  0.00    +0.000 OA
ATOM     13  C   UNL     1      -7.540  -3.122 130.571  0.00  0.00    +0.000 C 
ATOM     14  C   UNL     1      -6.107  -3.071 130.141  0.00  0.00    +0.000 A 
ATOM     15  C   UNL     1      -5.106  -3.319 131.081  0.00  0.00    +0.000 A 
ATOM     16  C   UNL     1      -3.775  -3.303 130.691  0.00  0.00    +0.000 A 
ATOM     17  C   UNL     1      -3.443  -3.053 129.363  0.00  0.00    +0.000 A 
ATOM     18  C   UNL     1      -4.440  -2.807 128.418  0.00  0.00    +0.000 A 
ATOM     19  C   UNL     1      -5.784  -2.807 128.798  0.00  0.00    +0.000 A 
ENDBRANCH   6   9
BRANCH   2  20
ATOM     20  C   UNL     1      -7.910   2.211 124.598  0.00  0.00    +0.000 A 
ATOM     21  C   UNL     1      -7.461   3.298 125.353  0.00  0.00    +0.000 A 
ATOM     22  C   UNL     1      -6.566   4.230 124.809  0.00  0.00    +0.000 A 
ATOM     23  C   UNL     1      -6.153   4.014 123.494  0.00  0.00    +0.000 A 
ATOM     24  O   UNL     1      -5.257   4.772 122.799  0.00  0.00    +0.000 OA
ATOM     25  C   UNL     1      -5.130   4.210 121.568  0.00  0.00    +0.000 A 
ATOM     26  C   UNL     1      -5.953   3.112 121.449  0.00  0.00    +0.000 A 
ATOM     27  C   UNL     1      -6.608   2.969 122.699  0.00  0.00    +0.000 A 
ATOM     28  C   UNL     1      -7.531   2.065 123.248  0.00  0.00    +0.000 A 
ENDBRANCH   2  20
TORSDOF 2
ENDMDL
MODEL 4
REMARK VINA RESULT:      -8.7      6.746      8.372
REMARK  Name = CHEMBL286084
REMARK  2 active torsions:
REMARK  status: ('A' for Active; 'I' for Inactive)
REMARK    1  A    between atoms: C_2  and  C_3
REMARK    2  A    between atoms: C_15  and  N_16
REMARK                            x       y       z     vdW  Elec       q    Type
REMARK                         _______ _______ _______ _____ _____    ______ ____
ROOT
ATOM      1  O   UNL     1      -9.568   6.326 133.045  0.00  0.00    +0.000 OA
ATOM      2  C   UNL     1      -9.554   5.777 131.950  0.00  0.00    +0.000 C 
ATOM      3  N   UNL     1      -9.081   4.494 131.730  0.00  0.00    +0.000 N 
ATOM      4  C   UNL     1      -8.285   4.128 130.559  0.00  0.00    +0.000 C 
ATOM      5  C   UNL     1      -8.873   2.886 129.921  0.00  0.00    +0.000 C 
ATOM      6  C   UNL     1      -8.993   1.742 130.953  0.00  0.00    +0.000 C 
ATOM      7  C   UNL     1      -9.747   2.210 132.211  0.00  0.00    +0.000 C 
ATOM      8  C   UNL     1      -9.177   3.500 132.791  0.00  0.00    +0.000 C 
ENDROOT
BRANCH   6   9
ATOM      9  N   UNL     1      -7.686   1.058 131.194  0.00  0.00    +0.000 N 
ATOM     10  C   UNL     1      -6.992   1.099 132.404  0.00  0.00    +0.000 C 
ATOM     11  O   UNL     1      -7.432   0.919 133.532  0.00  0.00    +0.000 OA
ATOM     12  O   UNL     1      -5.691   1.450 132.263  0.00  0.00    +0.000 OA
ATOM     13  C   UNL     1      -4.977   0.424 131.608  0.00  0.00    +0.000 C 
ATOM     14  C   UNL     1      -5.674   0.010 130.350  0.00  0.00    +0.000 A 
ATOM     15  C   UNL     1      -4.980  -0.748 129.406  0.00  0.00    +0.000 A 
ATOM     16  C   UNL     1      -5.622  -1.163 128.248  0.00  0.00    +0.000 A 
ATOM     17  C   UNL     1      -6.958  -0.834 128.038  0.00  0.00    +0.000 A 
ATOM     18  C   UNL     1      -7.657  -0.078 128.980  0.00  0.00    +0.000 A 
ATOM     19  C   UNL     1      -7.022   0.358 130.144  0.00  0.00    +0.000 A 
ENDBRANCH   6   9
BRANCH   2  20
ATOM     20  C   UNL     1     -10.215   6.440 130.794  0.00  0.00    +0.000 A 
ATOM     21  C   UNL     1      -9.518   7.396 130.051  0.00  0.00    +0.000 A 
ATOM     22  C   UNL     1     -10.122   8.037 128.960  0.00  0.00    +0.000 A 
ATOM     23  C   UNL     1     -11.434   7.670 128.660  0.00  0.00    +0.000 A 
ATOM     24  O   UNL     1     -12.181   8.137 127.619  0.00  0.00    +0.000 OA
ATOM     25  C   UNL     1     -13.388   7.515 127.684  0.00  0.00    +0.000 A 
ATOM     26  C   UNL     1     -13.441   6.671 128.770  0.00  0.00    +0.000 A 
ATOM     27  C   UNL     1     -12.172   6.753 129.399  0.00  0.00    +0.000 A 
ATOM     28  C   UNL     1     -11.564   6.148 130.510  0.00  0.00    +0.000 A 
ENDBRANCH   2  20
TORSDOF 2
ENDMDL
MODEL 5
REMARK VINA RESULT:      -8.6      6.264      7.609
REMARK  Name = CHEMBL286084
REMARK  2 active torsions:
REMARK  status: ('A' for Active; 'I' for Inactive)
REMARK    1  A    between atoms: C_2  and  C_3
REMARK    2  A    between atoms: C_15  and  N_16
REMARK                            x       y       z     vdW  Elec       q    Type
REMARK                         _______ _______ _______ _____ _____    ______ ____
ROOT
ATOM      1  O   UNL     1     -10.440   3.445 129.995  0.00  0.00    +0.000 OA
ATOM      2  C   UNL     1      -9.983   4.508 130.397  0.00  0.00    +0.000 C 
ATOM      3  N   UNL     1      -8.657   4.704 130.742  0.00  0.00    +0.000 N 
ATOM      4  C   UNL     1      -8.243   5.493 131.902  0.00  0.00    +0.000 C 
ATOM      5  C   UNL     1      -7.182   6.489 131.478  0.00  0.00    +0.000 C 
ATOM      6  C   UNL     1      -6.003   5.774 130.780  0.00  0.00    +0.000 C 
ATOM      7  C   UNL     1      -6.503   4.875 129.635  0.00  0.00    +0.000 C 
ATOM      8  C   UNL     1      -7.618   3.931 130.073  0.00  0.00    +0.000 C 
ENDROOT
BRANCH   6   9
ATOM      9  N   UNL     1      -5.075   5.128 131.757  0.00  0.00    +0.000 N 
ATOM     10  C   UNL     1      -5.467   4.178 132.701  0.00  0.00    +0.000 C 
ATOM     11  O   UNL     1      -6.167   3.188 132.527  0.00  0.00    +0.000 OA
ATOM     12  O   UNL     1      -5.052   4.467 133.957  0.00  0.00    +0.000 OA
ATOM     13  C   UNL     1      -3.650   4.337 134.050  0.00  0.00    +0.000 C 
ATOM     14  C   UNL     1      -2.972   5.098 132.954  0.00  0.00    +0.000 A 
ATOM     15  C   UNL     1      -1.605   5.360 133.055  0.00  0.00    +0.000 A 
ATOM     16  C   UNL     1      -0.956   6.039 132.033  0.00  0.00    +0.000 A 
ATOM     17  C   UNL     1      -1.667   6.444 130.907  0.00  0.00    +0.000 A 
ATOM     18  C   UNL     1      -3.034   6.182 130.800  0.00  0.00    +0.000 A 
ATOM     19  C   UNL     1      -3.703   5.511 131.826  0.00  0.00    +0.000 A 
ENDBRANCH   6   9
BRANCH   2  20
ATOM     20  C   UNL     1     -10.844   5.722 130.383  0.00  0.00    +0.000 A 
ATOM     21  C   UNL     1     -11.611   6.042 131.507  0.00  0.00    +0.000 A 
ATOM     22  C   UNL     1     -12.432   7.179 131.515  0.00  0.00    +0.000 A 
ATOM     23  C   UNL     1     -12.437   7.961 130.360  0.00  0.00    +0.000 A 
ATOM     24  O   UNL     1     -13.126   9.124 130.182  0.00  0.00    +0.000 OA
ATOM     25  C   UNL     1     -12.845   9.566 128.927  0.00  0.00    +0.000 A 
ATOM     26  C   UNL     1     -12.002   8.689 128.283  0.00  0.00    +0.000 A 
ATOM     27  C   UNL     1     -11.720   7.654 129.211  0.00  0.00    +0.000 A 
ATOM     28  C   UNL     1     -10.931   6.492 129.206  0.00  0.00    +0.000 A 
ENDBRANCH   2  20
TORSDOF 2
ENDMDL
MODEL 6
REMARK VINA RESULT:      -8.5      6.968      8.737
REMARK  Name = CHEMBL286084
REMARK  2 active torsions:
REMARK  status: ('A' for Active; 'I' for Inactive)
REMARK    1  A    between atoms: C_2  and  C_3
REMARK    2  A    between atoms: C_15  and  N_16
REMARK                            x       y       z     vdW  Elec       q    Type
REMARK                         _______ _______ _______ _____ _____    ______ ____
ROOT
ATOM      1  O   UNL     1      -8.802   6.229 133.575  0.00  0.00    +0.000 OA
ATOM      2  C   UNL     1      -9.066   5.711 132.497  0.00  0.00    +0.000 C 
ATOM      3  N   UNL     1      -8.601   4.470 132.095  0.00  0.00    +0.000 N 
ATOM      4  C   UNL     1      -8.149   4.191 130.733  0.00  0.00    +0.000 C 
ATOM      5  C   UNL     1      -8.819   2.929 130.230  0.00  0.00    +0.000 C 
ATOM      6  C   UNL     1      -8.576   1.752 131.202  0.00  0.00    +0.000 C 
ATOM      7  C   UNL     1      -8.970   2.134 132.640  0.00  0.00    +0.000 C 
ATOM      8  C   UNL     1      -8.336   3.444 133.095  0.00  0.00    +0.000 C 
ENDROOT
BRANCH   6   9
ATOM      9  N   UNL     1      -7.217   1.153 131.036  0.00  0.00    +0.000 N 
ATOM     10  C   UNL     1      -6.025   1.829 131.300  0.00  0.00    +0.000 C 
ATOM     11  O   UNL     1      -5.742   2.500 132.284  0.00  0.00    +0.000 OA
ATOM     12  O   UNL     1      -5.132   1.756 130.285  0.00  0.00    +0.000 OA
ATOM     13  C   UNL     1      -4.641   0.439 130.160  0.00  0.00    +0.000 C 
ATOM     14  C   UNL     1      -5.768  -0.544 130.101  0.00  0.00    +0.000 A 
ATOM     15  C   UNL     1      -5.513  -1.844 129.660  0.00  0.00    +0.000 A 
ATOM     16  C   UNL     1      -6.541  -2.775 129.628  0.00  0.00    +0.000 A 
ATOM     17  C   UNL     1      -7.819  -2.415 130.045  0.00  0.00    +0.000 A 
ATOM     18  C   UNL     1      -8.078  -1.117 130.490  0.00  0.00    +0.000 A 
ATOM     19  C   UNL     1      -7.057  -0.165 130.516  0.00  0.00    +0.000 A 
ENDBRANCH   6   9
BRANCH   2  20
ATOM     20  C   UNL     1     -10.064   6.358 131.603  0.00  0.00    +0.000 A 
ATOM     21  C   UNL     1     -11.423   6.299 131.923  0.00  0.00    +0.000 A 
ATOM     22  C   UNL     1     -12.383   6.898 131.093  0.00  0.00    +0.000 A 
ATOM     23  C   UNL     1     -11.912   7.548 129.952  0.00  0.00    +0.000 A 
ATOM     24  O   UNL     1     -12.670   8.228 129.046  0.00  0.00    +0.000 OA
ATOM     25  C   UNL     1     -11.821   8.716 128.102  0.00  0.00    +0.000 A 
ATOM     26  C   UNL     1     -10.526   8.337 128.374  0.00  0.00    +0.000 A 
ATOM     27  C   UNL     1     -10.574   7.593 129.581  0.00  0.00    +0.000 A 
ATOM     28  C   UNL     1      -9.630   6.958 130.403  0.00  0.00    +0.000 A 
ENDBRANCH   2  20
TORSDOF 2
ENDMDL
MODEL 7
REMARK VINA RESULT:      -8.3      3.155      8.231
REMARK  Name = CHEMBL286084
REMARK  2 active torsions:
REMARK  status: ('A' for Active; 'I' for Inactive)
REMARK    1  A    between atoms: C_2  and  C_3
REMARK    2  A    between atoms: C_15  and  N_16
REMARK                            x       y       z     vdW  Elec       q    Type
REMARK                         _______ _______ _______ _____ _____    ______ ____
ROOT
ATOM      1  O   UNL     1      -8.331   4.572 127.531  0.00  0.00    +0.000 OA
ATOM      2  C   UNL     1      -7.363   3.855 127.307  0.00  0.00    +0.000 C 
ATOM      3  N   UNL     1      -7.395   2.739 126.488  0.00  0.00    +0.000 N 
ATOM      4  C   UNL     1      -6.698   1.494 126.811  0.00  0.00    +0.000 C 
ATOM      5  C   UNL     1      -5.889   1.047 125.610  0.00  0.00    +0.000 C 
ATOM      6  C   UNL     1      -6.782   0.933 124.355  0.00  0.00    +0.000 C 
ATOM      7  C   UNL     1      -7.573   2.233 124.121  0.00  0.00    +0.000 C 
ATOM      8  C   UNL     1      -8.323   2.696 125.365  0.00  0.00    +0.000 C 
ENDROOT
BRANCH   6   9
ATOM      9  N   UNL     1      -7.584  -0.328 124.344  0.00  0.00    +0.000 N 
ATOM     10  C   UNL     1      -8.973  -0.375 124.473  0.00  0.00    +0.000 C 
ATOM     11  O   UNL     1      -9.807   0.304 123.887  0.00  0.00    +0.000 OA
ATOM     12  O   UNL     1      -9.394  -1.246 125.421  0.00  0.00    +0.000 OA
ATOM     13  C   UNL     1      -9.144  -2.572 125.010  0.00  0.00    +0.000 C 
ATOM     14  C   UNL     1      -7.723  -2.734 124.570  0.00  0.00    +0.000 A 
ATOM     15  C   UNL     1      -7.195  -4.018 124.437  0.00  0.00    +0.000 A 
ATOM     16  C   UNL     1      -5.887  -4.184 124.002  0.00  0.00    +0.000 A 
ATOM     17  C   UNL     1      -5.112  -3.072 123.689  0.00  0.00    +0.000 A 
ATOM     18  C   UNL     1      -5.637  -1.785 123.819  0.00  0.00    +0.000 A 
ATOM     19  C   UNL     1      -6.946  -1.601 124.267  0.00  0.00    +0.000 A 
ENDBRANCH   6   9
BRANCH   2  20
ATOM     20  C   UNL     1      -6.023   4.264 127.807  0.00  0.00    +0.000 A 
ATOM     21  C   UNL     1      -5.013   4.590 126.898  0.00  0.00    +0.000 A 
ATOM     22  C   UNL     1      -3.740   4.975 127.345  0.00  0.00    +0.000 A 
ATOM     23  C   UNL     1      -3.544   5.017 128.726  0.00  0.00    +0.000 A 
ATOM     24  O   UNL     1      -2.403   5.406 129.363  0.00  0.00    +0.000 OA
ATOM     25  C   UNL     1      -2.640   5.312 130.699  0.00  0.00    +0.000 A 
ATOM     26  C   UNL     1      -3.912   4.840 130.933  0.00  0.00    +0.000 A 
ATOM     27  C   UNL     1      -4.511   4.662 129.659  0.00  0.00    +0.000 A 
ATOM     28  C   UNL     1      -5.768   4.244 129.193  0.00  0.00    +0.000 A 
ENDBRANCH   2  20
TORSDOF 2
ENDMDL
MODEL 8
REMARK VINA RESULT:      -8.2      5.784      9.946
REMARK  Name = CHEMBL286084
REMARK  2 active torsions:
REMARK  status: ('A' for Active; 'I' for Inactive)
REMARK    1  A    between atoms: C_2  and  C_3
REMARK    2  A    between atoms: C_15  and  N_16
REMARK                            x       y       z     vdW  Elec       q    Type
REMARK                         _______ _______ _______ _____ _____    ______ ____
ROOT
ATOM      1  O   UNL     1      -3.343   5.871 129.781  0.00  0.00    +0.000 OA
ATOM      2  C   UNL     1      -4.151   6.255 130.617  0.00  0.00    +0.000 C 
ATOM      3  N   UNL     1      -5.515   6.031 130.540  0.00  0.00    +0.000 N 
ATOM      4  C   UNL     1      -6.510   7.040 130.903  0.00  0.00    +0.000 C 
ATOM      5  C   UNL     1      -7.530   6.425 131.841  0.00  0.00    +0.000 C 
ATOM      6  C   UNL     1      -8.154   5.155 131.220  0.00  0.00    +0.000 C 
ATOM      7  C   UNL     1      -7.062   4.172 130.760  0.00  0.00    +0.000 C 
ATOM      8  C   UNL     1      -6.012   4.834 129.874  0.00  0.00    +0.000 C 
ENDROOT
BRANCH   6   9
ATOM      9  N   UNL     1      -9.207   5.477 130.210  0.00  0.00    +0.000 N 
ATOM     10  C   UNL     1      -9.102   5.187 128.849  0.00  0.00    +0.000 C 
ATOM     11  O   UNL     1      -8.753   4.136 128.328  0.00  0.00    +0.000 OA
ATOM     12  O   UNL     1      -9.367   6.251 128.052  0.00  0.00    +0.000 OA
ATOM     13  C   UNL     1     -10.735   6.586 128.125  0.00  0.00    +0.000 C 
ATOM     14  C   UNL     1     -11.176   6.720 129.549  0.00  0.00    +0.000 A 
ATOM     15  C   UNL     1     -12.388   7.352 129.829  0.00  0.00    +0.000 A 
ATOM     16  C   UNL     1     -12.823   7.457 131.142  0.00  0.00    +0.000 A 
ATOM     17  C   UNL     1     -12.057   6.924 132.174  0.00  0.00    +0.000 A 
ATOM     18  C   UNL     1     -10.844   6.288 131.899  0.00  0.00    +0.000 A 
ATOM     19  C   UNL     1     -10.387   6.185 130.584  0.00  0.00    +0.000 A 
ENDBRANCH   6   9
BRANCH   2  20
ATOM     20  C   UNL     1      -3.657   6.870 131.879  0.00  0.00    +0.000 A 
ATOM     21  C   UNL     1      -3.948   6.266 133.105  0.00  0.00    +0.000 A 
ATOM     22  C   UNL     1      -3.496   6.830 134.307  0.00  0.00    +0.000 A 
ATOM     23  C   UNL     1      -2.750   8.004 134.212  0.00  0.00    +0.000 A 
ATOM     24  O   UNL     1      -2.183   8.682 135.250  0.00  0.00    +0.000 OA
ATOM     25  C   UNL     1      -1.539   9.756 134.722  0.00  0.00    +0.000 A 
ATOM     26  C   UNL     1      -1.705   9.796 133.356  0.00  0.00    +0.000 A 
ATOM     27  C   UNL     1      -2.475   8.655 133.015  0.00  0.00    +0.000 A 
ATOM     28  C   UNL     1      -2.966   8.096 131.824  0.00  0.00    +0.000 A 
ENDBRANCH   2  20
TORSDOF 2
ENDMDL
MODEL 9
REMARK VINA RESULT:      -8.1      6.067      7.174
REMARK  Name = CHEMBL286084
REMARK  2 active torsions:
REMARK  status: ('A' for Active; 'I' for Inactive)
REMARK    1  A    between atoms: C_2  and  C_3
REMARK    2  A    between atoms: C_15  and  N_16
REMARK                            x       y       z     vdW  Elec       q    Type
REMARK                         _______ _______ _______ _____ _____    ______ ____
ROOT
ATOM      1  O   UNL     1      -5.860  -2.805 130.537  0.00  0.00    +0.000 OA
ATOM      2  C   UNL     1      -6.637  -2.059 129.954  0.00  0.00    +0.000 C 
ATOM      3  N   UNL     1      -6.866  -0.741 130.311  0.00  0.00    +0.000 N 
ATOM      4  C   UNL     1      -8.196  -0.132 130.299  0.00  0.00    +0.000 C 
ATOM      5  C   UNL     1      -8.137   1.186 129.553  0.00  0.00    +0.000 C 
ATOM      6  C   UNL     1      -7.053   2.110 130.151  0.00  0.00    +0.000 C 
ATOM      7  C   UNL     1      -5.698   1.386 130.238  0.00  0.00    +0.000 C 
ATOM      8  C   UNL     1      -5.799   0.032 130.933  0.00  0.00    +0.000 C 
ENDROOT
BRANCH   6   9
ATOM      9  N   UNL     1      -7.513   2.785 131.403  0.00  0.00    +0.000 N 
ATOM     10  C   UNL     1      -7.354   2.253 132.683  0.00  0.00    +0.000 C 
ATOM     11  O   UNL     1      -6.346   1.761 133.174  0.00  0.00    +0.000 OA
ATOM     12  O   UNL     1      -8.499   2.246 133.406  0.00  0.00    +0.000 OA
ATOM     13  C   UNL     1      -8.877   3.564 133.736  0.00  0.00    +0.000 C 
ATOM     14  C   UNL     1      -8.887   4.435 132.519  0.00  0.00    +0.000 A 
ATOM     15  C   UNL     1      -9.534   5.671 132.572  0.00  0.00    +0.000 A 
ATOM     16  C   UNL     1      -9.526   6.501 131.460  0.00  0.00    +0.000 A 
ATOM     17  C   UNL     1      -8.866   6.105 130.302  0.00  0.00    +0.000 A 
ATOM     18  C   UNL     1      -8.215   4.872 130.244  0.00  0.00    +0.000 A 
ATOM     19  C   UNL     1      -8.224   4.020 131.350  0.00  0.00    +0.000 A 
ENDBRANCH   6   9
BRANCH   2  20
ATOM     20  C   UNL     1      -7.276  -2.517 128.691  0.00  0.00    +0.000 A 
ATOM     21  C   UNL     1      -8.358  -3.400 128.741  0.00  0.00    +0.000 A 
ATOM     22  C   UNL     1      -8.974  -3.849 127.564  0.00  0.00    +0.000 A 
ATOM     23  C   UNL     1      -8.458  -3.368 126.360  0.00  0.00    +0.000 A 
ATOM     24  O   UNL     1      -8.939  -3.644 125.114  0.00  0.00    +0.000 OA
ATOM     25  C   UNL     1      -8.159  -2.969 124.227  0.00  0.00    +0.000 A 
ATOM     26  C   UNL     1      -7.163  -2.281 124.884  0.00  0.00    +0.000 A 
ATOM     27  C   UNL     1      -7.360  -2.522 126.268  0.00  0.00    +0.000 A 
ATOM     28  C   UNL     1      -6.732  -2.111 127.455  0.00  0.00    +0.000 A 
ENDBRANCH   2  20
TORSDOF 2
ENDMDL
