MODEL 1
REMARK VINA RESULT:     -10.0      0.000      0.000
REMARK  Name = CHEMBL375324
REMARK  21 active torsions:
REMARK  status: ('A' for Active; 'I' for Inactive)
REMARK    1  A    between atoms: C_2  and  C_4
REMARK    2  A    between atoms: C_4  and  N_5
REMARK    3  A    between atoms: C_6  and  C_8
REMARK    4  A    between atoms: C_8  and  C_9
REMARK    5  A    between atoms: C_8  and  N_16
REMARK    6  A    between atoms: C_9  and  C_10
REMARK    7  A    between atoms: C_10  and  C_11
REMARK    8  A    between atoms: C_11  and  N_12
REMARK    9  A    between atoms: C_17  and  C_19
REMARK   10  A    between atoms: C_24  and  C_26
REMARK   11  A    between atoms: C_35  and  C_36
REMARK   12  A    between atoms: C_36  and  C_37
REMARK   13  A    between atoms: C_40  and  O_41
REMARK   14  A    between atoms: C_47  and  C_48
REMARK   15  A    between atoms: C_48  and  C_49
REMARK   16  A    between atoms: C_58  and  C_59
REMARK   17  A    between atoms: C_59  and  C_60
REMARK   18  A    between atoms: C_60  and  C_61
REMARK   19  A    between atoms: C_61  and  N_62
REMARK   20  A    between atoms: C_69  and  C_70
REMARK   21  A    between atoms: C_70  and  C_71
REMARK                            x       y       z     vdW  Elec       q    Type
REMARK                         _______ _______ _______ _____ _____    ______ ____
ROOT
ATOM      1  C   UNL     1      -8.000   1.322 130.042  0.00  0.00    +0.000 C 
ATOM      2  C   UNL     1      -8.133  -0.740 131.328  0.00  0.00    +0.000 C 
ATOM      3  S   UNL     1      -7.924  -2.694 133.242  0.00  0.00    +0.000 S 
ATOM      4  S   UNL     1      -7.258  -4.776 134.975  0.00  0.00    +0.000 S 
ATOM      5  C   UNL     1      -5.728  -4.565 136.467  0.00  0.00    +0.000 C 
ATOM      6  C   UNL     1      -4.392  -5.061 137.074  0.00  0.00    +0.000 C 
ATOM      7  C   UNL     1      -3.289  -3.998 137.379  0.00  0.00    +0.000 C 
ATOM      8  O   UNL     1      -2.285  -4.311 138.027  0.00  0.00    +0.000 OA
ATOM      9  N   UNL     1      -3.432  -2.721 136.899  0.00  0.00    +0.000 N 
ATOM     10  C   UNL     1      -4.527  -2.258 136.089  0.00  0.00    +0.000 C 
ATOM     11  C   UNL     1      -4.470  -3.099 134.624  0.00  0.00    +0.000 C 
ATOM     12  O   UNL     1      -4.379  -4.336 134.456  0.00  0.00    +0.000 OA
ATOM     13  N   UNL     1      -4.707  -2.449 133.520  0.00  0.00    +0.000 N 
ATOM     14  C   UNL     1      -4.663  -1.068 133.396  0.00  0.00    +0.000 C 
ATOM     15  C   UNL     1      -6.080  -0.534 134.078  0.00  0.00    +0.000 C 
ATOM     16  O   UNL     1      -6.568  -0.645 135.212  0.00  0.00    +0.000 OA
ATOM     17  N   UNL     1      -6.882   0.127 133.354  0.00  0.00    +0.000 N 
ATOM     18  C   UNL     1      -6.464   0.583 132.175  0.00  0.00    +0.000 C 
ATOM     19  C   UNL     1      -4.696   1.583 132.104  0.00  0.00    +0.000 C 
ATOM     20  O   UNL     1      -3.593   1.204 132.406  0.00  0.00    +0.000 OA
ATOM     21  N   UNL     1      -4.755   3.080 131.767  0.00  0.00    +0.000 N 
ATOM     22  C   UNL     1      -6.381   3.663 130.783  0.00  0.00    +0.000 C 
ATOM     23  C   UNL     1      -7.099   1.907 129.969  0.00  0.00    +0.000 C 
ATOM     24  O   UNL     1      -6.490   0.645 130.269  0.00  0.00    +0.000 OA
ATOM     25  N   UNL     1      -7.942   2.298 128.771  0.00  0.00    +0.000 N 
ATOM     26  H   UNL     1      -2.735  -2.003 137.102  0.00  0.00    +0.000 HD
ATOM     27  H   UNL     1      -4.730  -3.040 132.705  0.00  0.00    +0.000 HD
ATOM     28  H   UNL     1      -7.538   0.645 133.864  0.00  0.00    +0.000 HD
ATOM     29  H   UNL     1      -3.947   3.095 131.094  0.00  0.00    +0.000 HD
ATOM     30  H   UNL     1      -7.675   2.421 127.653  0.00  0.00    +0.000 HD
ENDROOT
BRANCH   1  36
ATOM     31  C   UNL     1      -4.127   4.228 127.326  0.00  0.00    +0.000 C 
ATOM     32  C   UNL     1      -2.628   4.355 128.037  0.00  0.00    +0.000 C 
ATOM     33  C   UNL     1      -2.303   5.774 127.924  0.00  0.00    +0.000 C 
ATOM     34  C   UNL     1      -4.231   6.204 128.064  0.00  0.00    +0.000 C 
ATOM     35  N   UNL     1      -5.730   4.701 128.055  0.00  0.00    +0.000 N 
ATOM     36  C   UNL     1      -7.048   3.426 129.019  0.00  0.00    +0.000 C 
ATOM     37  O   UNL     1      -7.317   4.832 128.908  0.00  0.00    +0.000 OA
BRANCH  31  39
ATOM     38  N   UNL     1      -5.246   2.552 126.471  0.00  0.00    +0.000 N 
ATOM     39  C   UNL     1      -4.581   2.951 127.448  0.00  0.00    +0.000 C 
ATOM     40  O   UNL     1      -4.347   2.076 128.205  0.00  0.00    +0.000 OA
ATOM     41  H   UNL     1      -5.647   3.260 125.575  0.00  0.00    +0.000 HD
BRANCH  38  42
ATOM     42  C   UNL     1      -5.495   1.211 126.015  0.00  0.00    +0.000 C 
BRANCH  42  44
ATOM     43  N   UNL     1      -8.270   0.357 124.476  0.00  0.00    +0.000 N 
ATOM     44  C   UNL     1      -6.770   1.422 124.362  0.00  0.00    +0.000 C 
ATOM     45  O   UNL     1      -6.983   2.636 124.119  0.00  0.00    +0.000 OA
ATOM     46  H   UNL     1      -8.272  -0.421 125.336  0.00  0.00    +0.000 HD
BRANCH  43  47
ATOM     47  C   UNL     1      -9.617   0.967 124.553  0.00  0.00    +0.000 C 
BRANCH  47  49
ATOM     48  N   UNL     1      -9.504   2.050 122.450  0.00  0.00    +0.000 N 
ATOM     49  C   UNL     1     -10.086   1.058 123.137  0.00  0.00    +0.000 C 
ATOM     50  O   UNL     1     -10.872   0.316 122.578  0.00  0.00    +0.000 OA
ATOM     51  H   UNL     1      -9.702   2.158 121.469  0.00  0.00    +0.000 HD
ATOM     52  H   UNL     1      -8.845   2.675 122.879  0.00  0.00    +0.000 HD
ENDBRANCH  47  49
ENDBRANCH  43  47
ENDBRANCH  42  44
BRANCH  42  53
ATOM     53  C   UNL     1      -5.469  -0.162 127.805  0.00  0.00    +0.000 C 
BRANCH  53  54
ATOM     54  C   UNL     1      -5.804  -1.534 127.732  0.00  0.00    +0.000 C 
BRANCH  54  55
ATOM     55  C   UNL     1      -7.201  -1.681 127.823  0.00  0.00    +0.000 C 
BRANCH  55  56
ATOM     56  N   UNL     1      -7.415  -1.933 126.495  0.00  0.00    +0.000 NA
ATOM     57  C   UNL     1      -8.224  -2.894 126.342  0.00  0.00    +0.000 C 
ATOM     58  N   UNL     1      -8.852  -3.566 127.321  0.00  0.00    +0.000 N 
ATOM     59  N   UNL     1      -8.347  -3.388 125.130  0.00  0.00    +0.000 N 
ATOM     60  H   UNL     1      -8.723  -3.314 128.294  0.00  0.00    +0.000 HD
ATOM     61  H   UNL     1      -9.478  -4.333 127.158  0.00  0.00    +0.000 HD
ATOM     62  H   UNL     1      -7.942  -2.823 124.385  0.00  0.00    +0.000 HD
ATOM     63  H   UNL     1      -9.032  -4.031 124.768  0.00  0.00    +0.000 HD
ENDBRANCH  55  56
ENDBRANCH  54  55
ENDBRANCH  53  54
ENDBRANCH  42  53
ENDBRANCH  38  42
ENDBRANCH  31  39
ENDBRANCH   1  36
BRANCH  10  64
ATOM     64  C   UNL     1      -4.301  -0.836 135.943  0.00  0.00    +0.000 C 
BRANCH  64  65
ATOM     65  C   UNL     1      -4.379   0.024 137.080  0.00  0.00    +0.000 A 
ATOM     66  C   UNL     1      -3.889   1.321 137.078  0.00  0.00    +0.000 A 
ATOM     67  C   UNL     1      -4.250   2.174 138.124  0.00  0.00    +0.000 A 
ATOM     68  C   UNL     1      -5.015   1.660 139.187  0.00  0.00    +0.000 A 
ATOM     69  C   UNL     1      -5.416   0.321 139.181  0.00  0.00    +0.000 A 
ATOM     70  C   UNL     1      -5.095  -0.499 138.127  0.00  0.00    +0.000 A 
BRANCH  68  71
ATOM     71  O   UNL     1      -5.268   2.339 140.333  0.00  0.00    +0.000 OA
ATOM     72  H   UNL     1      -4.775   3.169 140.413  0.00  0.00    +0.000 HD
ENDBRANCH  68  71
ENDBRANCH  64  65
ENDBRANCH  10  64
BRANCH  22  73
ATOM     73  C   UNL     1      -6.183   5.069 130.434  0.00  0.00    +0.000 C 
BRANCH  73  74
ATOM     74  C   UNL     1      -6.390   6.018 131.470  0.00  0.00    +0.000 C 
ATOM     75  N   UNL     1      -7.075   7.099 131.107  0.00  0.00    +0.000 N 
ATOM     76  O   UNL     1      -6.079   5.824 132.611  0.00  0.00    +0.000 OA
ATOM     77  H   UNL     1      -7.487   7.236 130.208  0.00  0.00    +0.000 HD
ATOM     78  H   UNL     1      -7.229   7.866 131.705  0.00  0.00    +0.000 HD
ENDBRANCH  73  74
ENDBRANCH  22  73
BRANCH  18  79
ATOM     79  C   UNL     1      -7.903   1.259 131.861  0.00  0.00    +0.000 C 
BRANCH  79  80
ATOM     80  C   UNL     1      -8.973   1.877 132.504  0.00  0.00    +0.000 C 
BRANCH  80  81
ATOM     81  C   UNL     1      -8.701   3.103 133.279  0.00  0.00    +0.000 C 
BRANCH  81  82
ATOM     82  N   UNL     1      -9.628   4.008 132.700  0.00  0.00    +0.000 NA
ATOM     83  C   UNL     1      -9.634   5.211 133.140  0.00  0.00    +0.000 C 
ATOM     84  N   UNL     1      -8.770   5.653 134.108  0.00  0.00    +0.000 N 
ATOM     85  N   UNL     1     -10.551   6.093 132.624  0.00  0.00    +0.000 N 
ATOM     86  H   UNL     1      -8.062   5.040 134.525  0.00  0.00    +0.000 HD
ATOM     87  H   UNL     1      -8.755   6.590 134.480  0.00  0.00    +0.000 HD
ATOM     88  H   UNL     1     -11.225   5.811 131.896  0.00  0.00    +0.000 HD
ATOM     89  H   UNL     1     -10.651   7.057 132.906  0.00  0.00    +0.000 HD
ENDBRANCH  81  82
ENDBRANCH  80  81
ENDBRANCH  79  80
ENDBRANCH  18  79
BRANCH  14  90
ATOM     90  C   UNL     1      -4.546  -0.940 131.969  0.00  0.00    +0.000 C 
BRANCH  90  91
ATOM     91  C   UNL     1      -4.332  -2.064 131.129  0.00  0.00    +0.000 A 
ATOM     92  C   UNL     1      -5.199  -3.101 130.955  0.00  0.00    +0.000 A 
ATOM     93  C   UNL     1      -4.775  -4.121 130.154  0.00  0.00    +0.000 A 
ATOM     94  C   UNL     1      -3.670  -3.988 129.355  0.00  0.00    +0.000 A 
ATOM     95  C   UNL     1      -2.838  -2.926 129.562  0.00  0.00    +0.000 A 
ATOM     96  C   UNL     1      -3.161  -1.963 130.454  0.00  0.00    +0.000 A 
ENDBRANCH  90  91
ENDBRANCH  14  90
TORSDOF 21
ENDMDL
MODEL 2
REMARK VINA RESULT:      -9.7      2.374      4.940
REMARK  Name = CHEMBL375324
REMARK  21 active torsions:
REMARK  status: ('A' for Active; 'I' for Inactive)
REMARK    1  A    between atoms: C_2  and  C_4
REMARK    2  A    between atoms: C_4  and  N_5
REMARK    3  A    between atoms: C_6  and  C_8
REMARK    4  A    between atoms: C_8  and  C_9
REMARK    5  A    between atoms: C_8  and  N_16
REMARK    6  A    between atoms: C_9  and  C_10
REMARK    7  A    between atoms: C_10  and  C_11
REMARK    8  A    between atoms: C_11  and  N_12
REMARK    9  A    between atoms: C_17  and  C_19
REMARK   10  A    between atoms: C_24  and  C_26
REMARK   11  A    between atoms: C_35  and  C_36
REMARK   12  A    between atoms: C_36  and  C_37
REMARK   13  A    between atoms: C_40  and  O_41
REMARK   14  A    between atoms: C_47  and  C_48
REMARK   15  A    between atoms: C_48  and  C_49
REMARK   16  A    between atoms: C_58  and  C_59
REMARK   17  A    between atoms: C_59  and  C_60
REMARK   18  A    between atoms: C_60  and  C_61
REMARK   19  A    between atoms: C_61  and  N_62
REMARK   20  A    between atoms: C_69  and  C_70
REMARK   21  A    between atoms: C_70  and  C_71
REMARK                            x       y       z     vdW  Elec       q    Type
REMARK                         _______ _______ _______ _____ _____    ______ ____
ROOT
ATOM      1  C   UNL     1      -4.500   0.476 131.355  0.00  0.00    +0.000 C 
ATOM      2  C   UNL     1      -4.882  -1.783 132.175  0.00  0.00    +0.000 C 
ATOM      3  S   UNL     1      -5.630  -3.993 133.619  0.00  0.00    +0.000 S 
ATOM      4  S   UNL     1      -5.961  -6.156 135.348  0.00  0.00    +0.000 S 
ATOM      5  C   UNL     1      -6.452  -5.887 137.422  0.00  0.00    +0.000 C 
ATOM      6  C   UNL     1      -6.095  -6.126 138.910  0.00  0.00    +0.000 C 
ATOM      7  C   UNL     1      -6.149  -4.903 139.880  0.00  0.00    +0.000 C 
ATOM      8  O   UNL     1      -6.053  -5.072 141.100  0.00  0.00    +0.000 OA
ATOM      9  N   UNL     1      -6.275  -3.639 139.363  0.00  0.00    +0.000 N 
ATOM     10  C   UNL     1      -6.339  -3.317 137.963  0.00  0.00    +0.000 C 
ATOM     11  C   UNL     1      -4.859  -3.749 137.272  0.00  0.00    +0.000 C 
ATOM     12  O   UNL     1      -4.256  -4.842 137.377  0.00  0.00    +0.000 OA
ATOM     13  N   UNL     1      -4.322  -2.953 136.392  0.00  0.00    +0.000 N 
ATOM     14  C   UNL     1      -4.674  -1.622 136.220  0.00  0.00    +0.000 C 
ATOM     15  C   UNL     1      -6.109  -1.666 135.385  0.00  0.00    +0.000 C 
ATOM     16  O   UNL     1      -7.217  -2.164 135.632  0.00  0.00    +0.000 OA
ATOM     17  N   UNL     1      -6.162  -1.100 134.253  0.00  0.00    +0.000 N 
ATOM     18  C   UNL     1      -5.172  -0.289 133.888  0.00  0.00    +0.000 C 
ATOM     19  C   UNL     1      -4.572   1.144 135.200  0.00  0.00    +0.000 C 
ATOM     20  O   UNL     1      -4.130   1.020 136.314  0.00  0.00    +0.000 OA
ATOM     21  N   UNL     1      -4.846   2.604 134.812  0.00  0.00    +0.000 N 
ATOM     22  C   UNL     1      -5.078   2.932 132.865  0.00  0.00    +0.000 C 
ATOM     23  C   UNL     1      -4.190   1.285 131.995  0.00  0.00    +0.000 C 
ATOM     24  O   UNL     1      -3.691   0.202 132.791  0.00  0.00    +0.000 OA
ATOM     25  N   UNL     1      -3.795   1.697 130.591  0.00  0.00    +0.000 N 
ATOM     26  H   UNL     1      -6.334  -2.825 139.978  0.00  0.00    +0.000 HD
ATOM     27  H   UNL     1      -3.484  -3.323 135.976  0.00  0.00    +0.000 HD
ATOM     28  H   UNL     1      -7.074  -0.912 133.948  0.00  0.00    +0.000 HD
ATOM     29  H   UNL     1      -3.911   2.993 135.096  0.00  0.00    +0.000 HD
ATOM     30  H   UNL     1      -2.814   2.142 130.170  0.00  0.00    +0.000 HD
ENDROOT
BRANCH   1  36
ATOM     31  C   UNL     1      -4.129   5.498 129.018  0.00  0.00    +0.000 C 
ATOM     32  C   UNL     1      -3.127   5.656 127.699  0.00  0.00    +0.000 C 
ATOM     33  C   UNL     1      -2.357   6.863 127.983  0.00  0.00    +0.000 C 
ATOM     34  C   UNL     1      -2.479   6.459 129.918  0.00  0.00    +0.000 C 
ATOM     35  N   UNL     1      -3.677   4.878 130.671  0.00  0.00    +0.000 N 
ATOM     36  C   UNL     1      -3.929   2.936 131.350  0.00  0.00    +0.000 C 
ATOM     37  O   UNL     1      -3.310   3.939 132.170  0.00  0.00    +0.000 OA
BRANCH  31  39
ATOM     38  N   UNL     1      -6.068   4.486 129.110  0.00  0.00    +0.000 N 
ATOM     39  C   UNL     1      -4.844   4.345 128.909  0.00  0.00    +0.000 C 
ATOM     40  O   UNL     1      -4.588   3.267 128.505  0.00  0.00    +0.000 OA
ATOM     41  H   UNL     1      -6.583   5.484 129.560  0.00  0.00    +0.000 HD
BRANCH  38  42
ATOM     42  C   UNL     1      -7.170   3.676 128.666  0.00  0.00    +0.000 C 
BRANCH  42  44
ATOM     43  N   UNL     1      -5.935   4.034 125.642  0.00  0.00    +0.000 N 
ATOM     44  C   UNL     1      -7.465   4.205 126.656  0.00  0.00    +0.000 C 
ATOM     45  O   UNL     1      -8.488   3.642 126.196  0.00  0.00    +0.000 OA
ATOM     46  H   UNL     1      -4.959   3.824 126.231  0.00  0.00    +0.000 HD
BRANCH  43  47
ATOM     47  C   UNL     1      -5.884   3.065 124.523  0.00  0.00    +0.000 C 
BRANCH  47  49
ATOM     48  N   UNL     1      -7.596   3.740 123.033  0.00  0.00    +0.000 N 
ATOM     49  C   UNL     1      -6.290   3.843 123.314  0.00  0.00    +0.000 C 
ATOM     50  O   UNL     1      -5.581   4.560 122.633  0.00  0.00    +0.000 OA
ATOM     51  H   UNL     1      -7.986   4.278 122.276  0.00  0.00    +0.000 HD
ATOM     52  H   UNL     1      -8.211   3.165 123.580  0.00  0.00    +0.000 HD
ENDBRANCH  47  49
ENDBRANCH  43  47
ENDBRANCH  42  44
BRANCH  42  53
ATOM     53  C   UNL     1      -8.556   3.343 130.416  0.00  0.00    +0.000 C 
BRANCH  53  54
ATOM     54  C   UNL     1      -9.963   3.312 130.291  0.00  0.00    +0.000 C 
BRANCH  54  55
ATOM     55  C   UNL     1     -10.477   4.613 130.450  0.00  0.00    +0.000 C 
BRANCH  55  56
ATOM     56  N   UNL     1      -9.818   4.897 131.614  0.00  0.00    +0.000 NA
ATOM     57  C   UNL     1     -10.473   5.721 132.316  0.00  0.00    +0.000 C 
ATOM     58  N   UNL     1     -11.681   6.231 132.021  0.00  0.00    +0.000 N 
ATOM     59  N   UNL     1      -9.858   6.253 133.349  0.00  0.00    +0.000 N 
ATOM     60  H   UNL     1     -12.174   5.952 131.181  0.00  0.00    +0.000 HD
ATOM     61  H   UNL     1     -12.163   6.893 132.599  0.00  0.00    +0.000 HD
ATOM     62  H   UNL     1      -8.985   5.800 133.617  0.00  0.00    +0.000 HD
ATOM     63  H   UNL     1     -10.236   6.794 134.109  0.00  0.00    +0.000 HD
ENDBRANCH  55  56
ENDBRANCH  54  55
ENDBRANCH  53  54
ENDBRANCH  42  53
ENDBRANCH  38  42
ENDBRANCH  31  39
ENDBRANCH   1  36
BRANCH  10  64
ATOM     64  C   UNL     1      -6.597  -1.894 137.923  0.00  0.00    +0.000 C 
BRANCH  64  65
ATOM     65  C   UNL     1      -7.246  -1.251 139.021  0.00  0.00    +0.000 A 
ATOM     66  C   UNL     1      -6.587  -0.393 139.887  0.00  0.00    +0.000 A 
ATOM     67  C   UNL     1      -7.347   0.399 140.751  0.00  0.00    +0.000 A 
ATOM     68  C   UNL     1      -8.743   0.228 140.779  0.00  0.00    +0.000 A 
ATOM     69  C   UNL     1      -9.352  -0.710 139.941  0.00  0.00    +0.000 A 
ATOM     70  C   UNL     1      -8.602  -1.453 139.063  0.00  0.00    +0.000 A 
BRANCH  68  71
ATOM     71  O   UNL     1      -9.556   0.805 141.698  0.00  0.00    +0.000 OA
ATOM     72  H   UNL     1      -9.090   1.362 142.338  0.00  0.00    +0.000 HD
ENDBRANCH  68  71
ENDBRANCH  64  65
ENDBRANCH  10  64
BRANCH  22  73
ATOM     73  C   UNL     1      -5.183   4.380 132.690  0.00  0.00    +0.000 C 
BRANCH  73  74
ATOM     74  C   UNL     1      -6.439   4.970 132.989  0.00  0.00    +0.000 C 
ATOM     75  N   UNL     1      -6.773   5.997 132.213  0.00  0.00    +0.000 N 
ATOM     76  O   UNL     1      -7.202   4.517 133.796  0.00  0.00    +0.000 OA
ATOM     77  H   UNL     1      -6.242   6.314 131.430  0.00  0.00    +0.000 HD
ATOM     78  H   UNL     1      -7.582   6.541 132.356  0.00  0.00    +0.000 HD
ENDBRANCH  73  74
ENDBRANCH  22  73
BRANCH  18  79
ATOM     79  C   UNL     1      -5.875   0.024 132.461  0.00  0.00    +0.000 C 
BRANCH  79  80
ATOM     80  C   UNL     1      -7.100   0.401 131.917  0.00  0.00    +0.000 C 
BRANCH  80  81
ATOM     81  C   UNL     1      -8.039  -0.666 131.519  0.00  0.00    +0.000 C 
BRANCH  81  82
ATOM     82  N   UNL     1      -7.804  -0.733 130.121  0.00  0.00    +0.000 NA
ATOM     83  C   UNL     1      -7.685  -1.895 129.596  0.00  0.00    +0.000 C 
ATOM     84  N   UNL     1      -7.807  -3.053 130.319  0.00  0.00    +0.000 N 
ATOM     85  N   UNL     1      -7.415  -1.983 128.253  0.00  0.00    +0.000 N 
ATOM     86  H   UNL     1      -8.012  -3.048 131.323  0.00  0.00    +0.000 HD
ATOM     87  H   UNL     1      -7.711  -3.981 129.937  0.00  0.00    +0.000 HD
ATOM     88  H   UNL     1      -7.311  -1.142 127.665  0.00  0.00    +0.000 HD
ATOM     89  H   UNL     1      -7.289  -2.845 127.742  0.00  0.00    +0.000 HD
ENDBRANCH  81  82
ENDBRANCH  80  81
ENDBRANCH  79  80
ENDBRANCH  18  79
BRANCH  14  90
ATOM     90  C   UNL     1      -3.526  -1.142 135.502  0.00  0.00    +0.000 C 
BRANCH  90  91
ATOM     91  C   UNL     1      -2.206  -1.528 135.851  0.00  0.00    +0.000 A 
ATOM     92  C   UNL     1      -1.707  -1.594 137.118  0.00  0.00    +0.000 A 
ATOM     93  C   UNL     1      -0.388  -1.923 137.237  0.00  0.00    +0.000 A 
ATOM     94  C   UNL     1       0.319  -2.427 136.177  0.00  0.00    +0.000 A 
ATOM     95  C   UNL     1      -0.228  -2.348 134.929  0.00  0.00    +0.000 A 
ATOM     96  C   UNL     1      -1.490  -1.892 134.760  0.00  0.00    +0.000 A 
ENDBRANCH  90  91
ENDBRANCH  14  90
TORSDOF 21
ENDMDL
MODEL 3
REMARK VINA RESULT:      -9.5      3.480      6.969
REMARK  Name = CHEMBL375324
REMARK  21 active torsions:
REMARK  status: ('A' for Active; 'I' for Inactive)
REMARK    1  A    between atoms: C_2  and  C_4
REMARK    2  A    between atoms: C_4  and  N_5
REMARK    3  A    between atoms: C_6  and  C_8
REMARK    4  A    between atoms: C_8  and  C_9
REMARK    5  A    between atoms: C_8  and  N_16
REMARK    6  A    between atoms: C_9  and  C_10
REMARK    7  A    between atoms: C_10  and  C_11
REMARK    8  A    between atoms: C_11  and  N_12
REMARK    9  A    between atoms: C_17  and  C_19
REMARK   10  A    between atoms: C_24  and  C_26
REMARK   11  A    between atoms: C_35  and  C_36
REMARK   12  A    between atoms: C_36  and  C_37
REMARK   13  A    between atoms: C_40  and  O_41
REMARK   14  A    between atoms: C_47  and  C_48
REMARK   15  A    between atoms: C_48  and  C_49
REMARK   16  A    between atoms: C_58  and  C_59
REMARK   17  A    between atoms: C_59  and  C_60
REMARK   18  A    between atoms: C_60  and  C_61
REMARK   19  A    between atoms: C_61  and  N_62
REMARK   20  A    between atoms: C_69  and  C_70
REMARK   21  A    between atoms: C_70  and  C_71
REMARK                            x       y       z     vdW  Elec       q    Type
REMARK                         _______ _______ _______ _____ _____    ______ ____
ROOT
ATOM      1  C   UNL     1      -7.903   1.473 130.556  0.00  0.00    +0.000 C 
ATOM      2  C   UNL     1      -8.412   2.906 132.455  0.00  0.00    +0.000 C 
ATOM      3  S   UNL     1      -8.380   4.816 134.425  0.00  0.00    +0.000 S 
ATOM      4  S   UNL     1      -8.065   6.421 136.684  0.00  0.00    +0.000 S 
ATOM      5  C   UNL     1      -6.182   7.328 137.179  0.00  0.00    +0.000 C 
ATOM      6  C   UNL     1      -5.030   7.520 138.197  0.00  0.00    +0.000 C 
ATOM      7  C   UNL     1      -3.565   7.367 137.681  0.00  0.00    +0.000 C 
ATOM      8  O   UNL     1      -2.614   7.688 138.402  0.00  0.00    +0.000 OA
ATOM      9  N   UNL     1      -3.342   6.849 136.431  0.00  0.00    +0.000 N 
ATOM     10  C   UNL     1      -4.363   6.391 135.528  0.00  0.00    +0.000 C 
ATOM     11  C   UNL     1      -5.121   5.061 136.245  0.00  0.00    +0.000 C 
ATOM     12  O   UNL     1      -5.584   4.981 137.406  0.00  0.00    +0.000 OA
ATOM     13  N   UNL     1      -5.427   4.038 135.501  0.00  0.00    +0.000 N 
ATOM     14  C   UNL     1      -4.886   3.788 134.248  0.00  0.00    +0.000 C 
ATOM     15  C   UNL     1      -5.673   4.835 133.228  0.00  0.00    +0.000 C 
ATOM     16  O   UNL     1      -5.768   6.070 133.191  0.00  0.00    +0.000 OA
ATOM     17  N   UNL     1      -6.337   4.348 132.265  0.00  0.00    +0.000 N 
ATOM     18  C   UNL     1      -6.182   3.064 131.955  0.00  0.00    +0.000 C 
ATOM     19  C   UNL     1      -4.290   2.350 131.742  0.00  0.00    +0.000 C 
ATOM     20  O   UNL     1      -3.393   2.319 132.546  0.00  0.00    +0.000 OA
ATOM     21  N   UNL     1      -3.860   1.922 130.332  0.00  0.00    +0.000 N 
ATOM     22  C   UNL     1      -5.349   1.457 129.099  0.00  0.00    +0.000 C 
ATOM     23  C   UNL     1      -6.922   1.067 130.378  0.00  0.00    +0.000 C 
ATOM     24  O   UNL     1      -6.798   1.266 131.791  0.00  0.00    +0.000 OA
ATOM     25  N   UNL     1      -7.882   0.170 129.621  0.00  0.00    +0.000 N 
ATOM     26  H   UNL     1      -2.393   6.758 136.062  0.00  0.00    +0.000 HD
ATOM     27  H   UNL     1      -5.943   3.326 135.991  0.00  0.00    +0.000 HD
ATOM     28  H   UNL     1      -6.533   4.994 131.554  0.00  0.00    +0.000 HD
ATOM     29  H   UNL     1      -3.378   1.029 130.607  0.00  0.00    +0.000 HD
ATOM     30  H   UNL     1      -7.967  -0.982 129.559  0.00  0.00    +0.000 HD
ENDROOT
BRANCH   1  36
ATOM     31  C   UNL     1      -6.971  -0.959 125.653  0.00  0.00    +0.000 C 
ATOM     32  C   UNL     1      -8.098  -2.059 125.118  0.00  0.00    +0.000 C 
ATOM     33  C   UNL     1      -7.299  -3.197 124.674  0.00  0.00    +0.000 C 
ATOM     34  C   UNL     1      -5.953  -2.763 126.061  0.00  0.00    +0.000 C 
ATOM     35  N   UNL     1      -6.064  -0.997 127.233  0.00  0.00    +0.000 N 
ATOM     36  C   UNL     1      -6.589   0.023 128.959  0.00  0.00    +0.000 C 
ATOM     37  O   UNL     1      -5.451  -0.852 128.927  0.00  0.00    +0.000 OA
BRANCH  31  39
ATOM     38  N   UNL     1      -7.315   1.203 125.623  0.00  0.00    +0.000 N 
ATOM     39  C   UNL     1      -7.607   0.124 126.178  0.00  0.00    +0.000 C 
ATOM     40  O   UNL     1      -8.500   0.251 126.938  0.00  0.00    +0.000 OA
ATOM     41  H   UNL     1      -6.410   1.350 124.832  0.00  0.00    +0.000 HD
BRANCH  38  42
ATOM     42  C   UNL     1      -8.057   2.433 125.559  0.00  0.00    +0.000 C 
BRANCH  42  44
ATOM     43  N   UNL     1      -8.487   3.655 122.539  0.00  0.00    +0.000 N 
ATOM     44  C   UNL     1      -9.070   2.367 123.723  0.00  0.00    +0.000 C 
ATOM     45  O   UNL     1      -9.103   1.194 123.277  0.00  0.00    +0.000 OA
ATOM     46  H   UNL     1      -7.766   4.451 122.974  0.00  0.00    +0.000 HD
BRANCH  43  47
ATOM     47  C   UNL     1      -7.845   3.262 121.263  0.00  0.00    +0.000 C 
BRANCH  47  49
ATOM     48  N   UNL     1      -6.046   4.060 122.580  0.00  0.00    +0.000 N 
ATOM     49  C   UNL     1      -6.466   3.832 121.328  0.00  0.00    +0.000 C 
ATOM     50  O   UNL     1      -5.718   4.047 120.392  0.00  0.00    +0.000 OA
ATOM     51  H   UNL     1      -5.106   4.383 122.738  0.00  0.00    +0.000 HD
ATOM     52  H   UNL     1      -6.634   3.886 123.375  0.00  0.00    +0.000 HD
ENDBRANCH  47  49
ENDBRANCH  43  47
ENDBRANCH  42  44
BRANCH  42  53
ATOM     53  C   UNL     1      -6.882   4.027 126.642  0.00  0.00    +0.000 C 
BRANCH  53  54
ATOM     54  C   UNL     1      -6.326   5.152 125.992  0.00  0.00    +0.000 C 
BRANCH  54  55
ATOM     55  C   UNL     1      -4.982   5.304 126.385  0.00  0.00    +0.000 C 
BRANCH  55  56
ATOM     56  N   UNL     1      -5.200   5.167 127.728  0.00  0.00    +0.000 NA
ATOM     57  C   UNL     1      -4.250   5.672 128.394  0.00  0.00    +0.000 C 
ATOM     58  N   UNL     1      -3.181   6.314 127.892  0.00  0.00    +0.000 N 
ATOM     59  N   UNL     1      -4.216   5.415 129.683  0.00  0.00    +0.000 N 
ATOM     60  H   UNL     1      -3.080   6.456 126.893  0.00  0.00    +0.000 HD
ATOM     61  H   UNL     1      -2.441   6.690 128.453  0.00  0.00    +0.000 HD
ATOM     62  H   UNL     1      -5.067   5.009 130.069  0.00  0.00    +0.000 HD
ATOM     63  H   UNL     1      -3.653   5.835 130.404  0.00  0.00    +0.000 HD
ENDBRANCH  55  56
ENDBRANCH  54  55
ENDBRANCH  53  54
ENDBRANCH  42  53
ENDBRANCH  38  42
ENDBRANCH  31  39
ENDBRANCH   1  36
BRANCH  10  64
ATOM     64  C   UNL     1      -3.657   6.059 134.310  0.00  0.00    +0.000 C 
BRANCH  64  65
ATOM     65  C   UNL     1      -2.615   6.910 133.829  0.00  0.00    +0.000 A 
ATOM     66  C   UNL     1      -2.858   8.156 133.272  0.00  0.00    +0.000 A 
ATOM     67  C   UNL     1      -1.781   9.027 133.087  0.00  0.00    +0.000 A 
ATOM     68  C   UNL     1      -0.482   8.574 133.381  0.00  0.00    +0.000 A 
ATOM     69  C   UNL     1      -0.283   7.277 133.865  0.00  0.00    +0.000 A 
ATOM     70  C   UNL     1      -1.351   6.443 134.087  0.00  0.00    +0.000 A 
BRANCH  68  71
ATOM     71  O   UNL     1       0.646   9.260 133.071  0.00  0.00    +0.000 OA
ATOM     72  H   UNL     1       1.006   9.046 132.198  0.00  0.00    +0.000 HD
ENDBRANCH  68  71
ENDBRANCH  64  65
ENDBRANCH  10  64
BRANCH  22  73
ATOM     73  C   UNL     1      -4.738   0.944 127.873  0.00  0.00    +0.000 C 
BRANCH  73  74
ATOM     74  C   UNL     1      -4.151   1.901 127.004  0.00  0.00    +0.000 C 
ATOM     75  N   UNL     1      -3.073   2.509 127.490  0.00  0.00    +0.000 N 
ATOM     76  O   UNL     1      -4.517   2.075 125.875  0.00  0.00    +0.000 OA
ATOM     77  H   UNL     1      -2.640   2.289 128.362  0.00  0.00    +0.000 HD
ATOM     78  H   UNL     1      -2.610   3.242 127.022  0.00  0.00    +0.000 HD
ENDBRANCH  73  74
ENDBRANCH  22  73
BRANCH  18  79
ATOM     79  C   UNL     1      -7.255   3.165 130.745  0.00  0.00    +0.000 C 
BRANCH  79  80
ATOM     80  C   UNL     1      -7.746   4.068 129.805  0.00  0.00    +0.000 C 
BRANCH  80  81
ATOM     81  C   UNL     1      -9.149   4.509 129.935  0.00  0.00    +0.000 C 
BRANCH  81  82
ATOM     82  N   UNL     1      -9.083   5.809 129.373  0.00  0.00    +0.000 NA
ATOM     83  C   UNL     1      -9.928   6.678 129.790  0.00  0.00    +0.000 C 
ATOM     84  N   UNL     1     -10.853   6.407 130.764  0.00  0.00    +0.000 N 
ATOM     85  N   UNL     1      -9.911   7.931 129.229  0.00  0.00    +0.000 N 
ATOM     86  H   UNL     1     -10.909   5.491 131.220  0.00  0.00    +0.000 HD
ATOM     87  H   UNL     1     -11.535   7.064 131.108  0.00  0.00    +0.000 HD
ATOM     88  H   UNL     1      -9.237   8.185 128.491  0.00  0.00    +0.000 HD
ATOM     89  H   UNL     1     -10.537   8.684 129.474  0.00  0.00    +0.000 HD
ENDBRANCH  81  82
ENDBRANCH  80  81
ENDBRANCH  79  80
ENDBRANCH  18  79
BRANCH  14  90
ATOM     90  C   UNL     1      -5.198   2.392 134.105  0.00  0.00    +0.000 C 
BRANCH  90  91
ATOM     91  C   UNL     1      -4.938   1.455 135.138  0.00  0.00    +0.000 A 
ATOM     92  C   UNL     1      -4.011   1.600 136.127  0.00  0.00    +0.000 A 
ATOM     93  C   UNL     1      -3.867   0.551 136.987  0.00  0.00    +0.000 A 
ATOM     94  C   UNL     1      -4.784  -0.467 137.028  0.00  0.00    +0.000 A 
ATOM     95  C   UNL     1      -5.699  -0.564 136.020  0.00  0.00    +0.000 A 
ATOM     96  C   UNL     1      -5.776   0.393 135.067  0.00  0.00    +0.000 A 
ENDBRANCH  90  91
ENDBRANCH  14  90
TORSDOF 21
ENDMDL
MODEL 4
REMARK VINA RESULT:      -9.3      3.060      5.065
REMARK  Name = CHEMBL375324
REMARK  21 active torsions:
REMARK  status: ('A' for Active; 'I' for Inactive)
REMARK    1  A    between atoms: C_2  and  C_4
REMARK    2  A    between atoms: C_4  and  N_5
REMARK    3  A    between atoms: C_6  and  C_8
REMARK    4  A    between atoms: C_8  and  C_9
REMARK    5  A    between atoms: C_8  and  N_16
REMARK    6  A    between atoms: C_9  and  C_10
REMARK    7  A    between atoms: C_10  and  C_11
REMARK    8  A    between atoms: C_11  and  N_12
REMARK    9  A    between atoms: C_17  and  C_19
REMARK   10  A    between atoms: C_24  and  C_26
REMARK   11  A    between atoms: C_35  and  C_36
REMARK   12  A    between atoms: C_36  and  C_37
REMARK   13  A    between atoms: C_40  and  O_41
REMARK   14  A    between atoms: C_47  and  C_48
REMARK   15  A    between atoms: C_48  and  C_49
REMARK   16  A    between atoms: C_58  and  C_59
REMARK   17  A    between atoms: C_59  and  C_60
REMARK   18  A    between atoms: C_60  and  C_61
REMARK   19  A    between atoms: C_61  and  N_62
REMARK   20  A    between atoms: C_69  and  C_70
REMARK   21  A    between atoms: C_70  and  C_71
REMARK                            x       y       z     vdW  Elec       q    Type
REMARK                         _______ _______ _______ _____ _____    ______ ____
ROOT
ATOM      1  C   UNL     1      -4.274   1.615 131.583  0.00  0.00    +0.000 C 
ATOM      2  C   UNL     1      -4.363  -0.800 131.862  0.00  0.00    +0.000 C 
ATOM      3  S   UNL     1      -4.905  -3.360 132.689  0.00  0.00    +0.000 S 
ATOM      4  S   UNL     1      -5.089  -5.878 133.873  0.00  0.00    +0.000 S 
ATOM      5  C   UNL     1      -5.908  -6.151 135.841  0.00  0.00    +0.000 C 
ATOM      6  C   UNL     1      -5.728  -6.661 137.292  0.00  0.00    +0.000 C 
ATOM      7  C   UNL     1      -6.133  -5.706 138.459  0.00  0.00    +0.000 C 
ATOM      8  O   UNL     1      -6.182  -6.126 139.619  0.00  0.00    +0.000 OA
ATOM      9  N   UNL     1      -6.407  -4.389 138.187  0.00  0.00    +0.000 N 
ATOM     10  C   UNL     1      -6.328  -3.777 136.888  0.00  0.00    +0.000 C 
ATOM     11  C   UNL     1      -4.712  -3.828 136.396  0.00  0.00    +0.000 C 
ATOM     12  O   UNL     1      -3.947  -4.819 136.389  0.00  0.00    +0.000 OA
ATOM     13  N   UNL     1      -4.206  -2.788 135.798  0.00  0.00    +0.000 N 
ATOM     14  C   UNL     1      -4.760  -1.516 135.832  0.00  0.00    +0.000 C 
ATOM     15  C   UNL     1      -6.032  -1.578 134.767  0.00  0.00    +0.000 C 
ATOM     16  O   UNL     1      -7.058  -2.270 134.712  0.00  0.00    +0.000 OA
ATOM     17  N   UNL     1      -6.023  -0.787 133.777  0.00  0.00    +0.000 N 
ATOM     18  C   UNL     1      -5.151   0.218 133.758  0.00  0.00    +0.000 C 
ATOM     19  C   UNL     1      -5.004   1.393 135.410  0.00  0.00    +0.000 C 
ATOM     20  O   UNL     1      -4.709   1.089 136.538  0.00  0.00    +0.000 OA
ATOM     21  N   UNL     1      -5.475   2.849 135.275  0.00  0.00    +0.000 N 
ATOM     22  C   UNL     1      -5.484   3.566 133.421  0.00  0.00    +0.000 C 
ATOM     23  C   UNL     1      -4.205   2.297 132.414  0.00  0.00    +0.000 C 
ATOM     24  O   UNL     1      -3.640   1.147 133.056  0.00  0.00    +0.000 OA
ATOM     25  N   UNL     1      -3.695   3.063 131.209  0.00  0.00    +0.000 N 
ATOM     26  H   UNL     1      -6.694  -3.750 138.930  0.00  0.00    +0.000 HD
ATOM     27  H   UNL     1      -3.265  -2.932 135.471  0.00  0.00    +0.000 HD
ATOM     28  H   UNL     1      -6.902  -0.668 133.359  0.00  0.00    +0.000 HD
ATOM     29  H   UNL     1      -4.673   3.294 135.790  0.00  0.00    +0.000 HD
ATOM     30  H   UNL     1      -2.759   3.726 131.063  0.00  0.00    +0.000 HD
ENDROOT
BRANCH   1  36
ATOM     31  C   UNL     1      -4.879   7.025 130.494  0.00  0.00    +0.000 C 
ATOM     32  C   UNL     1      -3.962   7.664 129.261  0.00  0.00    +0.000 C 
ATOM     33  C   UNL     1      -3.412   8.892 129.830  0.00  0.00    +0.000 C 
ATOM     34  C   UNL     1      -3.399   8.032 131.614  0.00  0.00    +0.000 C 
ATOM     35  N   UNL     1      -4.272   6.130 131.960  0.00  0.00    +0.000 N 
ATOM     36  C   UNL     1      -4.152   4.071 132.162  0.00  0.00    +0.000 C 
ATOM     37  O   UNL     1      -3.696   4.949 133.202  0.00  0.00    +0.000 OA
BRANCH  31  39
ATOM     38  N   UNL     1      -6.616   5.717 130.246  0.00  0.00    +0.000 N 
ATOM     39  C   UNL     1      -5.380   5.820 130.109  0.00  0.00    +0.000 C 
ATOM     40  O   UNL     1      -4.927   4.904 129.520  0.00  0.00    +0.000 OA
ATOM     41  H   UNL     1      -7.312   6.504 130.847  0.00  0.00    +0.000 HD
BRANCH  38  42
ATOM     42  C   UNL     1      -7.545   4.848 129.574  0.00  0.00    +0.000 C 
BRANCH  42  44
ATOM     43  N   UNL     1      -9.866   7.158 129.852  0.00  0.00    +0.000 N 
ATOM     44  C   UNL     1      -9.437   5.417 130.282  0.00  0.00    +0.000 C 
ATOM     45  O   UNL     1     -10.299   4.555 129.983  0.00  0.00    +0.000 OA
ATOM     46  H   UNL     1      -9.008   7.792 129.400  0.00  0.00    +0.000 HD
BRANCH  43  47
ATOM     47  C   UNL     1     -11.018   7.448 128.969  0.00  0.00    +0.000 C 
BRANCH  47  49
ATOM     48  N   UNL     1     -12.575   6.930 130.676  0.00  0.00    +0.000 N 
ATOM     49  C   UNL     1     -12.107   7.904 129.885  0.00  0.00    +0.000 C 
ATOM     50  O   UNL     1     -12.543   9.035 129.997  0.00  0.00    +0.000 OA
ATOM     51  H   UNL     1     -13.267   7.146 131.376  0.00  0.00    +0.000 HD
ATOM     52  H   UNL     1     -12.232   5.988 130.616  0.00  0.00    +0.000 HD
ENDBRANCH  47  49
ENDBRANCH  43  47
ENDBRANCH  42  44
BRANCH  42  53
ATOM     53  C   UNL     1      -6.535   2.860 129.230  0.00  0.00    +0.000 C 
BRANCH  53  54
ATOM     54  C   UNL     1      -6.592   2.167 127.999  0.00  0.00    +0.000 C 
BRANCH  54  55
ATOM     55  C   UNL     1      -5.568   2.632 127.152  0.00  0.00    +0.000 C 
BRANCH  55  56
ATOM     56  N   UNL     1      -6.389   3.134 126.180  0.00  0.00    +0.000 NA
ATOM     57  C   UNL     1      -6.091   4.334 125.911  0.00  0.00    +0.000 C 
ATOM     58  N   UNL     1      -5.080   5.039 126.445  0.00  0.00    +0.000 N 
ATOM     59  N   UNL     1      -6.935   5.010 125.163  0.00  0.00    +0.000 N 
ATOM     60  H   UNL     1      -4.448   4.619 127.117  0.00  0.00    +0.000 HD
ATOM     61  H   UNL     1      -4.884   5.995 126.216  0.00  0.00    +0.000 HD
ATOM     62  H   UNL     1      -7.645   4.450 124.692  0.00  0.00    +0.000 HD
ATOM     63  H   UNL     1      -6.817   5.902 124.713  0.00  0.00    +0.000 HD
ENDBRANCH  55  56
ENDBRANCH  54  55
ENDBRANCH  53  54
ENDBRANCH  42  53
ENDBRANCH  38  42
ENDBRANCH  31  39
ENDBRANCH   1  36
BRANCH  10  64
ATOM     64  C   UNL     1      -6.824  -2.432 137.085  0.00  0.00    +0.000 C 
BRANCH  64  65
ATOM     65  C   UNL     1      -8.056  -2.215 137.775  0.00  0.00    +0.000 A 
ATOM     66  C   UNL     1      -9.233  -2.865 137.436  0.00  0.00    +0.000 A 
ATOM     67  C   UNL     1     -10.309  -2.806 138.325  0.00  0.00    +0.000 A 
ATOM     68  C   UNL     1     -10.193  -2.012 139.481  0.00  0.00    +0.000 A 
ATOM     69  C   UNL     1      -9.011  -1.310 139.735  0.00  0.00    +0.000 A 
ATOM     70  C   UNL     1      -7.942  -1.409 138.879  0.00  0.00    +0.000 A 
BRANCH  68  71
ATOM     71  O   UNL     1     -11.226  -1.735 140.314  0.00  0.00    +0.000 OA
ATOM     72  H   UNL     1     -11.046  -1.943 141.243  0.00  0.00    +0.000 HD
ENDBRANCH  68  71
ENDBRANCH  64  65
ENDBRANCH  10  64
BRANCH  22  73
ATOM     73  C   UNL     1      -5.817   4.986 133.519  0.00  0.00    +0.000 C 
BRANCH  73  74
ATOM     74  C   UNL     1      -7.102   5.306 134.032  0.00  0.00    +0.000 C 
ATOM     75  N   UNL     1      -7.819   6.128 133.269  0.00  0.00    +0.000 N 
ATOM     76  O   UNL     1      -7.564   4.795 135.013  0.00  0.00    +0.000 OA
ATOM     77  H   UNL     1      -7.539   6.458 132.370  0.00  0.00    +0.000 HD
ATOM     78  H   UNL     1      -8.696   6.486 133.539  0.00  0.00    +0.000 HD
ENDBRANCH  73  74
ENDBRANCH  22  73
BRANCH  18  79
ATOM     79  C   UNL     1      -5.690   0.737 132.320  0.00  0.00    +0.000 C 
BRANCH  79  80
ATOM     80  C   UNL     1      -6.866   0.859 131.584  0.00  0.00    +0.000 C 
BRANCH  80  81
ATOM     81  C   UNL     1      -8.127   0.426 132.217  0.00  0.00    +0.000 C 
BRANCH  81  82
ATOM     82  N   UNL     1      -8.422   1.544 133.039  0.00  0.00    +0.000 NA
ATOM     83  C   UNL     1      -9.455   2.240 132.743  0.00  0.00    +0.000 C 
ATOM     84  N   UNL     1     -10.287   1.929 131.700  0.00  0.00    +0.000 N 
ATOM     85  N   UNL     1      -9.736   3.352 133.499  0.00  0.00    +0.000 N 
ATOM     86  H   UNL     1     -10.130   1.109 131.105  0.00  0.00    +0.000 HD
ATOM     87  H   UNL     1     -11.103   2.460 131.437  0.00  0.00    +0.000 HD
ATOM     88  H   UNL     1      -9.140   3.632 134.293  0.00  0.00    +0.000 HD
ATOM     89  H   UNL     1     -10.515   3.976 133.346  0.00  0.00    +0.000 HD
ENDBRANCH  81  82
ENDBRANCH  80  81
ENDBRANCH  79  80
ENDBRANCH  18  79
BRANCH  14  90
ATOM     90  C   UNL     1      -3.624  -0.729 135.436  0.00  0.00    +0.000 C 
BRANCH  90  91
ATOM     91  C   UNL     1      -2.293  -1.186 135.617  0.00  0.00    +0.000 A 
ATOM     92  C   UNL     1      -1.708  -1.472 136.815  0.00  0.00    +0.000 A 
ATOM     93  C   UNL     1      -0.393  -1.833 136.779  0.00  0.00    +0.000 A 
ATOM     94  C   UNL     1       0.225  -2.159 135.600  0.00  0.00    +0.000 A 
ATOM     95  C   UNL     1      -0.406  -1.863 134.427  0.00  0.00    +0.000 A 
ATOM     96  C   UNL     1      -1.665  -1.369 134.430  0.00  0.00    +0.000 A 
ENDBRANCH  90  91
ENDBRANCH  14  90
TORSDOF 21
ENDMDL
MODEL 5
REMARK VINA RESULT:      -9.3      3.662      7.033
REMARK  Name = CHEMBL375324
REMARK  21 active torsions:
REMARK  status: ('A' for Active; 'I' for Inactive)
REMARK    1  A    between atoms: C_2  and  C_4
REMARK    2  A    between atoms: C_4  and  N_5
REMARK    3  A    between atoms: C_6  and  C_8
REMARK    4  A    between atoms: C_8  and  C_9
REMARK    5  A    between atoms: C_8  and  N_16
REMARK    6  A    between atoms: C_9  and  C_10
REMARK    7  A    between atoms: C_10  and  C_11
REMARK    8  A    between atoms: C_11  and  N_12
REMARK    9  A    between atoms: C_17  and  C_19
REMARK   10  A    between atoms: C_24  and  C_26
REMARK   11  A    between atoms: C_35  and  C_36
REMARK   12  A    between atoms: C_36  and  C_37
REMARK   13  A    between atoms: C_40  and  O_41
REMARK   14  A    between atoms: C_47  and  C_48
REMARK   15  A    between atoms: C_48  and  C_49
REMARK   16  A    between atoms: C_58  and  C_59
REMARK   17  A    between atoms: C_59  and  C_60
REMARK   18  A    between atoms: C_60  and  C_61
REMARK   19  A    between atoms: C_61  and  N_62
REMARK   20  A    between atoms: C_69  and  C_70
REMARK   21  A    between atoms: C_70  and  C_71
REMARK                            x       y       z     vdW  Elec       q    Type
REMARK                         _______ _______ _______ _____ _____    ______ ____
ROOT
ATOM      1  C   UNL     1      -7.576   1.805 131.379  0.00  0.00    +0.000 C 
ATOM      2  C   UNL     1      -8.139   3.261 133.246  0.00  0.00    +0.000 C 
ATOM      3  S   UNL     1      -8.165   5.199 135.188  0.00  0.00    +0.000 S 
ATOM      4  S   UNL     1      -7.913   6.838 137.431  0.00  0.00    +0.000 S 
ATOM      5  C   UNL     1      -6.048   7.765 137.956  0.00  0.00    +0.000 C 
ATOM      6  C   UNL     1      -4.922   7.980 138.997  0.00  0.00    +0.000 C 
ATOM      7  C   UNL     1      -3.443   7.830 138.517  0.00  0.00    +0.000 C 
ATOM      8  O   UNL     1      -2.512   8.168 139.255  0.00  0.00    +0.000 OA
ATOM      9  N   UNL     1      -3.188   7.296 137.280  0.00  0.00    +0.000 N 
ATOM     10  C   UNL     1      -4.186   6.818 136.360  0.00  0.00    +0.000 C 
ATOM     11  C   UNL     1      -4.950   5.493 137.079  0.00  0.00    +0.000 C 
ATOM     12  O   UNL     1      -5.440   5.426 138.230  0.00  0.00    +0.000 OA
ATOM     13  N   UNL     1      -5.233   4.457 136.342  0.00  0.00    +0.000 N 
ATOM     14  C   UNL     1      -4.661   4.194 135.106  0.00  0.00    +0.000 C 
ATOM     15  C   UNL     1      -5.431   5.221 134.053  0.00  0.00    +0.000 C 
ATOM     16  O   UNL     1      -5.534   6.454 133.997  0.00  0.00    +0.000 OA
ATOM     17  N   UNL     1      -6.070   4.715 133.083  0.00  0.00    +0.000 N 
ATOM     18  C   UNL     1      -5.898   3.427 132.795  0.00  0.00    +0.000 C 
ATOM     19  C   UNL     1      -3.997   2.725 132.636  0.00  0.00    +0.000 C 
ATOM     20  O   UNL     1      -3.119   2.711 133.460  0.00  0.00    +0.000 OA
ATOM     21  N   UNL     1      -3.533   2.279 131.242  0.00  0.00    +0.000 N 
ATOM     22  C   UNL     1      -4.989   1.787 129.982  0.00  0.00    +0.000 C 
ATOM     23  C   UNL     1      -6.588   1.404 131.229  0.00  0.00    +0.000 C 
ATOM     24  O   UNL     1      -6.498   1.624 132.643  0.00  0.00    +0.000 OA
ATOM     25  N   UNL     1      -7.524   0.489 130.464  0.00  0.00    +0.000 N 
ATOM     26  H   UNL     1      -2.231   7.207 136.934  0.00  0.00    +0.000 HD
ATOM     27  H   UNL     1      -5.755   3.749 136.831  0.00  0.00    +0.000 HD
ATOM     28  H   UNL     1      -6.253   5.349 132.358  0.00  0.00    +0.000 HD
ATOM     29  H   UNL     1      -3.050   1.394 131.541  0.00  0.00    +0.000 HD
ATOM     30  H   UNL     1      -7.600  -0.664 130.416  0.00  0.00    +0.000 HD
ENDROOT
BRANCH   1  36
ATOM     31  C   UNL     1      -6.612  -0.848 126.599  0.00  0.00    +0.000 C 
ATOM     32  C   UNL     1      -7.686  -2.039 126.155  0.00  0.00    +0.000 C 
ATOM     33  C   UNL     1      -6.832  -3.154 125.756  0.00  0.00    +0.000 C 
ATOM     34  C   UNL     1      -5.484  -2.566 127.082  0.00  0.00    +0.000 C 
ATOM     35  N   UNL     1      -5.671  -0.745 128.156  0.00  0.00    +0.000 N 
ATOM     36  C   UNL     1      -6.216   0.342 129.834  0.00  0.00    +0.000 C 
ATOM     37  O   UNL     1      -5.030  -0.468 129.822  0.00  0.00    +0.000 OA
BRANCH  31  39
ATOM     38  N   UNL     1      -7.164   1.260 126.393  0.00  0.00    +0.000 N 
ATOM     39  C   UNL     1      -7.298   0.225 127.078  0.00  0.00    +0.000 C 
ATOM     40  O   UNL     1      -8.125   0.354 127.909  0.00  0.00    +0.000 OA
ATOM     41  H   UNL     1      -6.355   1.399 125.504  0.00  0.00    +0.000 HD
BRANCH  38  42
ATOM     42  C   UNL     1      -8.024   2.408 126.286  0.00  0.00    +0.000 C 
BRANCH  42  44
ATOM     43  N   UNL     1      -9.159   1.366 123.384  0.00  0.00    +0.000 N 
ATOM     44  C   UNL     1      -9.645   1.770 125.116  0.00  0.00    +0.000 C 
ATOM     45  O   UNL     1     -10.304   0.886 125.716  0.00  0.00    +0.000 OA
ATOM     46  H   UNL     1      -8.080   1.659 123.081  0.00  0.00    +0.000 HD
BRANCH  43  47
ATOM     47  C   UNL     1      -9.305  -0.015 122.869  0.00  0.00    +0.000 C 
BRANCH  47  49
ATOM     48  N   UNL     1      -6.980   0.330 123.159  0.00  0.00    +0.000 N 
ATOM     49  C   UNL     1      -7.920  -0.576 122.858  0.00  0.00    +0.000 C 
ATOM     50  O   UNL     1      -7.601  -1.733 122.658  0.00  0.00    +0.000 OA
ATOM     51  H   UNL     1      -6.019   0.042 123.242  0.00  0.00    +0.000 HD
ATOM     52  H   UNL     1      -7.210   1.292 123.338  0.00  0.00    +0.000 HD
ENDBRANCH  47  49
ENDBRANCH  43  47
ENDBRANCH  42  44
BRANCH  42  53
ATOM     53  C   UNL     1      -6.738   4.262 126.301  0.00  0.00    +0.000 C 
BRANCH  53  54
ATOM     54  C   UNL     1      -6.356   4.946 125.124  0.00  0.00    +0.000 C 
BRANCH  54  55
ATOM     55  C   UNL     1      -5.582   4.091 124.315  0.00  0.00    +0.000 C 
BRANCH  55  56
ATOM     56  N   UNL     1      -6.609   3.665 123.518  0.00  0.00    +0.000 NA
ATOM     57  C   UNL     1      -6.319   3.803 122.294  0.00  0.00    +0.000 C 
ATOM     58  N   UNL     1      -5.153   4.252 121.801  0.00  0.00    +0.000 N 
ATOM     59  N   UNL     1      -7.292   3.646 121.424  0.00  0.00    +0.000 N 
ATOM     60  H   UNL     1      -4.386   4.501 122.416  0.00  0.00    +0.000 HD
ATOM     61  H   UNL     1      -4.966   4.361 120.822  0.00  0.00    +0.000 HD
ATOM     62  H   UNL     1      -8.142   3.222 121.793  0.00  0.00    +0.000 HD
ATOM     63  H   UNL     1      -7.247   3.559 120.423  0.00  0.00    +0.000 HD
ENDBRANCH  55  56
ENDBRANCH  54  55
ENDBRANCH  53  54
ENDBRANCH  42  53
ENDBRANCH  38  42
ENDBRANCH  31  39
ENDBRANCH   1  36
BRANCH  10  64
ATOM     64  C   UNL     1      -3.449   6.474 135.163  0.00  0.00    +0.000 C 
BRANCH  64  65
ATOM     65  C   UNL     1      -2.326   7.259 134.760  0.00  0.00    +0.000 A 
ATOM     66  C   UNL     1      -1.048   6.738 134.639  0.00  0.00    +0.000 A 
ATOM     67  C   UNL     1      -0.076   7.496 133.980  0.00  0.00    +0.000 A 
ATOM     68  C   UNL     1      -0.403   8.795 133.552  0.00  0.00    +0.000 A 
ATOM     69  C   UNL     1      -1.686   9.306 133.771  0.00  0.00    +0.000 A 
ATOM     70  C   UNL     1      -2.648   8.538 134.379  0.00  0.00    +0.000 A 
BRANCH  68  71
ATOM     71  O   UNL     1       0.503   9.682 133.070  0.00  0.00    +0.000 OA
ATOM     72  H   UNL     1       0.199  10.165 132.287  0.00  0.00    +0.000 HD
ENDBRANCH  68  71
ENDBRANCH  64  65
ENDBRANCH  10  64
BRANCH  22  73
ATOM     73  C   UNL     1      -4.347   1.261 128.778  0.00  0.00    +0.000 C 
BRANCH  73  74
ATOM     74  C   UNL     1      -3.769   2.212 127.896  0.00  0.00    +0.000 C 
ATOM     75  N   UNL     1      -3.869   1.907 126.605  0.00  0.00    +0.000 N 
ATOM     76  O   UNL     1      -3.326   3.264 128.262  0.00  0.00    +0.000 OA
ATOM     77  H   UNL     1      -4.363   1.119 126.242  0.00  0.00    +0.000 HD
ATOM     78  H   UNL     1      -3.451   2.442 125.891  0.00  0.00    +0.000 HD
ENDBRANCH  73  74
ENDBRANCH  22  73
BRANCH  18  79
ATOM     79  C   UNL     1      -6.944   3.504 131.559  0.00  0.00    +0.000 C 
BRANCH  79  80
ATOM     80  C   UNL     1      -7.393   4.378 130.572  0.00  0.00    +0.000 C 
BRANCH  80  81
ATOM     81  C   UNL     1      -6.392   4.958 129.654  0.00  0.00    +0.000 C 
BRANCH  81  82
ATOM     82  N   UNL     1      -5.991   6.111 130.376  0.00  0.00    +0.000 NA
ATOM     83  C   UNL     1      -4.733   6.324 130.498  0.00  0.00    +0.000 C 
ATOM     84  N   UNL     1      -3.784   5.510 129.939  0.00  0.00    +0.000 N 
ATOM     85  N   UNL     1      -4.321   7.410 131.230  0.00  0.00    +0.000 N 
ATOM     86  H   UNL     1      -4.034   4.688 129.380  0.00  0.00    +0.000 HD
ATOM     87  H   UNL     1      -2.789   5.645 130.023  0.00  0.00    +0.000 HD
ATOM     88  H   UNL     1      -4.994   8.053 131.674  0.00  0.00    +0.000 HD
ATOM     89  H   UNL     1      -3.358   7.663 131.399  0.00  0.00    +0.000 HD
ENDBRANCH  81  82
ENDBRANCH  80  81
ENDBRANCH  79  80
ENDBRANCH  18  79
BRANCH  14  90
ATOM     90  C   UNL     1      -4.960   2.794 134.977  0.00  0.00    +0.000 C 
BRANCH  90  91
ATOM     91  C   UNL     1      -4.647   1.861 135.999  0.00  0.00    +0.000 A 
ATOM     92  C   UNL     1      -3.783   2.075 137.031  0.00  0.00    +0.000 A 
ATOM     93  C   UNL     1      -3.567   1.023 137.872  0.00  0.00    +0.000 A 
ATOM     94  C   UNL     1      -4.373  -0.086 137.849  0.00  0.00    +0.000 A 
ATOM     95  C   UNL     1      -5.229  -0.250 136.799  0.00  0.00    +0.000 A 
ATOM     96  C   UNL     1      -5.365   0.719 135.866  0.00  0.00    +0.000 A 
ENDBRANCH  90  91
ENDBRANCH  14  90
TORSDOF 21
ENDMDL
MODEL 6
REMARK VINA RESULT:      -9.3      3.877      7.190
REMARK  Name = CHEMBL375324
REMARK  21 active torsions:
REMARK  status: ('A' for Active; 'I' for Inactive)
REMARK    1  A    between atoms: C_2  and  C_4
REMARK    2  A    between atoms: C_4  and  N_5
REMARK    3  A    between atoms: C_6  and  C_8
REMARK    4  A    between atoms: C_8  and  C_9
REMARK    5  A    between atoms: C_8  and  N_16
REMARK    6  A    between atoms: C_9  and  C_10
REMARK    7  A    between atoms: C_10  and  C_11
REMARK    8  A    between atoms: C_11  and  N_12
REMARK    9  A    between atoms: C_17  and  C_19
REMARK   10  A    between atoms: C_24  and  C_26
REMARK   11  A    between atoms: C_35  and  C_36
REMARK   12  A    between atoms: C_36  and  C_37
REMARK   13  A    between atoms: C_40  and  O_41
REMARK   14  A    between atoms: C_47  and  C_48
REMARK   15  A    between atoms: C_48  and  C_49
REMARK   16  A    between atoms: C_58  and  C_59
REMARK   17  A    between atoms: C_59  and  C_60
REMARK   18  A    between atoms: C_60  and  C_61
REMARK   19  A    between atoms: C_61  and  N_62
REMARK   20  A    between atoms: C_69  and  C_70
REMARK   21  A    between atoms: C_70  and  C_71
REMARK                            x       y       z     vdW  Elec       q    Type
REMARK                         _______ _______ _______ _____ _____    ______ ____
ROOT
ATOM      1  C   UNL     1      -5.090   2.075 131.586  0.00  0.00    +0.000 C 
ATOM      2  C   UNL     1      -4.279   1.913 133.875  0.00  0.00    +0.000 C 
ATOM      3  S   UNL     1      -3.796   2.268 136.553  0.00  0.00    +0.000 S 
ATOM      4  S   UNL     1      -2.968   2.978 139.120  0.00  0.00    +0.000 S 
ATOM      5  C   UNL     1      -3.482   4.872 139.995  0.00  0.00    +0.000 C 
ATOM      6  C   UNL     1      -3.021   6.204 140.635  0.00  0.00    +0.000 C 
ATOM      7  C   UNL     1      -3.654   7.529 140.103  0.00  0.00    +0.000 C 
ATOM      8  O   UNL     1      -3.460   8.594 140.697  0.00  0.00    +0.000 OA
ATOM      9  N   UNL     1      -4.404   7.503 138.955  0.00  0.00    +0.000 N 
ATOM     10  C   UNL     1      -4.651   6.336 138.151  0.00  0.00    +0.000 C 
ATOM     11  C   UNL     1      -3.167   5.827 137.521  0.00  0.00    +0.000 C 
ATOM     12  O   UNL     1      -2.099   5.632 138.144  0.00  0.00    +0.000 OA
ATOM     13  N   UNL     1      -3.118   5.423 136.284  0.00  0.00    +0.000 N 
ATOM     14  C   UNL     1      -4.089   5.691 135.331  0.00  0.00    +0.000 C 
ATOM     15  C   UNL     1      -5.330   4.645 135.680  0.00  0.00    +0.000 C 
ATOM     16  O   UNL     1      -6.038   4.476 136.684  0.00  0.00    +0.000 OA
ATOM     17  N   UNL     1      -5.682   3.815 134.791  0.00  0.00    +0.000 N 
ATOM     18  C   UNL     1      -5.236   3.970 133.547  0.00  0.00    +0.000 C 
ATOM     19  C   UNL     1      -5.399   5.806 132.690  0.00  0.00    +0.000 C 
ATOM     20  O   UNL     1      -4.929   6.857 133.045  0.00  0.00    +0.000 OA
ATOM     21  N   UNL     1      -6.372   5.941 131.510  0.00  0.00    +0.000 N 
ATOM     22  C   UNL     1      -6.779   4.248 130.551  0.00  0.00    +0.000 C 
ATOM     23  C   UNL     1      -5.209   3.015 131.075  0.00  0.00    +0.000 C 
ATOM     24  O   UNL     1      -4.220   3.433 132.024  0.00  0.00    +0.000 OA
ATOM     25  N   UNL     1      -5.102   1.965 129.987  0.00  0.00    +0.000 N 
ATOM     26  H   UNL     1      -4.846   8.352 138.598  0.00  0.00    +0.000 HD
ATOM     27  H   UNL     1      -2.216   5.066 136.015  0.00  0.00    +0.000 HD
ATOM     28  H   UNL     1      -6.574   3.434 134.937  0.00  0.00    +0.000 HD
ATOM     29  H   UNL     1      -5.748   6.521 130.892  0.00  0.00    +0.000 HD
ATOM     30  H   UNL     1      -4.483   1.932 129.011  0.00  0.00    +0.000 HD
ENDROOT
BRANCH   1  36
ATOM     31  C   UNL     1      -7.527   1.932 126.600  0.00  0.00    +0.000 C 
ATOM     32  C   UNL     1      -6.892   0.891 125.469  0.00  0.00    +0.000 C 
ATOM     33  C   UNL     1      -6.796   1.701 124.258  0.00  0.00    +0.000 C 
ATOM     34  C   UNL     1      -6.480   3.301 125.381  0.00  0.00    +0.000 C 
ATOM     35  N   UNL     1      -6.642   3.250 127.496  0.00  0.00    +0.000 N 
ATOM     36  C   UNL     1      -5.819   3.089 129.391  0.00  0.00    +0.000 C 
ATOM     37  O   UNL     1      -5.690   4.294 128.622  0.00  0.00    +0.000 OA
BRANCH  31  39
ATOM     38  N   UNL     1      -7.080   0.167 127.816  0.00  0.00    +0.000 N 
ATOM     39  C   UNL     1      -7.583   1.309 127.809  0.00  0.00    +0.000 C 
ATOM     40  O   UNL     1      -7.857   1.673 128.897  0.00  0.00    +0.000 OA
ATOM     41  H   UNL     1      -6.750  -0.447 126.827  0.00  0.00    +0.000 HD
BRANCH  38  42
ATOM     42  C   UNL     1      -6.547  -0.595 128.913  0.00  0.00    +0.000 C 
BRANCH  42  44
ATOM     43  N   UNL     1      -3.659  -2.078 129.416  0.00  0.00    +0.000 N 
ATOM     44  C   UNL     1      -4.883  -1.600 128.123  0.00  0.00    +0.000 C 
ATOM     45  O   UNL     1      -5.247  -2.522 127.353  0.00  0.00    +0.000 OA
ATOM     46  H   UNL     1      -3.843  -1.640 130.473  0.00  0.00    +0.000 HD
BRANCH  43  47
ATOM     47  C   UNL     1      -3.364  -3.506 129.677  0.00  0.00    +0.000 C 
BRANCH  47  49
ATOM     48  N   UNL     1      -3.399  -3.425 132.043  0.00  0.00    +0.000 N 
ATOM     49  C   UNL     1      -4.071  -3.824 130.955  0.00  0.00    +0.000 C 
ATOM     50  O   UNL     1      -5.165  -4.341 131.077  0.00  0.00    +0.000 OA
ATOM     51  H   UNL     1      -3.816  -3.534 132.953  0.00  0.00    +0.000 HD
ATOM     52  H   UNL     1      -2.497  -2.988 131.978  0.00  0.00    +0.000 HD
ENDBRANCH  47  49
ENDBRANCH  43  47
ENDBRANCH  42  44
BRANCH  42  53
ATOM     53  C   UNL     1      -8.260  -1.212 130.246  0.00  0.00    +0.000 C 
BRANCH  53  54
ATOM     54  C   UNL     1      -8.326  -0.885 131.620  0.00  0.00    +0.000 C 
BRANCH  54  55
ATOM     55  C   UNL     1      -7.371  -1.639 132.328  0.00  0.00    +0.000 C 
BRANCH  55  56
ATOM     56  N   UNL     1      -8.165  -1.918 133.406  0.00  0.00    +0.000 NA
ATOM     57  C   UNL     1      -7.888  -3.054 133.891  0.00  0.00    +0.000 C 
ATOM     58  N   UNL     1      -6.917  -3.882 133.468  0.00  0.00    +0.000 N 
ATOM     59  N   UNL     1      -8.718  -3.545 134.784  0.00  0.00    +0.000 N 
ATOM     60  H   UNL     1      -6.302  -3.620 132.706  0.00  0.00    +0.000 HD
ATOM     61  H   UNL     1      -6.738  -4.782 133.871  0.00  0.00    +0.000 HD
ATOM     62  H   UNL     1      -9.393  -2.882 135.162  0.00  0.00    +0.000 HD
ATOM     63  H   UNL     1      -8.606  -4.338 135.393  0.00  0.00    +0.000 HD
ENDBRANCH  55  56
ENDBRANCH  54  55
ENDBRANCH  53  54
ENDBRANCH  42  53
ENDBRANCH  38  42
ENDBRANCH  31  39
ENDBRANCH   1  36
BRANCH  10  64
ATOM     64  C   UNL     1      -5.583   6.777 137.137  0.00  0.00    +0.000 C 
BRANCH  64  65
ATOM     65  C   UNL     1      -6.675   7.629 137.486  0.00  0.00    +0.000 A 
ATOM     66  C   UNL     1      -6.545   9.002 137.623  0.00  0.00    +0.000 A 
ATOM     67  C   UNL     1      -7.703   9.780 137.692  0.00  0.00    +0.000 A 
ATOM     68  C   UNL     1      -8.954   9.137 137.717  0.00  0.00    +0.000 A 
ATOM     69  C   UNL     1      -9.027   7.742 137.658  0.00  0.00    +0.000 A 
ATOM     70  C   UNL     1      -7.886   6.986 137.545  0.00  0.00    +0.000 A 
BRANCH  68  71
ATOM     71  O   UNL     1     -10.126   9.772 137.964  0.00  0.00    +0.000 OA
ATOM     72  H   UNL     1     -10.047  10.509 138.586  0.00  0.00    +0.000 HD
ENDBRANCH  68  71
ENDBRANCH  64  65
ENDBRANCH  10  64
BRANCH  22  73
ATOM     73  C   UNL     1      -7.595   4.605 129.392  0.00  0.00    +0.000 C 
BRANCH  73  74
ATOM     74  C   UNL     1      -8.969   4.866 129.633  0.00  0.00    +0.000 C 
ATOM     75  N   UNL     1      -9.300   6.155 129.631  0.00  0.00    +0.000 N 
ATOM     76  O   UNL     1      -9.797   4.004 129.719  0.00  0.00    +0.000 OA
ATOM     77  H   UNL     1      -8.676   6.902 129.413  0.00  0.00    +0.000 HD
ATOM     78  H   UNL     1     -10.203   6.480 129.854  0.00  0.00    +0.000 HD
ENDBRANCH  73  74
ENDBRANCH  22  73
BRANCH  18  79
ATOM     79  C   UNL     1      -6.032   2.655 133.033  0.00  0.00    +0.000 C 
BRANCH  79  80
ATOM     80  C   UNL     1      -7.165   1.896 133.317  0.00  0.00    +0.000 C 
BRANCH  80  81
ATOM     81  C   UNL     1      -8.487   2.522 133.116  0.00  0.00    +0.000 C 
BRANCH  81  82
ATOM     82  N   UNL     1      -8.311   3.760 133.787  0.00  0.00    +0.000 NA
ATOM     83  C   UNL     1      -9.128   4.706 133.507  0.00  0.00    +0.000 C 
ATOM     84  N   UNL     1     -10.165   4.555 132.625  0.00  0.00    +0.000 N 
ATOM     85  N   UNL     1      -8.951   5.926 134.112  0.00  0.00    +0.000 N 
ATOM     86  H   UNL     1     -10.348   3.667 132.147  0.00  0.00    +0.000 HD
ATOM     87  H   UNL     1     -10.820   5.281 132.378  0.00  0.00    +0.000 HD
ATOM     88  H   UNL     1      -8.184   6.093 134.782  0.00  0.00    +0.000 HD
ATOM     89  H   UNL     1      -9.527   6.740 133.955  0.00  0.00    +0.000 HD
ENDBRANCH  81  82
ENDBRANCH  80  81
ENDBRANCH  79  80
ENDBRANCH  18  79
BRANCH  14  90
ATOM     90  C   UNL     1      -3.348   5.433 134.127  0.00  0.00    +0.000 C 
BRANCH  90  91
ATOM     91  C   UNL     1      -2.246   6.238 133.736  0.00  0.00    +0.000 A 
ATOM     92  C   UNL     1      -1.810   7.355 134.383  0.00  0.00    +0.000 A 
ATOM     93  C   UNL     1      -0.773   8.028 133.806  0.00  0.00    +0.000 A 
ATOM     94  C   UNL     1      -0.035   7.468 132.795  0.00  0.00    +0.000 A 
ATOM     95  C   UNL     1      -0.508   6.342 132.186  0.00  0.00    +0.000 A 
ATOM     96  C   UNL     1      -1.619   5.726 132.649  0.00  0.00    +0.000 A 
ENDBRANCH  90  91
ENDBRANCH  14  90
TORSDOF 21
ENDMDL
MODEL 7
REMARK VINA RESULT:      -9.2      7.125     12.843
REMARK  Name = CHEMBL375324
REMARK  21 active torsions:
REMARK  status: ('A' for Active; 'I' for Inactive)
REMARK    1  A    between atoms: C_2  and  C_4
REMARK    2  A    between atoms: C_4  and  N_5
REMARK    3  A    between atoms: C_6  and  C_8
REMARK    4  A    between atoms: C_8  and  C_9
REMARK    5  A    between atoms: C_8  and  N_16
REMARK    6  A    between atoms: C_9  and  C_10
REMARK    7  A    between atoms: C_10  and  C_11
REMARK    8  A    between atoms: C_11  and  N_12
REMARK    9  A    between atoms: C_17  and  C_19
REMARK   10  A    between atoms: C_24  and  C_26
REMARK   11  A    between atoms: C_35  and  C_36
REMARK   12  A    between atoms: C_36  and  C_37
REMARK   13  A    between atoms: C_40  and  O_41
REMARK   14  A    between atoms: C_47  and  C_48
REMARK   15  A    between atoms: C_48  and  C_49
REMARK   16  A    between atoms: C_58  and  C_59
REMARK   17  A    between atoms: C_59  and  C_60
REMARK   18  A    between atoms: C_60  and  C_61
REMARK   19  A    between atoms: C_61  and  N_62
REMARK   20  A    between atoms: C_69  and  C_70
REMARK   21  A    between atoms: C_70  and  C_71
REMARK                            x       y       z     vdW  Elec       q    Type
REMARK                         _______ _______ _______ _____ _____    ______ ____
ROOT
ATOM      1  C   UNL     1      -1.215   7.117 135.736  0.00  0.00    +0.000 C 
ATOM      2  C   UNL     1      -1.275   6.376 133.419  0.00  0.00    +0.000 C 
ATOM      3  S   UNL     1      -1.987   5.800 130.833  0.00  0.00    +0.000 S 
ATOM      4  S   UNL     1      -2.916   4.793 128.404  0.00  0.00    +0.000 S 
ATOM      5  C   UNL     1      -5.009   4.740 127.922  0.00  0.00    +0.000 C 
ATOM      6  C   UNL     1      -6.256   3.914 127.518  0.00  0.00    +0.000 C 
ATOM      7  C   UNL     1      -7.577   4.145 128.319  0.00  0.00    +0.000 C 
ATOM      8  O   UNL     1      -8.638   3.652 127.923  0.00  0.00    +0.000 OA
ATOM      9  N   UNL     1      -7.542   4.876 129.479  0.00  0.00    +0.000 N 
ATOM     10  C   UNL     1      -6.360   5.450 130.063  0.00  0.00    +0.000 C 
ATOM     11  C   UNL     1      -5.343   4.176 130.511  0.00  0.00    +0.000 C 
ATOM     12  O   UNL     1      -4.980   3.205 129.810  0.00  0.00    +0.000 OA
ATOM     13  N   UNL     1      -4.711   4.250 131.648  0.00  0.00    +0.000 N 
ATOM     14  C   UNL     1      -5.053   5.108 132.683  0.00  0.00    +0.000 C 
ATOM     15  C   UNL     1      -4.486   6.595 132.208  0.00  0.00    +0.000 C 
ATOM     16  O   UNL     1      -4.719   7.317 131.228  0.00  0.00    +0.000 OA
ATOM     17  N   UNL     1      -3.633   7.174 132.945  0.00  0.00    +0.000 N 
ATOM     18  C   UNL     1      -3.414   6.707 134.172  0.00  0.00    +0.000 C 
ATOM     19  C   UNL     1      -5.021   6.342 135.362  0.00  0.00    +0.000 C 
ATOM     20  O   UNL     1      -5.946   5.590 135.184  0.00  0.00    +0.000 OA
ATOM     21  N   UNL     1      -5.195   7.241 136.594  0.00  0.00    +0.000 N 
ATOM     22  C   UNL     1      -3.533   8.120 137.241  0.00  0.00    +0.000 C 
ATOM     23  C   UNL     1      -2.033   6.965 136.419  0.00  0.00    +0.000 C 
ATOM     24  O   UNL     1      -2.331   5.894 135.515  0.00  0.00    +0.000 OA
ATOM     25  N   UNL     1      -0.806   7.168 137.286  0.00  0.00    +0.000 N 
ATOM     26  H   UNL     1      -8.396   5.059 130.009  0.00  0.00    +0.000 HD
ATOM     27  H   UNL     1      -4.070   3.489 131.799  0.00  0.00    +0.000 HD
ATOM     28  H   UNL     1      -3.554   8.136 132.776  0.00  0.00    +0.000 HD
ATOM     29  H   UNL     1      -5.445   6.480 137.277  0.00  0.00    +0.000 HD
ATOM     30  H   UNL     1      -0.413   6.588 138.206  0.00  0.00    +0.000 HD
ENDROOT
BRANCH   1  36
ATOM     31  C   UNL     1      -0.855   9.577 140.700  0.00  0.00    +0.000 C 
ATOM     32  C   UNL     1       0.534   9.324 141.580  0.00  0.00    +0.000 C 
ATOM     33  C   UNL     1       0.050   9.003 142.920  0.00  0.00    +0.000 C 
ATOM     34  C   UNL     1      -1.561   8.178 142.116  0.00  0.00    +0.000 C 
ATOM     35  N   UNL     1      -1.982   8.306 140.040  0.00  0.00    +0.000 N 
ATOM     36  C   UNL     1      -1.950   7.536 138.116  0.00  0.00    +0.000 C 
ATOM     37  O   UNL     1      -2.878   7.051 139.098  0.00  0.00    +0.000 OA
BRANCH  31  39
ATOM     38  N   UNL     1      -1.022  10.848 138.926  0.00  0.00    +0.000 N 
ATOM     39  C   UNL     1      -0.533   9.801 139.397  0.00  0.00    +0.000 C 
ATOM     40  O   UNL     1       0.243   9.309 138.657  0.00  0.00    +0.000 OA
ATOM     41  H   UNL     1      -1.869  11.520 139.470  0.00  0.00    +0.000 HD
BRANCH  38  42
ATOM     42  C   UNL     1      -0.582  11.647 137.813  0.00  0.00    +0.000 C 
BRANCH  42  44
ATOM     43  N   UNL     1       1.995  13.583 137.178  0.00  0.00    +0.000 N 
ATOM     44  C   UNL     1       1.097  12.690 138.517  0.00  0.00    +0.000 C 
ATOM     45  O   UNL     1       0.801  13.378 139.525  0.00  0.00    +0.000 OA
ATOM     46  H   UNL     1       1.654  13.347 136.096  0.00  0.00    +0.000 HD
BRANCH  43  47
ATOM     47  C   UNL     1       2.093  15.061 137.199  0.00  0.00    +0.000 C 
BRANCH  47  49
ATOM     48  N   UNL     1       1.754  14.943 134.858  0.00  0.00    +0.000 N 
ATOM     49  C   UNL     1       1.338  15.519 135.994  0.00  0.00    +0.000 C 
ATOM     50  O   UNL     1       0.398  16.292 135.969  0.00  0.00    +0.000 OA
ATOM     51  H   UNL     1       1.269  15.134 133.996  0.00  0.00    +0.000 HD
ATOM     52  H   UNL     1       2.521  14.295 134.844  0.00  0.00    +0.000 HD
ENDBRANCH  47  49
ENDBRANCH  43  47
ENDBRANCH  42  44
BRANCH  42  53
ATOM     53  C   UNL     1      -2.394  12.233 136.603  0.00  0.00    +0.000 C 
BRANCH  53  54
ATOM     54  C   UNL     1      -2.354  12.444 135.205  0.00  0.00    +0.000 C 
BRANCH  54  55
ATOM     55  C   UNL     1      -1.755  13.689 134.936  0.00  0.00    +0.000 C 
BRANCH  55  56
ATOM     56  N   UNL     1      -2.328  13.872 133.708  0.00  0.00    +0.000 NA
ATOM     57  C   UNL     1      -2.703  15.072 133.557  0.00  0.00    +0.000 C 
ATOM     58  N   UNL     1      -2.532  16.073 134.436  0.00  0.00    +0.000 N 
ATOM     59  N   UNL     1      -3.468  15.337 132.521  0.00  0.00    +0.000 N 
ATOM     60  H   UNL     1      -2.046  15.921 135.313  0.00  0.00    +0.000 HD
ATOM     61  H   UNL     1      -2.856  17.009 134.286  0.00  0.00    +0.000 HD
ATOM     62  H   UNL     1      -3.518  14.601 131.817  0.00  0.00    +0.000 HD
ATOM     63  H   UNL     1      -3.739  16.227 132.138  0.00  0.00    +0.000 HD
ENDBRANCH  55  56
ENDBRANCH  54  55
ENDBRANCH  53  54
ENDBRANCH  42  53
ENDBRANCH  38  42
ENDBRANCH  31  39
ENDBRANCH   1  36
BRANCH  10  64
ATOM     64  C   UNL     1      -6.842   6.221 131.188  0.00  0.00    +0.000 C 
BRANCH  64  65
ATOM     65  C   UNL     1      -8.243   6.431 131.367  0.00  0.00    +0.000 A 
ATOM     66  C   UNL     1      -9.026   7.110 130.447  0.00  0.00    +0.000 A 
ATOM     67  C   UNL     1     -10.416   7.029 130.562  0.00  0.00    +0.000 A 
ATOM     68  C   UNL     1     -10.969   6.344 131.660  0.00  0.00    +0.000 A 
ATOM     69  C   UNL     1     -10.133   5.743 132.606  0.00  0.00    +0.000 A 
ATOM     70  C   UNL     1      -8.768   5.789 132.461  0.00  0.00    +0.000 A 
BRANCH  68  71
ATOM     71  O   UNL     1     -12.288   6.356 131.971  0.00  0.00    +0.000 OA
ATOM     72  H   UNL     1     -12.769   5.572 131.667  0.00  0.00    +0.000 HD
ENDBRANCH  68  71
ENDBRANCH  64  65
ENDBRANCH  10  64
BRANCH  22  73
ATOM     73  C   UNL     1      -3.875   8.805 138.487  0.00  0.00    +0.000 C 
BRANCH  73  74
ATOM     74  C   UNL     1      -4.703   9.952 138.379  0.00  0.00    +0.000 C 
ATOM     75  N   UNL     1      -4.471  10.896 139.286  0.00  0.00    +0.000 N 
ATOM     76  O   UNL     1      -5.476  10.122 137.477  0.00  0.00    +0.000 OA
ATOM     77  H   UNL     1      -3.737  10.867 139.962  0.00  0.00    +0.000 HD
ATOM     78  H   UNL     1      -5.018  11.711 139.369  0.00  0.00    +0.000 HD
ENDBRANCH  73  74
ENDBRANCH  22  73
BRANCH  18  79
ATOM     79  C   UNL     1      -2.303   7.848 134.472  0.00  0.00    +0.000 C 
BRANCH  79  80
ATOM     80  C   UNL     1      -2.070   9.209 134.284  0.00  0.00    +0.000 C 
BRANCH  80  81
ATOM     81  C   UNL     1      -1.342   9.626 133.070  0.00  0.00    +0.000 C 
BRANCH  81  82
ATOM     82  N   UNL     1      -0.089  10.006 133.616  0.00  0.00    +0.000 NA
ATOM     83  C   UNL     1       0.431  11.100 133.198  0.00  0.00    +0.000 C 
ATOM     84  N   UNL     1      -0.185  11.914 132.284  0.00  0.00    +0.000 N 
ATOM     85  N   UNL     1       1.663  11.466 133.681  0.00  0.00    +0.000 N 
ATOM     86  H   UNL     1      -1.107  11.693 131.893  0.00  0.00    +0.000 HD
ATOM     87  H   UNL     1       0.200  12.776 131.930  0.00  0.00    +0.000 HD
ATOM     88  H   UNL     1       2.170  10.888 134.367  0.00  0.00    +0.000 HD
ATOM     89  H   UNL     1       2.167  12.298 133.411  0.00  0.00    +0.000 HD
ENDBRANCH  81  82
ENDBRANCH  80  81
ENDBRANCH  79  80
ENDBRANCH  18  79
BRANCH  14  90
ATOM     90  C   UNL     1      -4.371   4.477 133.778  0.00  0.00    +0.000 C 
BRANCH  90  91
ATOM     91  C   UNL     1      -4.118   3.081 133.802  0.00  0.00    +0.000 A 
ATOM     92  C   UNL     1      -2.961   2.477 133.408  0.00  0.00    +0.000 A 
ATOM     93  C   UNL     1      -2.943   1.114 133.444  0.00  0.00    +0.000 A 
ATOM     94  C   UNL     1      -3.918   0.405 134.096  0.00  0.00    +0.000 A 
ATOM     95  C   UNL     1      -5.054   1.056 134.480  0.00  0.00    +0.000 A 
ATOM     96  C   UNL     1      -5.161   2.396 134.329  0.00  0.00    +0.000 A 
ENDBRANCH  90  91
ENDBRANCH  14  90
TORSDOF 21
ENDMDL
MODEL 8
REMARK VINA RESULT:      -9.2      3.535     10.026
REMARK  Name = CHEMBL375324
REMARK  21 active torsions:
REMARK  status: ('A' for Active; 'I' for Inactive)
REMARK    1  A    between atoms: C_2  and  C_4
REMARK    2  A    between atoms: C_4  and  N_5
REMARK    3  A    between atoms: C_6  and  C_8
REMARK    4  A    between atoms: C_8  and  C_9
REMARK    5  A    between atoms: C_8  and  N_16
REMARK    6  A    between atoms: C_9  and  C_10
REMARK    7  A    between atoms: C_10  and  C_11
REMARK    8  A    between atoms: C_11  and  N_12
REMARK    9  A    between atoms: C_17  and  C_19
REMARK   10  A    between atoms: C_24  and  C_26
REMARK   11  A    between atoms: C_35  and  C_36
REMARK   12  A    between atoms: C_36  and  C_37
REMARK   13  A    between atoms: C_40  and  O_41
REMARK   14  A    between atoms: C_47  and  C_48
REMARK   15  A    between atoms: C_48  and  C_49
REMARK   16  A    between atoms: C_58  and  C_59
REMARK   17  A    between atoms: C_59  and  C_60
REMARK   18  A    between atoms: C_60  and  C_61
REMARK   19  A    between atoms: C_61  and  N_62
REMARK   20  A    between atoms: C_69  and  C_70
REMARK   21  A    between atoms: C_70  and  C_71
REMARK                            x       y       z     vdW  Elec       q    Type
REMARK                         _______ _______ _______ _____ _____    ______ ____
ROOT
ATOM      1  C   UNL     1      -5.364   2.214 132.863  0.00  0.00    +0.000 C 
ATOM      2  C   UNL     1      -4.801   0.364 131.385  0.00  0.00    +0.000 C 
ATOM      3  S   UNL     1      -4.452  -1.308 129.239  0.00  0.00    +0.000 S 
ATOM      4  S   UNL     1      -4.575  -3.158 127.154  0.00  0.00    +0.000 S 
ATOM      5  C   UNL     1      -5.780  -2.821 125.408  0.00  0.00    +0.000 C 
ATOM      6  C   UNL     1      -6.919  -3.297 124.472  0.00  0.00    +0.000 C 
ATOM      7  C   UNL     1      -8.019  -2.263 124.075  0.00  0.00    +0.000 C 
ATOM      8  O   UNL     1      -8.840  -2.536 123.193  0.00  0.00    +0.000 OA
ATOM      9  N   UNL     1      -8.083  -1.061 124.733  0.00  0.00    +0.000 N 
ATOM     10  C   UNL     1      -7.219  -0.659 125.810  0.00  0.00    +0.000 C 
ATOM     11  C   UNL     1      -7.505  -1.700 127.111  0.00  0.00    +0.000 C 
ATOM     12  O   UNL     1      -7.526  -2.951 127.097  0.00  0.00    +0.000 OA
ATOM     13  N   UNL     1      -7.553  -1.201 128.313  0.00  0.00    +0.000 N 
ATOM     14  C   UNL     1      -7.735   0.144 128.598  0.00  0.00    +0.000 C 
ATOM     15  C   UNL     1      -6.258   0.845 128.308  0.00  0.00    +0.000 C 
ATOM     16  O   UNL     1      -5.541   0.922 127.300  0.00  0.00    +0.000 OA
ATOM     17  N   UNL     1      -5.679   1.440 129.265  0.00  0.00    +0.000 N 
ATOM     18  C   UNL     1      -6.364   1.701 130.375  0.00  0.00    +0.000 C 
ATOM     19  C   UNL     1      -8.186   2.585 130.193  0.00  0.00    +0.000 C 
ATOM     20  O   UNL     1      -9.168   2.193 129.616  0.00  0.00    +0.000 OA
ATOM     21  N   UNL     1      -8.321   4.021 130.721  0.00  0.00    +0.000 N 
ATOM     22  C   UNL     1      -6.984   4.545 132.096  0.00  0.00    +0.000 C 
ATOM     23  C   UNL     1      -6.306   2.733 132.815  0.00  0.00    +0.000 C 
ATOM     24  O   UNL     1      -6.734   1.495 132.235  0.00  0.00    +0.000 OA
ATOM     25  N   UNL     1      -5.760   2.996 134.205  0.00  0.00    +0.000 N 
ATOM     26  H   UNL     1      -8.780  -0.360 124.478  0.00  0.00    +0.000 HD
ATOM     27  H   UNL     1      -7.649  -1.898 129.032  0.00  0.00    +0.000 HD
ATOM     28  H   UNL     1      -4.976   2.060 128.977  0.00  0.00    +0.000 HD
ATOM     29  H   UNL     1      -9.248   3.896 131.202  0.00  0.00    +0.000 HD
ATOM     30  H   UNL     1      -6.260   2.945 135.247  0.00  0.00    +0.000 HD
ENDROOT
BRANCH   1  36
ATOM     31  C   UNL     1      -6.116   6.319 136.524  0.00  0.00    +0.000 C 
ATOM     32  C   UNL     1      -6.144   5.910 138.136  0.00  0.00    +0.000 C 
ATOM     33  C   UNL     1      -7.310   6.615 138.660  0.00  0.00    +0.000 C 
ATOM     34  C   UNL     1      -8.191   6.418 136.897  0.00  0.00    +0.000 C 
ATOM     35  N   UNL     1      -7.174   5.644 135.203  0.00  0.00    +0.000 N 
ATOM     36  C   UNL     1      -6.675   4.098 133.917  0.00  0.00    +0.000 C 
ATOM     37  O   UNL     1      -7.966   4.723 133.866  0.00  0.00    +0.000 OA
BRANCH  31  39
ATOM     38  N   UNL     1      -4.332   6.376 135.256  0.00  0.00    +0.000 N 
ATOM     39  C   UNL     1      -5.110   5.645 135.902  0.00  0.00    +0.000 C 
ATOM     40  O   UNL     1      -4.713   4.537 135.971  0.00  0.00    +0.000 OA
ATOM     41  H   UNL     1      -4.529   7.545 135.009  0.00  0.00    +0.000 HD
BRANCH  38  42
ATOM     42  C   UNL     1      -2.967   6.146 134.866  0.00  0.00    +0.000 C 
BRANCH  42  44
ATOM     43  N   UNL     1      -0.107   7.593 135.589  0.00  0.00    +0.000 N 
ATOM     44  C   UNL     1      -1.816   7.281 136.205  0.00  0.00    +0.000 C 
ATOM     45  O   UNL     1      -2.450   8.295 136.585  0.00  0.00    +0.000 OA
ATOM     46  H   UNL     1       0.202   7.007 134.638  0.00  0.00    +0.000 HD
BRANCH  43  47
ATOM     47  C   UNL     1       0.348   8.975 135.311  0.00  0.00    +0.000 C 
BRANCH  47  49
ATOM     48  N   UNL     1       0.049   7.959 133.194  0.00  0.00    +0.000 N 
ATOM     49  C   UNL     1       0.284   9.116 133.825  0.00  0.00    +0.000 C 
ATOM     50  O   UNL     1       0.373  10.147 133.184  0.00  0.00    +0.000 OA
ATOM     51  H   UNL     1      -0.077   7.953 132.194  0.00  0.00    +0.000 HD
ATOM     52  H   UNL     1      -0.039   7.092 133.693  0.00  0.00    +0.000 HD
ENDBRANCH  47  49
ENDBRANCH  43  47
ENDBRANCH  42  44
BRANCH  42  53
ATOM     53  C   UNL     1      -2.912   5.831 132.632  0.00  0.00    +0.000 C 
BRANCH  53  54
ATOM     54  C   UNL     1      -3.684   6.594 131.726  0.00  0.00    +0.000 C 
BRANCH  54  55
ATOM     55  C   UNL     1      -2.835   7.196 130.778  0.00  0.00    +0.000 C 
BRANCH  55  56
ATOM     56  N   UNL     1      -3.457   8.415 130.769  0.00  0.00    +0.000 NA
ATOM     57  C   UNL     1      -3.807   8.735 129.595  0.00  0.00    +0.000 C 
ATOM     58  N   UNL     1      -3.656   7.986 128.490  0.00  0.00    +0.000 N 
ATOM     59  N   UNL     1      -4.211   9.972 129.405  0.00  0.00    +0.000 N 
ATOM     60  H   UNL     1      -3.249   7.059 128.538  0.00  0.00    +0.000 HD
ATOM     61  H   UNL     1      -3.935   8.282 127.573  0.00  0.00    +0.000 HD
ATOM     62  H   UNL     1      -4.407  10.501 130.253  0.00  0.00    +0.000 HD
ATOM     63  H   UNL     1      -4.670  10.378 128.607  0.00  0.00    +0.000 HD
ENDBRANCH  55  56
ENDBRANCH  54  55
ENDBRANCH  53  54
ENDBRANCH  42  53
ENDBRANCH  38  42
ENDBRANCH  31  39
ENDBRANCH   1  36
BRANCH  10  64
ATOM     64  C   UNL     1      -7.586   0.714 126.083  0.00  0.00    +0.000 C 
BRANCH  64  65
ATOM     65  C   UNL     1      -7.761   1.638 125.009  0.00  0.00    +0.000 A 
ATOM     66  C   UNL     1      -6.697   2.234 124.349  0.00  0.00    +0.000 A 
ATOM     67  C   UNL     1      -6.945   2.900 123.146  0.00  0.00    +0.000 A 
ATOM     68  C   UNL     1      -8.272   3.024 122.698  0.00  0.00    +0.000 A 
ATOM     69  C   UNL     1      -9.319   2.474 123.444  0.00  0.00    +0.000 A 
ATOM     70  C   UNL     1      -9.063   1.782 124.602  0.00  0.00    +0.000 A 
BRANCH  68  71
ATOM     71  O   UNL     1      -8.648   3.799 121.651  0.00  0.00    +0.000 OA
ATOM     72  H   UNL     1      -8.024   3.784 120.910  0.00  0.00    +0.000 HD
ENDBRANCH  68  71
ENDBRANCH  64  65
ENDBRANCH  10  64
BRANCH  22  73
ATOM     73  C   UNL     1      -7.364   5.875 132.569  0.00  0.00    +0.000 C 
BRANCH  73  74
ATOM     74  C   UNL     1      -7.758   6.816 131.581  0.00  0.00    +0.000 C 
ATOM     75  N   UNL     1      -6.755   7.350 130.889  0.00  0.00    +0.000 N 
ATOM     76  O   UNL     1      -8.903   7.036 131.302  0.00  0.00    +0.000 OA
ATOM     77  H   UNL     1      -5.797   7.086 130.979  0.00  0.00    +0.000 HD
ATOM     78  H   UNL     1      -6.881   8.066 130.224  0.00  0.00    +0.000 HD
ENDBRANCH  73  74
ENDBRANCH  22  73
BRANCH  18  79
ATOM     79  C   UNL     1      -5.081   2.403 131.073  0.00  0.00    +0.000 C 
BRANCH  79  80
ATOM     80  C   UNL     1      -3.890   3.049 130.749  0.00  0.00    +0.000 C 
BRANCH  80  81
ATOM     81  C   UNL     1      -3.865   3.888 129.534  0.00  0.00    +0.000 C 
BRANCH  81  82
ATOM     82  N   UNL     1      -3.247   3.011 128.606  0.00  0.00    +0.000 NA
ATOM     83  C   UNL     1      -2.509   3.534 127.699  0.00  0.00    +0.000 C 
ATOM     84  N   UNL     1      -2.275   4.882 127.618  0.00  0.00    +0.000 N 
ATOM     85  N   UNL     1      -1.935   2.709 126.764  0.00  0.00    +0.000 N 
ATOM     86  H   UNL     1      -2.673   5.545 128.291  0.00  0.00    +0.000 HD
ATOM     87  H   UNL     1      -1.706   5.325 126.913  0.00  0.00    +0.000 HD
ATOM     88  H   UNL     1      -2.082   1.688 126.779  0.00  0.00    +0.000 HD
ATOM     89  H   UNL     1      -1.348   3.016 126.002  0.00  0.00    +0.000 HD
ENDBRANCH  81  82
ENDBRANCH  80  81
ENDBRANCH  79  80
ENDBRANCH  18  79
BRANCH  14  90
ATOM     90  C   UNL     1      -8.152   0.063 129.971  0.00  0.00    +0.000 C 
BRANCH  90  91
ATOM     91  C   UNL     1      -7.925  -1.096 130.758  0.00  0.00    +0.000 A 
ATOM     92  C   UNL     1      -7.390  -2.267 130.310  0.00  0.00    +0.000 A 
ATOM     93  C   UNL     1      -7.318  -3.287 131.212  0.00  0.00    +0.000 A 
ATOM     94  C   UNL     1      -7.510  -3.070 132.552  0.00  0.00    +0.000 A 
ATOM     95  C   UNL     1      -8.039  -1.877 132.951  0.00  0.00    +0.000 A 
ATOM     96  C   UNL     1      -8.255  -0.887 132.056  0.00  0.00    +0.000 A 
ENDBRANCH  90  91
ENDBRANCH  14  90
TORSDOF 21
ENDMDL
MODEL 9
REMARK VINA RESULT:      -9.2      2.660      4.750
REMARK  Name = CHEMBL375324
REMARK  21 active torsions:
REMARK  status: ('A' for Active; 'I' for Inactive)
REMARK    1  A    between atoms: C_2  and  C_4
REMARK    2  A    between atoms: C_4  and  N_5
REMARK    3  A    between atoms: C_6  and  C_8
REMARK    4  A    between atoms: C_8  and  C_9
REMARK    5  A    between atoms: C_8  and  N_16
REMARK    6  A    between atoms: C_9  and  C_10
REMARK    7  A    between atoms: C_10  and  C_11
REMARK    8  A    between atoms: C_11  and  N_12
REMARK    9  A    between atoms: C_17  and  C_19
REMARK   10  A    between atoms: C_24  and  C_26
REMARK   11  A    between atoms: C_35  and  C_36
REMARK   12  A    between atoms: C_36  and  C_37
REMARK   13  A    between atoms: C_40  and  O_41
REMARK   14  A    between atoms: C_47  and  C_48
REMARK   15  A    between atoms: C_48  and  C_49
REMARK   16  A    between atoms: C_58  and  C_59
REMARK   17  A    between atoms: C_59  and  C_60
REMARK   18  A    between atoms: C_60  and  C_61
REMARK   19  A    between atoms: C_61  and  N_62
REMARK   20  A    between atoms: C_69  and  C_70
REMARK   21  A    between atoms: C_70  and  C_71
REMARK                            x       y       z     vdW  Elec       q    Type
REMARK                         _______ _______ _______ _____ _____    ______ ____
ROOT
ATOM      1  C   UNL     1      -4.498   0.680 131.198  0.00  0.00    +0.000 C 
ATOM      2  C   UNL     1      -5.020  -1.583 131.924  0.00  0.00    +0.000 C 
ATOM      3  S   UNL     1      -5.875  -3.803 133.292  0.00  0.00    +0.000 S 
ATOM      4  S   UNL     1      -6.298  -6.022 134.927  0.00  0.00    +0.000 S 
ATOM      5  C   UNL     1      -6.677  -5.825 137.033  0.00  0.00    +0.000 C 
ATOM      6  C   UNL     1      -6.276  -6.168 138.489  0.00  0.00    +0.000 C 
ATOM      7  C   UNL     1      -6.193  -4.997 139.519  0.00  0.00    +0.000 C 
ATOM      8  O   UNL     1      -6.058  -5.236 140.723  0.00  0.00    +0.000 OA
ATOM      9  N   UNL     1      -6.243  -3.701 139.071  0.00  0.00    +0.000 N 
ATOM     10  C   UNL     1      -6.341  -3.303 137.692  0.00  0.00    +0.000 C 
ATOM     11  C   UNL     1      -4.930  -3.809 136.912  0.00  0.00    +0.000 C 
ATOM     12  O   UNL     1      -4.411  -4.948 136.936  0.00  0.00    +0.000 OA
ATOM     13  N   UNL     1      -4.372  -3.011 136.048  0.00  0.00    +0.000 N 
ATOM     14  C   UNL     1      -4.626  -1.650 135.958  0.00  0.00    +0.000 C 
ATOM     15  C   UNL     1      -6.095  -1.542 135.190  0.00  0.00    +0.000 C 
ATOM     16  O   UNL     1      -7.226  -1.966 135.464  0.00  0.00    +0.000 OA
ATOM     17  N   UNL     1      -6.152  -0.915 134.091  0.00  0.00    +0.000 N 
ATOM     18  C   UNL     1      -5.118  -0.163 133.720  0.00  0.00    +0.000 C 
ATOM     19  C   UNL     1      -4.352   1.150 135.070  0.00  0.00    +0.000 C 
ATOM     20  O   UNL     1      -3.874   0.935 136.155  0.00  0.00    +0.000 OA
ATOM     21  N   UNL     1      -4.528   2.645 134.767  0.00  0.00    +0.000 N 
ATOM     22  C   UNL     1      -4.817   3.091 132.851  0.00  0.00    +0.000 C 
ATOM     23  C   UNL     1      -4.099   1.428 131.862  0.00  0.00    +0.000 C 
ATOM     24  O   UNL     1      -3.652   0.271 132.579  0.00  0.00    +0.000 OA
ATOM     25  N   UNL     1      -3.734   1.882 130.462  0.00  0.00    +0.000 N 
ATOM     26  H   UNL     1      -6.211  -2.919 139.726  0.00  0.00    +0.000 HD
ATOM     27  H   UNL     1      -3.583  -3.421 135.576  0.00  0.00    +0.000 HD
ATOM     28  H   UNL     1      -7.059  -0.643 133.838  0.00  0.00    +0.000 HD
ATOM     29  H   UNL     1      -3.554   2.946 135.026  0.00  0.00    +0.000 HD
ATOM     30  H   UNL     1      -2.741   2.273 130.018  0.00  0.00    +0.000 HD
ENDROOT
BRANCH   1  36
ATOM     31  C   UNL     1      -4.086   5.848 129.214  0.00  0.00    +0.000 C 
ATOM     32  C   UNL     1      -3.288   6.051 127.768  0.00  0.00    +0.000 C 
ATOM     33  C   UNL     1      -2.389   7.175 128.015  0.00  0.00    +0.000 C 
ATOM     34  C   UNL     1      -2.245   6.613 129.909  0.00  0.00    +0.000 C 
ATOM     35  N   UNL     1      -3.438   5.058 130.723  0.00  0.00    +0.000 N 
ATOM     36  C   UNL     1      -3.739   3.087 131.286  0.00  0.00    +0.000 C 
ATOM     37  O   UNL     1      -2.922   3.970 132.070  0.00  0.00    +0.000 OA
BRANCH  31  39
ATOM     38  N   UNL     1      -6.110   5.018 129.302  0.00  0.00    +0.000 N 
ATOM     39  C   UNL     1      -4.900   4.761 129.134  0.00  0.00    +0.000 C 
ATOM     40  O   UNL     1      -4.735   3.648 128.779  0.00  0.00    +0.000 OA
ATOM     41  H   UNL     1      -6.541   6.076 129.702  0.00  0.00    +0.000 HD
BRANCH  38  42
ATOM     42  C   UNL     1      -7.272   4.292 128.866  0.00  0.00    +0.000 C 
BRANCH  42  44
ATOM     43  N   UNL     1      -5.754   3.082 126.216  0.00  0.00    +0.000 N 
ATOM     44  C   UNL     1      -7.108   4.200 126.776  0.00  0.00    +0.000 C 
ATOM     45  O   UNL     1      -8.231   3.999 126.252  0.00  0.00    +0.000 OA
ATOM     46  H   UNL     1      -5.046   2.691 127.045  0.00  0.00    +0.000 HD
BRANCH  43  47
ATOM     47  C   UNL     1      -6.064   1.870 125.422  0.00  0.00    +0.000 C 
BRANCH  47  49
ATOM     48  N   UNL     1      -4.538   1.175 127.093  0.00  0.00    +0.000 N 
ATOM     49  C   UNL     1      -5.352   0.755 126.116  0.00  0.00    +0.000 C 
ATOM     50  O   UNL     1      -5.482  -0.437 125.910  0.00  0.00    +0.000 OA
ATOM     51  H   UNL     1      -4.059   0.500 127.667  0.00  0.00    +0.000 HD
ATOM     52  H   UNL     1      -4.414   2.151 127.296  0.00  0.00    +0.000 HD
ENDBRANCH  47  49
ENDBRANCH  43  47
ENDBRANCH  42  44
BRANCH  42  53
ATOM     53  C   UNL     1      -8.967   4.750 130.284  0.00  0.00    +0.000 C 
BRANCH  53  54
ATOM     54  C   UNL     1     -10.183   5.341 129.869  0.00  0.00    +0.000 C 
BRANCH  54  55
ATOM     55  C   UNL     1      -9.953   6.683 129.510  0.00  0.00    +0.000 C 
BRANCH  55  56
ATOM     56  N   UNL     1     -10.104   6.509 128.162  0.00  0.00    +0.000 NA
ATOM     57  C   UNL     1     -10.526   7.568 127.613  0.00  0.00    +0.000 C 
ATOM     58  N   UNL     1     -10.755   8.742 128.225  0.00  0.00    +0.000 N 
ATOM     59  N   UNL     1     -10.928   7.479 126.364  0.00  0.00    +0.000 N 
ATOM     60  H   UNL     1     -10.573   8.859 129.215  0.00  0.00    +0.000 HD
ATOM     61  H   UNL     1     -11.104   9.557 127.756  0.00  0.00    +0.000 HD
ATOM     62  H   UNL     1     -10.670   6.618 125.884  0.00  0.00    +0.000 HD
ATOM     63  H   UNL     1     -11.146   8.211 125.709  0.00  0.00    +0.000 HD
ENDBRANCH  55  56
ENDBRANCH  54  55
ENDBRANCH  53  54
ENDBRANCH  42  53
ENDBRANCH  38  42
ENDBRANCH  31  39
ENDBRANCH   1  36
BRANCH  10  64
ATOM     64  C   UNL     1      -6.489  -1.864 137.734  0.00  0.00    +0.000 C 
BRANCH  64  65
ATOM     65  C   UNL     1      -7.400  -1.262 138.654  0.00  0.00    +0.000 A 
ATOM     66  C   UNL     1      -8.730  -1.641 138.752  0.00  0.00    +0.000 A 
ATOM     67  C   UNL     1      -9.471  -1.202 139.853  0.00  0.00    +0.000 A 
ATOM     68  C   UNL     1      -8.871  -0.318 140.767  0.00  0.00    +0.000 A 
ATOM     69  C   UNL     1      -7.550   0.099 140.578  0.00  0.00    +0.000 A 
ATOM     70  C   UNL     1      -6.814  -0.372 139.518  0.00  0.00    +0.000 A 
BRANCH  68  71
ATOM     71  O   UNL     1      -9.544   0.312 141.762  0.00  0.00    +0.000 OA
ATOM     72  H   UNL     1      -8.977   0.617 142.485  0.00  0.00    +0.000 HD
ENDBRANCH  68  71
ENDBRANCH  64  65
ENDBRANCH  10  64
BRANCH  22  73
ATOM     73  C   UNL     1      -4.817   4.549 132.752  0.00  0.00    +0.000 C 
BRANCH  73  74
ATOM     74  C   UNL     1      -5.940   5.227 133.296  0.00  0.00    +0.000 C 
ATOM     75  N   UNL     1      -6.470   6.155 132.503  0.00  0.00    +0.000 N 
ATOM     76  O   UNL     1      -6.454   4.919 134.335  0.00  0.00    +0.000 OA
ATOM     77  H   UNL     1      -6.173   6.342 131.569  0.00  0.00    +0.000 HD
ATOM     78  H   UNL     1      -7.206   6.746 132.783  0.00  0.00    +0.000 HD
ENDBRANCH  73  74
ENDBRANCH  22  73
BRANCH  18  79
ATOM     79  C   UNL     1      -5.855   0.276 132.345  0.00  0.00    +0.000 C 
BRANCH  79  80
ATOM     80  C   UNL     1      -7.064   0.127 131.668  0.00  0.00    +0.000 C 
BRANCH  80  81
ATOM     81  C   UNL     1      -8.312   0.222 132.451  0.00  0.00    +0.000 C 
BRANCH  81  82
ATOM     82  N   UNL     1      -8.133   1.467 133.106  0.00  0.00    +0.000 NA
ATOM     83  C   UNL     1      -9.066   2.337 132.989  0.00  0.00    +0.000 C 
ATOM     84  N   UNL     1     -10.222   2.097 132.293  0.00  0.00    +0.000 N 
ATOM     85  N   UNL     1      -8.896   3.565 133.578  0.00  0.00    +0.000 N 
ATOM     86  H   UNL     1     -10.405   1.198 131.836  0.00  0.00    +0.000 HD
ATOM     87  H   UNL     1     -10.971   2.762 132.176  0.00  0.00    +0.000 HD
ATOM     88  H   UNL     1      -8.044   3.798 134.110  0.00  0.00    +0.000 HD
ATOM     89  H   UNL     1      -9.560   4.325 133.538  0.00  0.00    +0.000 HD
ENDBRANCH  81  82
ENDBRANCH  80  81
ENDBRANCH  79  80
ENDBRANCH  18  79
BRANCH  14  90
ATOM     90  C   UNL     1      -3.475  -1.221 135.211  0.00  0.00    +0.000 C 
BRANCH  90  91
ATOM     91  C   UNL     1      -2.179  -1.740 135.465  0.00  0.00    +0.000 A 
ATOM     92  C   UNL     1      -1.335  -2.259 134.529  0.00  0.00    +0.000 A 
ATOM     93  C   UNL     1      -0.156  -2.769 134.989  0.00  0.00    +0.000 A 
ATOM     94  C   UNL     1       0.275  -2.527 136.267  0.00  0.00    +0.000 A 
ATOM     95  C   UNL     1      -0.605  -1.996 137.165  0.00  0.00    +0.000 A 
ATOM     96  C   UNL     1      -1.838  -1.607 136.770  0.00  0.00    +0.000 A 
ENDBRANCH  90  91
ENDBRANCH  14  90
TORSDOF 21
ENDMDL
