MODEL 1
REMARK VINA RESULT:      -9.9      0.000      0.000
REMARK  Name = CHEMBL4129142
REMARK  22 active torsions:
REMARK  status: ('A' for Active; 'I' for Inactive)
REMARK    1  A    between atoms: C_1  and  C_2
REMARK    2  A    between atoms: C_2  and  C_3
REMARK    3  A    between atoms: C_3  and  C_4
REMARK    4  A    between atoms: C_3  and  C_5
REMARK    5  A    between atoms: C_9  and  C_10
REMARK    6  A    between atoms: C_10  and  C_11
REMARK    7  A    between atoms: C_14  and  O_15
REMARK    8  A    between atoms: C_34  and  C_35
REMARK    9  A    between atoms: C_41  and  C_42
REMARK   10  A    between atoms: N_44  and  C_45
REMARK   11  A    between atoms: C_45  and  C_46
REMARK   12  A    between atoms: C_45  and  C_50
REMARK   13  A    between atoms: C_46  and  C_47
REMARK   14  A    between atoms: C_47  and  C_48
REMARK   15  A    between atoms: C_47  and  C_49
REMARK   16  A    between atoms: N_52  and  C_53
REMARK   17  A    between atoms: C_53  and  C_54
REMARK   18  A    between atoms: C_60  and  C_61
REMARK   19  A    between atoms: C_61  and  C_62
REMARK   20  A    between atoms: C_68  and  C_69
REMARK   21  A    between atoms: C_69  and  C_70
REMARK   22  A    between atoms: C_70  and  C_71
REMARK                            x       y       z     vdW  Elec       q    Type
REMARK                         _______ _______ _______ _____ _____    ______ ____
ROOT
ATOM      1  C   UNL     1      -4.689  -0.204 131.301  0.00  0.00    +0.000 C 
ATOM      2  N   UNL     1      -5.063   0.174 129.021  0.00  0.00    +0.000 N 
ATOM      3  C   UNL     1      -5.832   0.305 127.169  0.00  0.00    +0.000 C 
ATOM      4  O   UNL     1      -6.709  -0.609 126.889  0.00  0.00    +0.000 OA
ATOM      5  C   UNL     1      -6.330   0.893 124.993  0.00  0.00    +0.000 C 
ATOM      6  N   UNL     1      -7.595   0.064 123.741  0.00  0.00    +0.000 N 
ATOM      7  C   UNL     1      -8.966  -0.281 124.059  0.00  0.00    +0.000 C 
ATOM      8  O   UNL     1      -9.733  -1.026 123.427  0.00  0.00    +0.000 OA
ATOM      9  C   UNL     1      -9.363   0.199 125.426  0.00  0.00    +0.000 C 
ATOM     10  C   UNL     1      -8.516   1.167 126.106  0.00  0.00    +0.000 C 
ATOM     11  S   UNL     1      -8.710   1.799 127.646  0.00  0.00    +0.000 S 
ATOM     12  C   UNL     1      -7.287   2.955 127.946  0.00  0.00    +0.000 C 
ATOM     13  C   UNL     1      -7.619   3.592 129.260  0.00  0.00    +0.000 A 
ATOM     14  C   UNL     1      -8.643   3.135 130.079  0.00  0.00    +0.000 A 
ATOM     15  C   UNL     1      -8.958   3.735 131.303  0.00  0.00    +0.000 A 
ATOM     16  C   UNL     1      -8.351   4.954 131.688  0.00  0.00    +0.000 A 
ATOM     17  C   UNL     1      -7.351   5.522 130.869  0.00  0.00    +0.000 A 
ATOM     18  C   UNL     1      -7.038   4.800 129.655  0.00  0.00    +0.000 A 
ATOM     19  C   UNL     1      -6.454   6.645 131.443  0.00  0.00    +0.000 C 
ATOM     20  S   UNL     1      -4.845   6.470 132.037  0.00  0.00    +0.000 S 
ATOM     21  C   UNL     1      -3.834   7.525 132.910  0.00  0.00    +0.000 C 
ATOM     22  C   UNL     1      -2.514   7.003 133.444  0.00  0.00    +0.000 C 
ATOM     23  N   UNL     1      -2.745   6.075 134.571  0.00  0.00    +0.000 N 
ATOM     24  C   UNL     1      -3.384   4.886 134.512  0.00  0.00    +0.000 C 
ATOM     25  O   UNL     1      -3.549   4.266 135.551  0.00  0.00    +0.000 OA
ATOM     26  C   UNL     1      -3.827   4.367 133.178  0.00  0.00    +0.000 C 
ATOM     27  N   UNL     1      -3.235   3.289 132.603  0.00  0.00    +0.000 N 
ATOM     28  C   UNL     1      -3.996   2.253 132.899  0.00  0.00    +0.000 C 
ATOM     29  O   UNL     1      -3.826   1.223 132.286  0.00  0.00    +0.000 OA
ATOM     30  C   UNL     1      -4.617   2.124 134.675  0.00  0.00    +0.000 C 
ATOM     31  N   UNL     1      -5.685   1.043 134.287  0.00  0.00    +0.000 N 
ATOM     32  C   UNL     1      -5.659  -0.109 133.092  0.00  0.00    +0.000 C 
ATOM     33  O   UNL     1      -6.098  -1.092 133.809  0.00  0.00    +0.000 OA
ATOM     34  H   UNL     1      -4.325   0.043 128.088  0.00  0.00    +0.000 HD
ATOM     35  H   UNL     1      -7.610  -0.050 122.591  0.00  0.00    +0.000 HD
ATOM     36  H   UNL     1      -2.441   6.361 135.504  0.00  0.00    +0.000 HD
ATOM     37  H   UNL     1      -2.649   3.251 131.771  0.00  0.00    +0.000 HD
ATOM     38  H   UNL     1      -6.581   1.376 134.598  0.00  0.00    +0.000 HD
ENDROOT
BRANCH  22  39
ATOM     39  C   UNL     1      -1.711   8.239 133.880  0.00  0.00    +0.000 C 
ATOM     40  O   UNL     1      -1.939   9.218 133.171  0.00  0.00    +0.000 OA
ATOM     41  N   UNL     1      -0.923   8.167 135.060  0.00  0.00    +0.000 N 
ATOM     42  C   UNL     1      -0.005   7.106 135.408  0.00  0.00    +0.000 C 
ATOM     43  C   UNL     1      -0.071   7.053 136.906  0.00  0.00    +0.000 C 
ATOM     44  C   UNL     1      -0.003   8.507 137.277  0.00  0.00    +0.000 C 
ATOM     45  C   UNL     1      -0.668   9.232 136.111  0.00  0.00    +0.000 C 
BRANCH  45  46
ATOM     46  C   UNL     1       0.549  10.160 135.795  0.00  0.00    +0.000 C 
ATOM     47  O   UNL     1       1.653   9.832 136.262  0.00  0.00    +0.000 OA
ATOM     48  N   UNL     1       0.395  11.059 134.684  0.00  0.00    +0.000 N 
ATOM     49  H   UNL     1      -0.514  11.383 134.355  0.00  0.00    +0.000 HD
BRANCH  48  50
ATOM     50  C   UNL     1       1.573  11.582 133.898  0.00  0.00    +0.000 C 
BRANCH  50  51
ATOM     51  C   UNL     1       1.944  13.023 134.372  0.00  0.00    +0.000 C 
ATOM     52  O   UNL     1       3.009  13.526 134.010  0.00  0.00    +0.000 OA
ATOM     53  N   UNL     1       1.058  13.701 135.191  0.00  0.00    +0.000 N 
ATOM     54  H   UNL     1       0.194  13.281 135.485  0.00  0.00    +0.000 HD
BRANCH  53  55
ATOM     55  C   UNL     1       1.327  15.060 135.672  0.00  0.00    +0.000 C 
BRANCH  55  56
ATOM     56  C   UNL     1       1.989  15.122 137.066  0.00  0.00    +0.000 C 
ATOM     57  N   UNL     1       1.990  13.972 137.825  0.00  0.00    +0.000 N 
ATOM     58  O   UNL     1       2.499  16.158 137.486  0.00  0.00    +0.000 OA
ATOM     59  H   UNL     1       1.599  13.088 137.557  0.00  0.00    +0.000 HD
ATOM     60  H   UNL     1       2.417  13.974 138.746  0.00  0.00    +0.000 HD
ENDBRANCH  55  56
ENDBRANCH  53  55
ENDBRANCH  50  51
BRANCH  50  61
ATOM     61  C   UNL     1       1.358  11.610 132.369  0.00  0.00    +0.000 C 
BRANCH  61  62
ATOM     62  C   UNL     1       0.526  12.791 131.898  0.00  0.00    +0.000 C 
ATOM     63  C   UNL     1       0.764  13.084 130.468  0.00  0.00    +0.000 C 
ATOM     64  C   UNL     1      -0.912  12.502 131.733  0.00  0.00    +0.000 C 
ENDBRANCH  61  62
ENDBRANCH  50  61
ENDBRANCH  48  50
ENDBRANCH  45  46
ENDBRANCH  22  39
BRANCH   1  65
ATOM     65  C   UNL     1      -3.476  -0.405 133.135  0.00  0.00    +0.000 C 
ATOM     66  C   UNL     1      -2.799  -1.278 134.780  0.00  0.00    +0.000 C 
BRANCH  65  68
ATOM     67  C   UNL     1      -3.470  -2.772 132.098  0.00  0.00    +0.000 C 
ATOM     68  C   UNL     1      -2.145  -1.713 133.102  0.00  0.00    +0.000 C 
ENDBRANCH  65  68
ENDBRANCH   1  65
BRANCH  26  69
ATOM     69  C   UNL     1      -5.343   4.211 133.131  0.00  0.00    +0.000 C 
BRANCH  69  70
ATOM     70  C   UNL     1      -5.801   4.698 134.450  0.00  0.00    +0.000 C 
ATOM     71  N   UNL     1      -5.691   6.033 134.846  0.00  0.00    +0.000 N 
ATOM     72  O   UNL     1      -6.357   3.794 135.040  0.00  0.00    +0.000 OA
ATOM     73  H   UNL     1      -5.352   6.758 134.258  0.00  0.00    +0.000 HD
ATOM     74  H   UNL     1      -5.802   6.479 135.736  0.00  0.00    +0.000 HD
ENDBRANCH  69  70
ENDBRANCH  26  69
BRANCH   5  75
ATOM     75  C   UNL     1      -7.465   2.420 124.216  0.00  0.00    +0.000 C 
BRANCH  75  76
ATOM     76  C   UNL     1      -6.440   3.022 123.371  0.00  0.00    +0.000 A 
ATOM     77  C   UNL     1      -5.630   3.914 124.054  0.00  0.00    +0.000 A 
ATOM     78  C   UNL     1      -4.935   4.893 123.404  0.00  0.00    +0.000 A 
ATOM     79  C   UNL     1      -4.813   4.803 122.048  0.00  0.00    +0.000 A 
ATOM     80  C   UNL     1      -5.430   3.745 121.380  0.00  0.00    +0.000 A 
ATOM     81  C   UNL     1      -6.358   2.916 122.011  0.00  0.00    +0.000 A 
BRANCH  79  82
ATOM     82  O   UNL     1      -4.105   5.731 121.344  0.00  0.00    +0.000 OA
ATOM     83  H   UNL     1      -3.478   6.237 121.895  0.00  0.00    +0.000 HD
ENDBRANCH  79  82
ENDBRANCH  75  76
ENDBRANCH   5  75
BRANCH  30  84
ATOM     84  C   UNL     1      -3.713   1.692 136.032  0.00  0.00    +0.000 C 
BRANCH  84  85
ATOM     85  C   UNL     1      -4.593   1.116 137.166  0.00  0.00    +0.000 C 
BRANCH  85  86
ATOM     86  C   UNL     1      -4.924   2.107 138.243  0.00  0.00    +0.000 C 
ATOM     87  N   UNL     1      -4.942   3.434 137.905  0.00  0.00    +0.000 N 
ATOM     88  O   UNL     1      -5.154   1.723 139.386  0.00  0.00    +0.000 OA
ATOM     89  H   UNL     1      -4.728   3.799 136.985  0.00  0.00    +0.000 HD
ATOM     90  H   UNL     1      -5.203   4.122 138.595  0.00  0.00    +0.000 HD
ENDBRANCH  85  86
ENDBRANCH  84  85
ENDBRANCH  30  84
TORSDOF 18
ENDMDL
MODEL 2
REMARK VINA RESULT:      -9.7      2.991     13.404
REMARK  Name = CHEMBL4129142
REMARK  22 active torsions:
REMARK  status: ('A' for Active; 'I' for Inactive)
REMARK    1  A    between atoms: C_1  and  C_2
REMARK    2  A    between atoms: C_2  and  C_3
REMARK    3  A    between atoms: C_3  and  C_4
REMARK    4  A    between atoms: C_3  and  C_5
REMARK    5  A    between atoms: C_9  and  C_10
REMARK    6  A    between atoms: C_10  and  C_11
REMARK    7  A    between atoms: C_14  and  O_15
REMARK    8  A    between atoms: C_34  and  C_35
REMARK    9  A    between atoms: C_41  and  C_42
REMARK   10  A    between atoms: N_44  and  C_45
REMARK   11  A    between atoms: C_45  and  C_46
REMARK   12  A    between atoms: C_45  and  C_50
REMARK   13  A    between atoms: C_46  and  C_47
REMARK   14  A    between atoms: C_47  and  C_48
REMARK   15  A    between atoms: C_47  and  C_49
REMARK   16  A    between atoms: N_52  and  C_53
REMARK   17  A    between atoms: C_53  and  C_54
REMARK   18  A    between atoms: C_60  and  C_61
REMARK   19  A    between atoms: C_61  and  C_62
REMARK   20  A    between atoms: C_68  and  C_69
REMARK   21  A    between atoms: C_69  and  C_70
REMARK   22  A    between atoms: C_70  and  C_71
REMARK                            x       y       z     vdW  Elec       q    Type
REMARK                         _______ _______ _______ _____ _____    ______ ____
ROOT
ATOM      1  C   UNL     1      -4.077   7.423 138.284  0.00  0.00    +0.000 C 
ATOM      2  N   UNL     1      -3.545   9.677 137.946  0.00  0.00    +0.000 N 
ATOM      3  C   UNL     1      -2.658  11.479 137.867  0.00  0.00    +0.000 C 
ATOM      4  O   UNL     1      -1.807  11.697 138.822  0.00  0.00    +0.000 OA
ATOM      5  C   UNL     1      -2.000  13.624 137.323  0.00  0.00    +0.000 C 
ATOM      6  N   UNL     1      -0.698  14.788 138.220  0.00  0.00    +0.000 N 
ATOM      7  C   UNL     1       0.633  14.383 138.623  0.00  0.00    +0.000 C 
ATOM      8  O   UNL     1       1.404  14.960 139.407  0.00  0.00    +0.000 OA
ATOM      9  C   UNL     1       0.966  12.997 138.147  0.00  0.00    +0.000 C 
ATOM     10  C   UNL     1       0.123  12.378 137.136  0.00  0.00    +0.000 C 
ATOM     11  S   UNL     1       0.249  10.834 136.498  0.00  0.00    +0.000 S 
ATOM     12  C   UNL     1      -1.136  10.631 135.277  0.00  0.00    +0.000 C 
ATOM     13  C   UNL     1      -0.858   9.304 134.642  0.00  0.00    +0.000 A 
ATOM     14  C   UNL     1       0.091   8.418 135.137  0.00  0.00    +0.000 A 
ATOM     15  C   UNL     1       0.356   7.182 134.539  0.00  0.00    +0.000 A 
ATOM     16  C   UNL     1      -0.218   6.844 133.291  0.00  0.00    +0.000 A 
ATOM     17  C   UNL     1      -1.139   7.729 132.686  0.00  0.00    +0.000 A 
ATOM     18  C   UNL     1      -1.408   8.954 133.406  0.00  0.00    +0.000 A 
ATOM     19  C   UNL     1      -2.018   7.220 131.519  0.00  0.00    +0.000 C 
ATOM     20  S   UNL     1      -3.667   6.725 131.617  0.00  0.00    +0.000 S 
ATOM     21  C   UNL     1      -4.682   5.925 130.509  0.00  0.00    +0.000 C 
ATOM     22  C   UNL     1      -6.054   5.471 130.967  0.00  0.00    +0.000 C 
ATOM     23  N   UNL     1      -5.936   4.325 131.893  0.00  0.00    +0.000 N 
ATOM     24  C   UNL     1      -5.348   4.335 133.110  0.00  0.00    +0.000 C 
ATOM     25  O   UNL     1      -5.277   3.284 133.726  0.00  0.00    +0.000 OA
ATOM     26  C   UNL     1      -4.847   5.636 133.661  0.00  0.00    +0.000 C 
ATOM     27  N   UNL     1      -5.450   6.239 134.717  0.00  0.00    +0.000 N 
ATOM     28  C   UNL     1      -4.756   5.889 135.783  0.00  0.00    +0.000 C 
ATOM     29  O   UNL     1      -4.934   6.504 136.811  0.00  0.00    +0.000 OA
ATOM     30  C   UNL     1      -4.254   4.076 135.922  0.00  0.00    +0.000 C 
ATOM     31  N   UNL     1      -3.213   4.389 137.053  0.00  0.00    +0.000 N 
ATOM     32  C   UNL     1      -3.217   5.575 138.215  0.00  0.00    +0.000 C 
ATOM     33  O   UNL     1      -2.868   4.826 139.209  0.00  0.00    +0.000 OA
ATOM     34  H   UNL     1      -4.229  10.654 138.053  0.00  0.00    +0.000 HD
ATOM     35  H   UNL     1      -0.617  15.934 138.346  0.00  0.00    +0.000 HD
ATOM     36  H   UNL     1      -6.284   3.415 131.584  0.00  0.00    +0.000 HD
ATOM     37  H   UNL     1      -5.985   7.105 134.737  0.00  0.00    +0.000 HD
ATOM     38  H   UNL     1      -2.325   4.026 136.757  0.00  0.00    +0.000 HD
ENDROOT
BRANCH  22  39
ATOM     39  C   UNL     1      -6.826   5.094 129.692  0.00  0.00    +0.000 C 
ATOM     40  O   UNL     1      -7.884   5.712 129.587  0.00  0.00    +0.000 OA
ATOM     41  N   UNL     1      -6.222   4.212 128.757  0.00  0.00    +0.000 N 
ATOM     42  C   UNL     1      -5.572   2.957 129.066  0.00  0.00    +0.000 C 
ATOM     43  C   UNL     1      -4.495   2.848 128.028  0.00  0.00    +0.000 C 
ATOM     44  C   UNL     1      -5.223   3.239 126.774  0.00  0.00    +0.000 C 
ATOM     45  C   UNL     1      -6.288   4.225 127.241  0.00  0.00    +0.000 C 
BRANCH  45  46
ATOM     46  C   UNL     1      -7.499   3.434 126.648  0.00  0.00    +0.000 C 
ATOM     47  O   UNL     1      -8.637   3.871 126.887  0.00  0.00    +0.000 OA
ATOM     48  N   UNL     1      -7.207   2.539 125.562  0.00  0.00    +0.000 N 
ATOM     49  H   UNL     1      -6.287   2.125 125.418  0.00  0.00    +0.000 HD
BRANCH  48  50
ATOM     50  C   UNL     1      -8.241   2.153 124.532  0.00  0.00    +0.000 C 
BRANCH  50  51
ATOM     51  C   UNL     1      -8.991   0.858 124.977  0.00  0.00    +0.000 C 
ATOM     52  O   UNL     1     -10.207   0.899 125.172  0.00  0.00    +0.000 OA
ATOM     53  N   UNL     1      -8.265  -0.309 125.138  0.00  0.00    +0.000 N 
ATOM     54  H   UNL     1      -7.273  -0.331 124.981  0.00  0.00    +0.000 HD
BRANCH  53  55
ATOM     55  C   UNL     1      -8.895  -1.569 125.543  0.00  0.00    +0.000 C 
BRANCH  55  56
ATOM     56  C   UNL     1      -9.010  -2.615 124.414  0.00  0.00    +0.000 C 
ATOM     57  N   UNL     1      -8.236  -3.752 124.513  0.00  0.00    +0.000 N 
ATOM     58  O   UNL     1      -9.764  -2.446 123.458  0.00  0.00    +0.000 OA
ATOM     59  H   UNL     1      -7.598  -3.968 125.258  0.00  0.00    +0.000 HD
ATOM     60  H   UNL     1      -8.284  -4.463 123.791  0.00  0.00    +0.000 HD
ENDBRANCH  55  56
ENDBRANCH  53  55
ENDBRANCH  50  51
BRANCH  50  61
ATOM     61  C   UNL     1      -7.675   1.928 123.113  0.00  0.00    +0.000 C 
BRANCH  61  62
ATOM     62  C   UNL     1      -7.445   3.217 122.343  0.00  0.00    +0.000 C 
ATOM     63  C   UNL     1      -6.268   3.115 121.455  0.00  0.00    +0.000 C 
ATOM     64  C   UNL     1      -8.410   3.462 121.252  0.00  0.00    +0.000 C 
ENDBRANCH  61  62
ENDBRANCH  50  61
ENDBRANCH  48  50
ENDBRANCH  45  46
ENDBRANCH  22  39
BRANCH   1  65
ATOM     65  C   UNL     1      -5.410   5.667 138.413  0.00  0.00    +0.000 C 
ATOM     66  C   UNL     1      -6.203   4.042 139.225  0.00  0.00    +0.000 C 
BRANCH  65  68
ATOM     67  C   UNL     1      -7.719   6.825 138.373  0.00  0.00    +0.000 C 
ATOM     68  C   UNL     1      -6.750   5.745 139.708  0.00  0.00    +0.000 C 
ENDBRANCH  65  68
ENDBRANCH   1  65
BRANCH  26  69
ATOM     69  C   UNL     1      -3.340   5.587 133.885  0.00  0.00    +0.000 C 
BRANCH  69  70
ATOM     70  C   UNL     1      -2.929   4.284 133.319  0.00  0.00    +0.000 C 
ATOM     71  N   UNL     1      -2.797   4.060 131.946  0.00  0.00    +0.000 N 
ATOM     72  O   UNL     1      -2.640   3.528 134.224  0.00  0.00    +0.000 OA
ATOM     73  H   UNL     1      -2.912   4.766 131.257  0.00  0.00    +0.000 HD
ATOM     74  H   UNL     1      -2.687   3.220 131.413  0.00  0.00    +0.000 HD
ENDBRANCH  69  70
ENDBRANCH  26  69
BRANCH   5  75
ATOM     75  C   UNL     1      -0.751  14.339 135.856  0.00  0.00    +0.000 C 
BRANCH  75  76
ATOM     76  C   UNL     1      -1.766  14.965 135.017  0.00  0.00    +0.000 A 
ATOM     77  C   UNL     1      -2.124  14.188 133.928  0.00  0.00    +0.000 A 
ATOM     78  C   UNL     1      -2.687  14.736 132.811  0.00  0.00    +0.000 A 
ATOM     79  C   UNL     1      -3.162  16.012 132.889  0.00  0.00    +0.000 A 
ATOM     80  C   UNL     1      -3.023  16.716 134.086  0.00  0.00    +0.000 A 
ATOM     81  C   UNL     1      -2.209  16.254 135.122  0.00  0.00    +0.000 A 
BRANCH  79  82
ATOM     82  O   UNL     1      -3.763  16.604 131.819  0.00  0.00    +0.000 OA
ATOM     83  H   UNL     1      -3.173  17.210 131.332  0.00  0.00    +0.000 HD
ENDBRANCH  79  82
ENDBRANCH  75  76
ENDBRANCH   5  75
BRANCH  30  84
ATOM     84  C   UNL     1      -5.259   2.775 136.300  0.00  0.00    +0.000 C 
BRANCH  84  85
ATOM     85  C   UNL     1      -4.464   1.474 136.562  0.00  0.00    +0.000 C 
BRANCH  85  86
ATOM     86  C   UNL     1      -5.166   0.230 136.104  0.00  0.00    +0.000 C 
ATOM     87  N   UNL     1      -4.817  -0.955 136.698  0.00  0.00    +0.000 N 
ATOM     88  O   UNL     1      -6.013   0.288 135.218  0.00  0.00    +0.000 OA
ATOM     89  H   UNL     1      -4.104  -1.057 137.409  0.00  0.00    +0.000 HD
ATOM     90  H   UNL     1      -5.301  -1.803 136.445  0.00  0.00    +0.000 HD
ENDBRANCH  85  86
ENDBRANCH  84  85
ENDBRANCH  30  84
TORSDOF 18
ENDMDL
MODEL 3
REMARK VINA RESULT:      -9.6      1.584      2.605
REMARK  Name = CHEMBL4129142
REMARK  22 active torsions:
REMARK  status: ('A' for Active; 'I' for Inactive)
REMARK    1  A    between atoms: C_1  and  C_2
REMARK    2  A    between atoms: C_2  and  C_3
REMARK    3  A    between atoms: C_3  and  C_4
REMARK    4  A    between atoms: C_3  and  C_5
REMARK    5  A    between atoms: C_9  and  C_10
REMARK    6  A    between atoms: C_10  and  C_11
REMARK    7  A    between atoms: C_14  and  O_15
REMARK    8  A    between atoms: C_34  and  C_35
REMARK    9  A    between atoms: C_41  and  C_42
REMARK   10  A    between atoms: N_44  and  C_45
REMARK   11  A    between atoms: C_45  and  C_46
REMARK   12  A    between atoms: C_45  and  C_50
REMARK   13  A    between atoms: C_46  and  C_47
REMARK   14  A    between atoms: C_47  and  C_48
REMARK   15  A    between atoms: C_47  and  C_49
REMARK   16  A    between atoms: N_52  and  C_53
REMARK   17  A    between atoms: C_53  and  C_54
REMARK   18  A    between atoms: C_60  and  C_61
REMARK   19  A    between atoms: C_61  and  C_62
REMARK   20  A    between atoms: C_68  and  C_69
REMARK   21  A    between atoms: C_69  and  C_70
REMARK   22  A    between atoms: C_70  and  C_71
REMARK                            x       y       z     vdW  Elec       q    Type
REMARK                         _______ _______ _______ _____ _____    ______ ____
ROOT
ATOM      1  C   UNL     1      -4.703  -0.329 131.048  0.00  0.00    +0.000 C 
ATOM      2  N   UNL     1      -5.074   0.017 128.763  0.00  0.00    +0.000 N 
ATOM      3  C   UNL     1      -5.836   0.110 126.906  0.00  0.00    +0.000 C 
ATOM      4  O   UNL     1      -6.688  -0.829 126.630  0.00  0.00    +0.000 OA
ATOM      5  C   UNL     1      -6.338   0.664 124.721  0.00  0.00    +0.000 C 
ATOM      6  N   UNL     1      -7.574  -0.210 123.472  0.00  0.00    +0.000 N 
ATOM      7  C   UNL     1      -8.937  -0.588 123.785  0.00  0.00    +0.000 C 
ATOM      8  O   UNL     1      -9.681  -1.358 123.157  0.00  0.00    +0.000 OA
ATOM      9  C   UNL     1      -9.354  -0.105 125.146  0.00  0.00    +0.000 C 
ATOM     10  C   UNL     1      -8.536   0.891 125.820  0.00  0.00    +0.000 C 
ATOM     11  S   UNL     1      -8.754   1.533 127.353  0.00  0.00    +0.000 S 
ATOM     12  C   UNL     1      -7.364   2.729 127.649  0.00  0.00    +0.000 C 
ATOM     13  C   UNL     1      -7.719   3.369 128.955  0.00  0.00    +0.000 A 
ATOM     14  C   UNL     1      -8.735   2.893 129.774  0.00  0.00    +0.000 A 
ATOM     15  C   UNL     1      -9.072   3.496 130.990  0.00  0.00    +0.000 A 
ATOM     16  C   UNL     1      -8.500   4.735 131.366  0.00  0.00    +0.000 A 
ATOM     17  C   UNL     1      -7.510   5.321 130.546  0.00  0.00    +0.000 A 
ATOM     18  C   UNL     1      -7.173   4.596 129.342  0.00  0.00    +0.000 A 
ATOM     19  C   UNL     1      -6.646   6.473 131.114  0.00  0.00    +0.000 C 
ATOM     20  S   UNL     1      -5.037   6.345 131.718  0.00  0.00    +0.000 S 
ATOM     21  C   UNL     1      -4.058   7.435 132.586  0.00  0.00    +0.000 C 
ATOM     22  C   UNL     1      -2.728   6.952 133.132  0.00  0.00    +0.000 C 
ATOM     23  N   UNL     1      -2.941   6.030 134.266  0.00  0.00    +0.000 N 
ATOM     24  C   UNL     1      -3.548   4.824 134.216  0.00  0.00    +0.000 C 
ATOM     25  O   UNL     1      -3.702   4.210 135.260  0.00  0.00    +0.000 OA
ATOM     26  C   UNL     1      -3.970   4.281 132.884  0.00  0.00    +0.000 C 
ATOM     27  N   UNL     1      -3.347   3.213 132.323  0.00  0.00    +0.000 N 
ATOM     28  C   UNL     1      -4.083   2.160 132.625  0.00  0.00    +0.000 C 
ATOM     29  O   UNL     1      -3.882   1.129 132.023  0.00  0.00    +0.000 OA
ATOM     30  C   UNL     1      -4.709   2.032 134.399  0.00  0.00    +0.000 C 
ATOM     31  N   UNL     1      -5.747   0.920 134.016  0.00  0.00    +0.000 N 
ATOM     32  C   UNL     1      -5.684  -0.243 132.833  0.00  0.00    +0.000 C 
ATOM     33  O   UNL     1      -6.101  -1.230 133.557  0.00  0.00    +0.000 OA
ATOM     34  H   UNL     1      -4.328  -0.103 127.834  0.00  0.00    +0.000 HD
ATOM     35  H   UNL     1      -7.580  -0.335 122.322  0.00  0.00    +0.000 HD
ATOM     36  H   UNL     1      -2.649   6.333 135.198  0.00  0.00    +0.000 HD
ATOM     37  H   UNL     1      -2.756   3.183 131.495  0.00  0.00    +0.000 HD
ATOM     38  H   UNL     1      -6.652   1.232 134.319  0.00  0.00    +0.000 HD
ENDROOT
BRANCH  22  39
ATOM     39  C   UNL     1      -1.960   8.214 133.560  0.00  0.00    +0.000 C 
ATOM     40  O   UNL     1      -1.069   8.509 132.766  0.00  0.00    +0.000 OA
ATOM     41  N   UNL     1      -2.405   8.937 134.698  0.00  0.00    +0.000 N 
ATOM     42  C   UNL     1      -2.749   8.374 135.985  0.00  0.00    +0.000 C 
ATOM     43  C   UNL     1      -3.829   9.282 136.495  0.00  0.00    +0.000 C 
ATOM     44  C   UNL     1      -3.270  10.642 136.189  0.00  0.00    +0.000 C 
ATOM     45  C   UNL     1      -2.423  10.435 134.938  0.00  0.00    +0.000 C 
BRANCH  45  46
ATOM     46  C   UNL     1      -1.101  10.998 135.555  0.00  0.00    +0.000 C 
ATOM     47  O   UNL     1      -1.081  11.190 136.783  0.00  0.00    +0.000 OA
ATOM     48  N   UNL     1       0.086  10.858 134.756  0.00  0.00    +0.000 N 
ATOM     49  H   UNL     1       0.064  10.777 133.740  0.00  0.00    +0.000 HD
BRANCH  48  50
ATOM     50  C   UNL     1       1.467  10.801 135.363  0.00  0.00    +0.000 C 
BRANCH  50  51
ATOM     51  C   UNL     1       1.580   9.584 136.336  0.00  0.00    +0.000 C 
ATOM     52  O   UNL     1       1.896   9.775 137.512  0.00  0.00    +0.000 OA
ATOM     53  N   UNL     1       1.318   8.316 135.848  0.00  0.00    +0.000 N 
ATOM     54  H   UNL     1       1.066   8.170 134.886  0.00  0.00    +0.000 HD
BRANCH  53  55
ATOM     55  C   UNL     1       1.393   7.124 136.698  0.00  0.00    +0.000 C 
BRANCH  55  56
ATOM     56  C   UNL     1       2.830   6.672 137.035  0.00  0.00    +0.000 C 
ATOM     57  N   UNL     1       3.345   7.037 138.261  0.00  0.00    +0.000 N 
ATOM     58  O   UNL     1       3.496   6.010 136.243  0.00  0.00    +0.000 OA
ATOM     59  H   UNL     1       2.870   7.574 138.964  0.00  0.00    +0.000 HD
ATOM     60  H   UNL     1       4.286   6.758 138.519  0.00  0.00    +0.000 HD
ENDBRANCH  55  56
ENDBRANCH  53  55
ENDBRANCH  50  51
BRANCH  50  61
ATOM     61  C   UNL     1       1.882  12.078 136.126  0.00  0.00    +0.000 C 
BRANCH  61  62
ATOM     62  C   UNL     1       2.699  13.044 135.287  0.00  0.00    +0.000 C 
ATOM     63  C   UNL     1       3.641  12.328 134.401  0.00  0.00    +0.000 C 
ATOM     64  C   UNL     1       1.952  13.688 134.188  0.00  0.00    +0.000 C 
ENDBRANCH  61  62
ENDBRANCH  50  61
ENDBRANCH  48  50
ENDBRANCH  45  46
ENDBRANCH  22  39
BRANCH   1  65
ATOM     65  C   UNL     1      -3.494  -0.481 132.890  0.00  0.00    +0.000 C 
ATOM     66  C   UNL     1      -2.834  -1.301 134.569  0.00  0.00    +0.000 C 
BRANCH  65  68
ATOM     67  C   UNL     1      -3.483  -2.839 131.834  0.00  0.00    +0.000 C 
ATOM     68  C   UNL     1      -2.188  -1.813 132.910  0.00  0.00    +0.000 C 
ENDBRANCH  65  68
ENDBRANCH   1  65
BRANCH  26  69
ATOM     69  C   UNL     1      -5.482   4.085 132.832  0.00  0.00    +0.000 C 
BRANCH  69  70
ATOM     70  C   UNL     1      -5.958   4.564 134.147  0.00  0.00    +0.000 C 
ATOM     71  N   UNL     1      -5.871   5.901 134.544  0.00  0.00    +0.000 N 
ATOM     72  O   UNL     1      -6.506   3.652 134.731  0.00  0.00    +0.000 OA
ATOM     73  H   UNL     1      -5.538   6.631 133.959  0.00  0.00    +0.000 HD
ATOM     74  H   UNL     1      -5.997   6.344 135.433  0.00  0.00    +0.000 HD
ENDBRANCH  69  70
ENDBRANCH  26  69
BRANCH   5  75
ATOM     75  C   UNL     1      -7.508   2.153 123.923  0.00  0.00    +0.000 C 
BRANCH  75  76
ATOM     76  C   UNL     1      -6.469   2.841 123.166  0.00  0.00    +0.000 A 
ATOM     77  C   UNL     1      -5.743   3.737 123.931  0.00  0.00    +0.000 A 
ATOM     78  C   UNL     1      -5.061   4.776 123.365  0.00  0.00    +0.000 A 
ATOM     79  C   UNL     1      -4.861   4.755 122.016  0.00  0.00    +0.000 A 
ATOM     80  C   UNL     1      -5.389   3.701 121.268  0.00  0.00    +0.000 A 
ATOM     81  C   UNL     1      -6.308   2.802 121.809  0.00  0.00    +0.000 A 
BRANCH  79  82
ATOM     82  O   UNL     1      -4.162   5.746 121.394  0.00  0.00    +0.000 OA
ATOM     83  H   UNL     1      -4.000   5.569 120.448  0.00  0.00    +0.000 HD
ENDBRANCH  79  82
ENDBRANCH  75  76
ENDBRANCH   5  75
BRANCH  30  84
ATOM     84  C   UNL     1      -3.801   1.637 135.766  0.00  0.00    +0.000 C 
BRANCH  84  85
ATOM     85  C   UNL     1      -4.680   1.472 137.028  0.00  0.00    +0.000 C 
BRANCH  85  86
ATOM     86  C   UNL     1      -4.565   2.607 138.002  0.00  0.00    +0.000 C 
ATOM     87  N   UNL     1      -5.242   3.764 137.717  0.00  0.00    +0.000 N 
ATOM     88  O   UNL     1      -3.872   2.490 139.009  0.00  0.00    +0.000 OA
ATOM     89  H   UNL     1      -5.798   3.917 136.886  0.00  0.00    +0.000 HD
ATOM     90  H   UNL     1      -5.220   4.530 138.373  0.00  0.00    +0.000 HD
ENDBRANCH  85  86
ENDBRANCH  84  85
ENDBRANCH  30  84
TORSDOF 18
ENDMDL
MODEL 4
REMARK VINA RESULT:      -9.6      1.577      1.880
REMARK  Name = CHEMBL4129142
REMARK  22 active torsions:
REMARK  status: ('A' for Active; 'I' for Inactive)
REMARK    1  A    between atoms: C_1  and  C_2
REMARK    2  A    between atoms: C_2  and  C_3
REMARK    3  A    between atoms: C_3  and  C_4
REMARK    4  A    between atoms: C_3  and  C_5
REMARK    5  A    between atoms: C_9  and  C_10
REMARK    6  A    between atoms: C_10  and  C_11
REMARK    7  A    between atoms: C_14  and  O_15
REMARK    8  A    between atoms: C_34  and  C_35
REMARK    9  A    between atoms: C_41  and  C_42
REMARK   10  A    between atoms: N_44  and  C_45
REMARK   11  A    between atoms: C_45  and  C_46
REMARK   12  A    between atoms: C_45  and  C_50
REMARK   13  A    between atoms: C_46  and  C_47
REMARK   14  A    between atoms: C_47  and  C_48
REMARK   15  A    between atoms: C_47  and  C_49
REMARK   16  A    between atoms: N_52  and  C_53
REMARK   17  A    between atoms: C_53  and  C_54
REMARK   18  A    between atoms: C_60  and  C_61
REMARK   19  A    between atoms: C_61  and  C_62
REMARK   20  A    between atoms: C_68  and  C_69
REMARK   21  A    between atoms: C_69  and  C_70
REMARK   22  A    between atoms: C_70  and  C_71
REMARK                            x       y       z     vdW  Elec       q    Type
REMARK                         _______ _______ _______ _____ _____    ______ ____
ROOT
ATOM      1  C   UNL     1      -5.340  -0.868 130.490  0.00  0.00    +0.000 C 
ATOM      2  N   UNL     1      -5.631  -0.271 128.246  0.00  0.00    +0.000 N 
ATOM      3  C   UNL     1      -6.351   0.101 126.407  0.00  0.00    +0.000 C 
ATOM      4  O   UNL     1      -7.336  -0.665 126.055  0.00  0.00    +0.000 OA
ATOM      5  C   UNL     1      -6.739   0.915 124.281  0.00  0.00    +0.000 C 
ATOM      6  N   UNL     1      -8.084   0.358 122.966  0.00  0.00    +0.000 N 
ATOM      7  C   UNL     1      -9.493   0.172 123.251  0.00  0.00    +0.000 C 
ATOM      8  O   UNL     1     -10.342  -0.414 122.561  0.00  0.00    +0.000 OA
ATOM      9  C   UNL     1      -9.842   0.595 124.650  0.00  0.00    +0.000 C 
ATOM     10  C   UNL     1      -8.885   1.388 125.406  0.00  0.00    +0.000 C 
ATOM     11  S   UNL     1      -9.014   1.920 126.989  0.00  0.00    +0.000 S 
ATOM     12  C   UNL     1      -7.457   2.853 127.383  0.00  0.00    +0.000 C 
ATOM     13  C   UNL     1      -7.719   3.425 128.741  0.00  0.00    +0.000 A 
ATOM     14  C   UNL     1      -8.805   3.046 129.520  0.00  0.00    +0.000 A 
ATOM     15  C   UNL     1      -9.055   3.586 130.785  0.00  0.00    +0.000 A 
ATOM     16  C   UNL     1      -8.299   4.682 131.265  0.00  0.00    +0.000 A 
ATOM     17  C   UNL     1      -7.222   5.175 130.495  0.00  0.00    +0.000 A 
ATOM     18  C   UNL     1      -6.991   4.513 129.231  0.00  0.00    +0.000 A 
ATOM     19  C   UNL     1      -6.194   6.123 131.158  0.00  0.00    +0.000 C 
ATOM     20  S   UNL     1      -4.630   5.692 131.742  0.00  0.00    +0.000 S 
ATOM     21  C   UNL     1      -3.501   6.535 132.697  0.00  0.00    +0.000 C 
ATOM     22  C   UNL     1      -2.268   5.805 133.193  0.00  0.00    +0.000 C 
ATOM     23  N   UNL     1      -2.633   4.832 134.244  0.00  0.00    +0.000 N 
ATOM     24  C   UNL     1      -3.422   3.745 134.091  0.00  0.00    +0.000 C 
ATOM     25  O   UNL     1      -3.680   3.075 135.078  0.00  0.00    +0.000 OA
ATOM     26  C   UNL     1      -3.911   3.393 132.719  0.00  0.00    +0.000 C 
ATOM     27  N   UNL     1      -3.458   2.293 132.064  0.00  0.00    +0.000 N 
ATOM     28  C   UNL     1      -4.352   1.347 132.276  0.00  0.00    +0.000 C 
ATOM     29  O   UNL     1      -4.310   0.353 131.586  0.00  0.00    +0.000 OA
ATOM     30  C   UNL     1      -5.007   1.165 134.035  0.00  0.00    +0.000 C 
ATOM     31  N   UNL     1      -6.203   0.267 133.561  0.00  0.00    +0.000 N 
ATOM     32  C   UNL     1      -6.312  -0.784 132.281  0.00  0.00    +0.000 C 
ATOM     33  O   UNL     1      -6.885  -1.752 132.918  0.00  0.00    +0.000 OA
ATOM     34  H   UNL     1      -4.904  -0.426 127.308  0.00  0.00    +0.000 HD
ATOM     35  H   UNL     1      -8.099   0.335 121.810  0.00  0.00    +0.000 HD
ATOM     36  H   UNL     1      -2.307   5.003 135.197  0.00  0.00    +0.000 HD
ATOM     37  H   UNL     1      -2.871   2.243 131.234  0.00  0.00    +0.000 HD
ATOM     38  H   UNL     1      -7.051   0.690 133.894  0.00  0.00    +0.000 HD
ENDROOT
BRANCH  22  39
ATOM     39  C   UNL     1      -1.316   6.888 133.726  0.00  0.00    +0.000 C 
ATOM     40  O   UNL     1      -0.217   6.856 133.176  0.00  0.00    +0.000 OA
ATOM     41  N   UNL     1      -1.809   7.837 134.661  0.00  0.00    +0.000 N 
ATOM     42  C   UNL     1      -2.584   7.544 135.846  0.00  0.00    +0.000 C 
ATOM     43  C   UNL     1      -3.472   8.743 135.998  0.00  0.00    +0.000 C 
ATOM     44  C   UNL     1      -2.516   9.877 135.764  0.00  0.00    +0.000 C 
ATOM     45  C   UNL     1      -1.483   9.314 134.793  0.00  0.00    +0.000 C 
BRANCH  45  46
ATOM     46  C   UNL     1      -0.244   9.615 135.697  0.00  0.00    +0.000 C 
ATOM     47  O   UNL     1       0.676   8.780 135.699  0.00  0.00    +0.000 OA
ATOM     48  N   UNL     1      -0.076  10.980 136.114  0.00  0.00    +0.000 N 
ATOM     49  H   UNL     1      -0.850  11.639 136.182  0.00  0.00    +0.000 HD
BRANCH  48  50
ATOM     50  C   UNL     1       1.274  11.556 136.470  0.00  0.00    +0.000 C 
BRANCH  50  51
ATOM     51  C   UNL     1       1.102  12.896 137.252  0.00  0.00    +0.000 C 
ATOM     52  O   UNL     1       0.153  13.636 136.985  0.00  0.00    +0.000 OA
ATOM     53  N   UNL     1       2.025  13.219 138.231  0.00  0.00    +0.000 N 
ATOM     54  H   UNL     1       2.799  12.612 138.438  0.00  0.00    +0.000 HD
BRANCH  53  55
ATOM     55  C   UNL     1       1.929  14.453 139.016  0.00  0.00    +0.000 C 
BRANCH  55  56
ATOM     56  C   UNL     1       2.592  15.681 138.354  0.00  0.00    +0.000 C 
ATOM     57  N   UNL     1       1.886  16.335 137.367  0.00  0.00    +0.000 N 
ATOM     58  O   UNL     1       3.708  16.066 138.693  0.00  0.00    +0.000 OA
ATOM     59  H   UNL     1       0.972  16.088 137.033  0.00  0.00    +0.000 HD
ATOM     60  H   UNL     1       2.288  17.147 136.909  0.00  0.00    +0.000 HD
ENDBRANCH  55  56
ENDBRANCH  53  55
ENDBRANCH  50  51
BRANCH  50  61
ATOM     61  C   UNL     1       2.199  11.810 135.259  0.00  0.00    +0.000 C 
BRANCH  61  62
ATOM     62  C   UNL     1       1.463  12.328 134.036  0.00  0.00    +0.000 C 
ATOM     63  C   UNL     1       2.082  13.565 133.516  0.00  0.00    +0.000 C 
ATOM     64  C   UNL     1       1.687  11.544 132.805  0.00  0.00    +0.000 C 
ENDBRANCH  61  62
ENDBRANCH  50  61
ENDBRANCH  48  50
ENDBRANCH  45  46
ENDBRANCH  22  39
BRANCH   1  65
ATOM     65  C   UNL     1      -4.187  -1.367 132.308  0.00  0.00    +0.000 C 
ATOM     66  C   UNL     1      -3.736  -2.370 133.956  0.00  0.00    +0.000 C 
BRANCH  65  68
ATOM     67  C   UNL     1      -2.922  -2.540 130.384  0.00  0.00    +0.000 C 
ATOM     68  C   UNL     1      -3.259  -2.985 132.274  0.00  0.00    +0.000 C 
ENDBRANCH  65  68
ENDBRANCH   1  65
BRANCH  26  69
ATOM     69  C   UNL     1      -5.434   3.442 132.656  0.00  0.00    +0.000 C 
BRANCH  69  70
ATOM     70  C   UNL     1      -5.840   3.908 133.999  0.00  0.00    +0.000 C 
ATOM     71  N   UNL     1      -5.533   5.180 134.486  0.00  0.00    +0.000 N 
ATOM     72  O   UNL     1      -6.543   3.065 134.519  0.00  0.00    +0.000 OA
ATOM     73  H   UNL     1      -5.072   5.880 133.952  0.00  0.00    +0.000 HD
ATOM     74  H   UNL     1      -5.594   5.579 135.402  0.00  0.00    +0.000 HD
ENDBRANCH  69  70
ENDBRANCH  26  69
BRANCH   5  75
ATOM     75  C   UNL     1      -7.653   2.632 123.622  0.00  0.00    +0.000 C 
BRANCH  75  76
ATOM     76  C   UNL     1      -6.520   3.199 122.899  0.00  0.00    +0.000 A 
ATOM     77  C   UNL     1      -5.714   3.995 123.695  0.00  0.00    +0.000 A 
ATOM     78  C   UNL     1      -4.899   4.951 123.158  0.00  0.00    +0.000 A 
ATOM     79  C   UNL     1      -4.666   4.918 121.815  0.00  0.00    +0.000 A 
ATOM     80  C   UNL     1      -5.294   3.941 121.041  0.00  0.00    +0.000 A 
ATOM     81  C   UNL     1      -6.328   3.153 121.547  0.00  0.00    +0.000 A 
BRANCH  79  82
ATOM     82  O   UNL     1      -3.838   5.825 121.224  0.00  0.00    +0.000 OA
ATOM     83  H   UNL     1      -2.894   5.659 121.403  0.00  0.00    +0.000 HD
ENDBRANCH  79  82
ENDBRANCH  75  76
ENDBRANCH   5  75
BRANCH  30  84
ATOM     84  C   UNL     1      -4.186   0.515 135.358  0.00  0.00    +0.000 C 
BRANCH  84  85
ATOM     85  C   UNL     1      -5.092   0.378 136.604  0.00  0.00    +0.000 C 
BRANCH  85  86
ATOM     86  C   UNL     1      -5.658  -0.998 136.796  0.00  0.00    +0.000 C 
ATOM     87  N   UNL     1      -4.982  -1.856 137.623  0.00  0.00    +0.000 N 
ATOM     88  O   UNL     1      -6.686  -1.330 136.214  0.00  0.00    +0.000 OA
ATOM     89  H   UNL     1      -4.116  -1.638 138.099  0.00  0.00    +0.000 HD
ATOM     90  H   UNL     1      -5.360  -2.773 137.808  0.00  0.00    +0.000 HD
ENDBRANCH  85  86
ENDBRANCH  84  85
ENDBRANCH  30  84
TORSDOF 18
ENDMDL
MODEL 5
REMARK VINA RESULT:      -9.4      1.391      2.190
REMARK  Name = CHEMBL4129142
REMARK  22 active torsions:
REMARK  status: ('A' for Active; 'I' for Inactive)
REMARK    1  A    between atoms: C_1  and  C_2
REMARK    2  A    between atoms: C_2  and  C_3
REMARK    3  A    between atoms: C_3  and  C_4
REMARK    4  A    between atoms: C_3  and  C_5
REMARK    5  A    between atoms: C_9  and  C_10
REMARK    6  A    between atoms: C_10  and  C_11
REMARK    7  A    between atoms: C_14  and  O_15
REMARK    8  A    between atoms: C_34  and  C_35
REMARK    9  A    between atoms: C_41  and  C_42
REMARK   10  A    between atoms: N_44  and  C_45
REMARK   11  A    between atoms: C_45  and  C_46
REMARK   12  A    between atoms: C_45  and  C_50
REMARK   13  A    between atoms: C_46  and  C_47
REMARK   14  A    between atoms: C_47  and  C_48
REMARK   15  A    between atoms: C_47  and  C_49
REMARK   16  A    between atoms: N_52  and  C_53
REMARK   17  A    between atoms: C_53  and  C_54
REMARK   18  A    between atoms: C_60  and  C_61
REMARK   19  A    between atoms: C_61  and  C_62
REMARK   20  A    between atoms: C_68  and  C_69
REMARK   21  A    between atoms: C_69  and  C_70
REMARK   22  A    between atoms: C_70  and  C_71
REMARK                            x       y       z     vdW  Elec       q    Type
REMARK                         _______ _______ _______ _____ _____    ______ ____
ROOT
ATOM      1  C   UNL     1      -4.792  -0.449 130.773  0.00  0.00    +0.000 C 
ATOM      2  N   UNL     1      -5.146  -0.129 128.481  0.00  0.00    +0.000 N 
ATOM      3  C   UNL     1      -5.890  -0.061 126.616  0.00  0.00    +0.000 C 
ATOM      4  O   UNL     1      -6.729  -1.011 126.342  0.00  0.00    +0.000 OA
ATOM      5  C   UNL     1      -6.377   0.467 124.421  0.00  0.00    +0.000 C 
ATOM      6  N   UNL     1      -7.592  -0.431 123.169  0.00  0.00    +0.000 N 
ATOM      7  C   UNL     1      -8.954  -0.820 123.473  0.00  0.00    +0.000 C 
ATOM      8  O   UNL     1      -9.684  -1.604 122.845  0.00  0.00    +0.000 OA
ATOM      9  C   UNL     1      -9.389  -0.329 124.825  0.00  0.00    +0.000 C 
ATOM     10  C   UNL     1      -8.588   0.682 125.498  0.00  0.00    +0.000 C 
ATOM     11  S   UNL     1      -8.828   1.335 127.022  0.00  0.00    +0.000 S 
ATOM     12  C   UNL     1      -7.453   2.548 127.321  0.00  0.00    +0.000 C 
ATOM     13  C   UNL     1      -7.827   3.197 128.617  0.00  0.00    +0.000 A 
ATOM     14  C   UNL     1      -8.846   2.718 129.430  0.00  0.00    +0.000 A 
ATOM     15  C   UNL     1      -9.201   3.329 130.637  0.00  0.00    +0.000 A 
ATOM     16  C   UNL     1      -8.645   4.577 131.007  0.00  0.00    +0.000 A 
ATOM     17  C   UNL     1      -7.654   5.166 130.191  0.00  0.00    +0.000 A 
ATOM     18  C   UNL     1      -7.297   4.433 128.997  0.00  0.00    +0.000 A 
ATOM     19  C   UNL     1      -6.807   6.332 130.756  0.00  0.00    +0.000 C 
ATOM     20  S   UNL     1      -5.202   6.227 131.377  0.00  0.00    +0.000 S 
ATOM     21  C   UNL     1      -4.243   7.335 132.244  0.00  0.00    +0.000 C 
ATOM     22  C   UNL     1      -2.913   6.872 132.807  0.00  0.00    +0.000 C 
ATOM     23  N   UNL     1      -3.127   5.957 133.948  0.00  0.00    +0.000 N 
ATOM     24  C   UNL     1      -3.722   4.745 133.903  0.00  0.00    +0.000 C 
ATOM     25  O   UNL     1      -3.879   4.139 134.951  0.00  0.00    +0.000 OA
ATOM     26  C   UNL     1      -4.125   4.185 132.573  0.00  0.00    +0.000 C 
ATOM     27  N   UNL     1      -3.486   3.119 132.027  0.00  0.00    +0.000 N 
ATOM     28  C   UNL     1      -4.213   2.061 132.332  0.00  0.00    +0.000 C 
ATOM     29  O   UNL     1      -3.996   1.026 131.742  0.00  0.00    +0.000 OA
ATOM     30  C   UNL     1      -4.855   1.943 134.102  0.00  0.00    +0.000 C 
ATOM     31  N   UNL     1      -5.877   0.816 133.719  0.00  0.00    +0.000 N 
ATOM     32  C   UNL     1      -5.791  -0.356 132.548  0.00  0.00    +0.000 C 
ATOM     33  O   UNL     1      -6.205  -1.341 133.277  0.00  0.00    +0.000 OA
ATOM     34  H   UNL     1      -4.389  -0.250 127.561  0.00  0.00    +0.000 HD
ATOM     35  H   UNL     1      -7.585  -0.567 122.021  0.00  0.00    +0.000 HD
ATOM     36  H   UNL     1      -2.848   6.272 134.879  0.00  0.00    +0.000 HD
ATOM     37  H   UNL     1      -2.887   3.087 131.205  0.00  0.00    +0.000 HD
ATOM     38  H   UNL     1      -6.789   1.122 134.011  0.00  0.00    +0.000 HD
ENDROOT
BRANCH  22  39
ATOM     39  C   UNL     1      -2.163   8.145 133.230  0.00  0.00    +0.000 C 
ATOM     40  O   UNL     1      -2.422   9.103 132.504  0.00  0.00    +0.000 OA
ATOM     41  N   UNL     1      -1.383   8.121 134.417  0.00  0.00    +0.000 N 
ATOM     42  C   UNL     1      -0.427   7.102 134.789  0.00  0.00    +0.000 C 
ATOM     43  C   UNL     1      -0.506   7.070 136.287  0.00  0.00    +0.000 C 
ATOM     44  C   UNL     1      -0.497   8.530 136.636  0.00  0.00    +0.000 C 
ATOM     45  C   UNL     1      -1.178   9.211 135.454  0.00  0.00    +0.000 C 
BRANCH  45  46
ATOM     46  C   UNL     1       0.005  10.181 135.134  0.00  0.00    +0.000 C 
ATOM     47  O   UNL     1       0.105  10.593 133.966  0.00  0.00    +0.000 OA
ATOM     48  N   UNL     1       0.616  10.835 136.259  0.00  0.00    +0.000 N 
ATOM     49  H   UNL     1       0.594  10.450 137.202  0.00  0.00    +0.000 HD
BRANCH  48  50
ATOM     50  C   UNL     1       1.328  12.161 136.134  0.00  0.00    +0.000 C 
BRANCH  50  51
ATOM     51  C   UNL     1       0.467  13.160 135.300  0.00  0.00    +0.000 C 
ATOM     52  O   UNL     1       1.021  13.918 134.501  0.00  0.00    +0.000 OA
ATOM     53  N   UNL     1      -0.906  13.166 135.478  0.00  0.00    +0.000 N 
ATOM     54  H   UNL     1      -1.348  12.547 136.135  0.00  0.00    +0.000 HD
BRANCH  53  55
ATOM     55  C   UNL     1      -1.785  14.066 134.727  0.00  0.00    +0.000 C 
BRANCH  55  56
ATOM     56  C   UNL     1      -2.184  13.546 133.329  0.00  0.00    +0.000 C 
ATOM     57  N   UNL     1      -2.474  12.204 133.204  0.00  0.00    +0.000 N 
ATOM     58  O   UNL     1      -2.243  14.297 132.358  0.00  0.00    +0.000 OA
ATOM     59  H   UNL     1      -2.452  11.524 133.943  0.00  0.00    +0.000 HD
ATOM     60  H   UNL     1      -2.740  11.825 132.301  0.00  0.00    +0.000 HD
ENDBRANCH  55  56
ENDBRANCH  53  55
ENDBRANCH  50  51
BRANCH  50  61
ATOM     61  C   UNL     1       2.732  12.074 135.497  0.00  0.00    +0.000 C 
BRANCH  61  62
ATOM     62  C   UNL     1       3.858  12.061 136.517  0.00  0.00    +0.000 C 
ATOM     63  C   UNL     1       3.433  12.659 137.800  0.00  0.00    +0.000 C 
ATOM     64  C   UNL     1       4.157  10.732 137.086  0.00  0.00    +0.000 C 
ENDBRANCH  61  62
ENDBRANCH  50  61
ENDBRANCH  48  50
ENDBRANCH  45  46
ENDBRANCH  22  39
BRANCH   1  65
ATOM     65  C   UNL     1      -3.600  -0.572 132.628  0.00  0.00    +0.000 C 
ATOM     66  C   UNL     1      -2.998  -1.333 134.355  0.00  0.00    +0.000 C 
BRANCH  65  68
ATOM     67  C   UNL     1      -3.422  -2.744 131.240  0.00  0.00    +0.000 C 
ATOM     68  C   UNL     1      -2.384  -1.983 132.733  0.00  0.00    +0.000 C 
ENDBRANCH  65  68
ENDBRANCH   1  65
BRANCH  26  69
ATOM     69  C   UNL     1      -5.634   3.973 132.507  0.00  0.00    +0.000 C 
BRANCH  69  70
ATOM     70  C   UNL     1      -6.129   4.467 133.810  0.00  0.00    +0.000 C 
ATOM     71  N   UNL     1      -6.046   5.807 134.194  0.00  0.00    +0.000 N 
ATOM     72  O   UNL     1      -6.686   3.561 134.396  0.00  0.00    +0.000 OA
ATOM     73  H   UNL     1      -5.703   6.531 133.606  0.00  0.00    +0.000 HD
ATOM     74  H   UNL     1      -6.184   6.260 135.077  0.00  0.00    +0.000 HD
ENDBRANCH  69  70
ENDBRANCH  26  69
BRANCH   5  75
ATOM     75  C   UNL     1      -7.555   1.936 123.599  0.00  0.00    +0.000 C 
BRANCH  75  76
ATOM     76  C   UNL     1      -6.498   2.698 122.945  0.00  0.00    +0.000 A 
ATOM     77  C   UNL     1      -5.887   3.612 123.787  0.00  0.00    +0.000 A 
ATOM     78  C   UNL     1      -5.221   4.701 123.301  0.00  0.00    +0.000 A 
ATOM     79  C   UNL     1      -4.911   4.725 121.973  0.00  0.00    +0.000 A 
ATOM     80  C   UNL     1      -5.316   3.665 121.162  0.00  0.00    +0.000 A 
ATOM     81  C   UNL     1      -6.225   2.703 121.606  0.00  0.00    +0.000 A 
BRANCH  79  82
ATOM     82  O   UNL     1      -4.220   5.768 121.433  0.00  0.00    +0.000 OA
ATOM     83  H   UNL     1      -3.439   5.489 120.920  0.00  0.00    +0.000 HD
ENDBRANCH  79  82
ENDBRANCH  75  76
ENDBRANCH   5  75
BRANCH  30  84
ATOM     84  C   UNL     1      -3.957   1.570 135.480  0.00  0.00    +0.000 C 
BRANCH  84  85
ATOM     85  C   UNL     1      -4.852   1.327 136.718  0.00  0.00    +0.000 C 
BRANCH  85  86
ATOM     86  C   UNL     1      -4.592   2.274 137.852  0.00  0.00    +0.000 C 
ATOM     87  N   UNL     1      -5.094   3.545 137.750  0.00  0.00    +0.000 N 
ATOM     88  O   UNL     1      -3.939   1.909 138.825  0.00  0.00    +0.000 OA
ATOM     89  H   UNL     1      -5.610   3.900 136.955  0.00  0.00    +0.000 HD
ATOM     90  H   UNL     1      -4.974   4.193 138.514  0.00  0.00    +0.000 HD
ENDBRANCH  85  86
ENDBRANCH  84  85
ENDBRANCH  30  84
TORSDOF 18
ENDMDL
MODEL 6
REMARK VINA RESULT:      -9.4      1.695      1.949
REMARK  Name = CHEMBL4129142
REMARK  22 active torsions:
REMARK  status: ('A' for Active; 'I' for Inactive)
REMARK    1  A    between atoms: C_1  and  C_2
REMARK    2  A    between atoms: C_2  and  C_3
REMARK    3  A    between atoms: C_3  and  C_4
REMARK    4  A    between atoms: C_3  and  C_5
REMARK    5  A    between atoms: C_9  and  C_10
REMARK    6  A    between atoms: C_10  and  C_11
REMARK    7  A    between atoms: C_14  and  O_15
REMARK    8  A    between atoms: C_34  and  C_35
REMARK    9  A    between atoms: C_41  and  C_42
REMARK   10  A    between atoms: N_44  and  C_45
REMARK   11  A    between atoms: C_45  and  C_46
REMARK   12  A    between atoms: C_45  and  C_50
REMARK   13  A    between atoms: C_46  and  C_47
REMARK   14  A    between atoms: C_47  and  C_48
REMARK   15  A    between atoms: C_47  and  C_49
REMARK   16  A    between atoms: N_52  and  C_53
REMARK   17  A    between atoms: C_53  and  C_54
REMARK   18  A    between atoms: C_60  and  C_61
REMARK   19  A    between atoms: C_61  and  C_62
REMARK   20  A    between atoms: C_68  and  C_69
REMARK   21  A    between atoms: C_69  and  C_70
REMARK   22  A    between atoms: C_70  and  C_71
REMARK                            x       y       z     vdW  Elec       q    Type
REMARK                         _______ _______ _______ _____ _____    ______ ____
ROOT
ATOM      1  C   UNL     1      -4.392  -0.313 133.027  0.00  0.00    +0.000 C 
ATOM      2  N   UNL     1      -4.508  -0.247 130.690  0.00  0.00    +0.000 N 
ATOM      3  C   UNL     1      -5.073  -0.351 128.764  0.00  0.00    +0.000 C 
ATOM      4  O   UNL     1      -5.961  -1.263 128.517  0.00  0.00    +0.000 OA
ATOM      5  C   UNL     1      -5.313  -0.057 126.487  0.00  0.00    +0.000 C 
ATOM      6  N   UNL     1      -6.481  -1.008 125.229  0.00  0.00    +0.000 N 
ATOM      7  C   UNL     1      -7.893  -1.258 125.438  0.00  0.00    +0.000 C 
ATOM      8  O   UNL     1      -8.626  -2.057 124.833  0.00  0.00    +0.000 OA
ATOM      9  C   UNL     1      -8.406  -0.577 126.676  0.00  0.00    +0.000 C 
ATOM     10  C   UNL     1      -7.586   0.447 127.306  0.00  0.00    +0.000 C 
ATOM     11  S   UNL     1      -7.907   1.295 128.715  0.00  0.00    +0.000 S 
ATOM     12  C   UNL     1      -6.468   2.432 129.010  0.00  0.00    +0.000 C 
ATOM     13  C   UNL     1      -6.902   3.258 130.181  0.00  0.00    +0.000 A 
ATOM     14  C   UNL     1      -8.027   2.956 130.938  0.00  0.00    +0.000 A 
ATOM     15  C   UNL     1      -8.437   3.732 132.026  0.00  0.00    +0.000 A 
ATOM     16  C   UNL     1      -7.814   4.972 132.306  0.00  0.00    +0.000 A 
ATOM     17  C   UNL     1      -6.707   5.384 131.532  0.00  0.00    +0.000 A 
ATOM     18  C   UNL     1      -6.306   4.488 130.470  0.00  0.00    +0.000 A 
ATOM     19  C   UNL     1      -5.820   6.545 132.043  0.00  0.00    +0.000 C 
ATOM     20  S   UNL     1      -4.292   6.399 132.829  0.00  0.00    +0.000 S 
ATOM     21  C   UNL     1      -3.326   7.530 133.656  0.00  0.00    +0.000 C 
ATOM     22  C   UNL     1      -2.096   7.043 134.397  0.00  0.00    +0.000 C 
ATOM     23  N   UNL     1      -2.488   6.291 135.607  0.00  0.00    +0.000 N 
ATOM     24  C   UNL     1      -3.176   5.128 135.641  0.00  0.00    +0.000 C 
ATOM     25  O   UNL     1      -3.478   4.666 136.730  0.00  0.00    +0.000 OA
ATOM     26  C   UNL     1      -3.503   4.443 134.349  0.00  0.00    +0.000 C 
ATOM     27  N   UNL     1      -2.909   3.275 133.994  0.00  0.00    +0.000 N 
ATOM     28  C   UNL     1      -3.748   2.318 134.343  0.00  0.00    +0.000 C 
ATOM     29  O   UNL     1      -3.566   1.206 133.897  0.00  0.00    +0.000 OA
ATOM     30  C   UNL     1      -4.554   2.461 136.041  0.00  0.00    +0.000 C 
ATOM     31  N   UNL     1      -5.629   1.374 135.689  0.00  0.00    +0.000 N 
ATOM     32  C   UNL     1      -5.536   0.065 134.672  0.00  0.00    +0.000 C 
ATOM     33  O   UNL     1      -6.095  -0.791 135.463  0.00  0.00    +0.000 OA
ATOM     34  H   UNL     1      -3.685  -0.533 129.870  0.00  0.00    +0.000 HD
ATOM     35  H   UNL     1      -6.382  -1.282 124.110  0.00  0.00    +0.000 HD
ATOM     36  H   UNL     1      -2.269   6.694 136.520  0.00  0.00    +0.000 HD
ATOM     37  H   UNL     1      -2.243   3.100 133.245  0.00  0.00    +0.000 HD
ATOM     38  H   UNL     1      -6.535   1.778 135.851  0.00  0.00    +0.000 HD
ENDROOT
BRANCH  22  39
ATOM     39  C   UNL     1      -1.283   8.300 134.746  0.00  0.00    +0.000 C 
ATOM     40  O   UNL     1      -1.761   9.318 134.250  0.00  0.00    +0.000 OA
ATOM     41  N   UNL     1      -0.193   8.185 135.651  0.00  0.00    +0.000 N 
ATOM     42  C   UNL     1       0.851   7.185 135.605  0.00  0.00    +0.000 C 
ATOM     43  C   UNL     1       1.209   6.978 137.047  0.00  0.00    +0.000 C 
ATOM     44  C   UNL     1       1.287   8.387 137.560  0.00  0.00    +0.000 C 
ATOM     45  C   UNL     1       0.279   9.158 136.715  0.00  0.00    +0.000 C 
BRANCH  45  46
ATOM     46  C   UNL     1       1.299  10.224 136.197  0.00  0.00    +0.000 C 
ATOM     47  O   UNL     1       2.489  10.081 136.523  0.00  0.00    +0.000 OA
ATOM     48  N   UNL     1       0.875  11.021 135.077  0.00  0.00    +0.000 N 
ATOM     49  H   UNL     1      -0.105  11.195 134.860  0.00  0.00    +0.000 HD
BRANCH  48  50
ATOM     50  C   UNL     1       1.856  11.651 134.117  0.00  0.00    +0.000 C 
BRANCH  50  51
ATOM     51  C   UNL     1       2.083  13.151 134.482  0.00  0.00    +0.000 C 
ATOM     52  O   UNL     1       2.985  13.781 133.927  0.00  0.00    +0.000 OA
ATOM     53  N   UNL     1       1.257  13.739 135.424  0.00  0.00    +0.000 N 
ATOM     54  H   UNL     1       0.527  13.216 135.875  0.00  0.00    +0.000 HD
BRANCH  53  55
ATOM     55  C   UNL     1       1.398  15.145 135.815  0.00  0.00    +0.000 C 
BRANCH  55  56
ATOM     56  C   UNL     1       2.100  15.359 137.174  0.00  0.00    +0.000 C 
ATOM     57  N   UNL     1       2.359  14.245 137.944  0.00  0.00    +0.000 N 
ATOM     58  O   UNL     1       2.419  16.482 137.560  0.00  0.00    +0.000 OA
ATOM     59  H   UNL     1       2.134  13.297 137.704  0.00  0.00    +0.000 HD
ATOM     60  H   UNL     1       2.819  14.346 138.843  0.00  0.00    +0.000 HD
ENDBRANCH  55  56
ENDBRANCH  53  55
ENDBRANCH  50  51
BRANCH  50  61
ATOM     61  C   UNL     1       1.438  11.566 132.632  0.00  0.00    +0.000 C 
BRANCH  61  62
ATOM     62  C   UNL     1       0.483  12.668 132.209  0.00  0.00    +0.000 C 
ATOM     63  C   UNL     1       0.608  12.969 130.767  0.00  0.00    +0.000 C 
ATOM     64  C   UNL     1      -0.934  12.259 132.134  0.00  0.00    +0.000 C 
ENDBRANCH  61  62
ENDBRANCH  50  61
ENDBRANCH  48  50
ENDBRANCH  45  46
ENDBRANCH  22  39
BRANCH   1  65
ATOM     65  C   UNL     1      -3.387  -0.298 134.994  0.00  0.00    +0.000 C 
ATOM     66  C   UNL     1      -3.020  -0.878 136.852  0.00  0.00    +0.000 C 
BRANCH  65  68
ATOM     67  C   UNL     1      -1.201  -1.145 133.908  0.00  0.00    +0.000 C 
ATOM     68  C   UNL     1      -2.332  -1.784 135.390  0.00  0.00    +0.000 C 
ENDBRANCH  65  68
ENDBRANCH   1  65
BRANCH  26  69
ATOM     69  C   UNL     1      -5.013   4.335 134.158  0.00  0.00    +0.000 C 
BRANCH  69  70
ATOM     70  C   UNL     1      -5.580   5.034 135.331  0.00  0.00    +0.000 C 
ATOM     71  N   UNL     1      -5.425   6.405 135.545  0.00  0.00    +0.000 N 
ATOM     72  O   UNL     1      -6.257   4.256 135.971  0.00  0.00    +0.000 OA
ATOM     73  H   UNL     1      -4.975   7.017 134.905  0.00  0.00    +0.000 HD
ATOM     74  H   UNL     1      -5.604   6.982 136.344  0.00  0.00    +0.000 HD
ENDBRANCH  69  70
ENDBRANCH  26  69
BRANCH   5  75
ATOM     75  C   UNL     1      -6.284   1.385 125.390  0.00  0.00    +0.000 C 
BRANCH  75  76
ATOM     76  C   UNL     1      -5.412   2.507 125.717  0.00  0.00    +0.000 A 
ATOM     77  C   UNL     1      -4.162   2.111 126.160  0.00  0.00    +0.000 A 
ATOM     78  C   UNL     1      -3.378   2.931 126.921  0.00  0.00    +0.000 A 
ATOM     79  C   UNL     1      -3.712   4.251 126.996  0.00  0.00    +0.000 A 
ATOM     80  C   UNL     1      -4.852   4.702 126.330  0.00  0.00    +0.000 A 
ATOM     81  C   UNL     1      -5.788   3.818 125.792  0.00  0.00    +0.000 A 
BRANCH  79  82
ATOM     82  O   UNL     1      -2.953   5.126 127.714  0.00  0.00    +0.000 OA
ATOM     83  H   UNL     1      -3.255   6.051 127.637  0.00  0.00    +0.000 HD
ENDBRANCH  79  82
ENDBRANCH  75  76
ENDBRANCH   5  75
BRANCH  30  84
ATOM     84  C   UNL     1      -3.819   2.192 137.536  0.00  0.00    +0.000 C 
BRANCH  84  85
ATOM     85  C   UNL     1      -4.833   2.217 138.703  0.00  0.00    +0.000 C 
BRANCH  85  86
ATOM     86  C   UNL     1      -5.119   0.865 139.289  0.00  0.00    +0.000 C 
ATOM     87  N   UNL     1      -4.563   0.565 140.504  0.00  0.00    +0.000 N 
ATOM     88  O   UNL     1      -5.821   0.064 138.678  0.00  0.00    +0.000 OA
ATOM     89  H   UNL     1      -3.954   1.180 141.029  0.00  0.00    +0.000 HD
ATOM     90  H   UNL     1      -4.772  -0.318 140.945  0.00  0.00    +0.000 HD
ENDBRANCH  85  86
ENDBRANCH  84  85
ENDBRANCH  30  84
TORSDOF 18
ENDMDL
MODEL 7
REMARK VINA RESULT:      -8.9      3.940     13.290
REMARK  Name = CHEMBL4129142
REMARK  22 active torsions:
REMARK  status: ('A' for Active; 'I' for Inactive)
REMARK    1  A    between atoms: C_1  and  C_2
REMARK    2  A    between atoms: C_2  and  C_3
REMARK    3  A    between atoms: C_3  and  C_4
REMARK    4  A    between atoms: C_3  and  C_5
REMARK    5  A    between atoms: C_9  and  C_10
REMARK    6  A    between atoms: C_10  and  C_11
REMARK    7  A    between atoms: C_14  and  O_15
REMARK    8  A    between atoms: C_34  and  C_35
REMARK    9  A    between atoms: C_41  and  C_42
REMARK   10  A    between atoms: N_44  and  C_45
REMARK   11  A    between atoms: C_45  and  C_46
REMARK   12  A    between atoms: C_45  and  C_50
REMARK   13  A    between atoms: C_46  and  C_47
REMARK   14  A    between atoms: C_47  and  C_48
REMARK   15  A    between atoms: C_47  and  C_49
REMARK   16  A    between atoms: N_52  and  C_53
REMARK   17  A    between atoms: C_53  and  C_54
REMARK   18  A    between atoms: C_60  and  C_61
REMARK   19  A    between atoms: C_61  and  C_62
REMARK   20  A    between atoms: C_68  and  C_69
REMARK   21  A    between atoms: C_69  and  C_70
REMARK   22  A    between atoms: C_70  and  C_71
REMARK                            x       y       z     vdW  Elec       q    Type
REMARK                         _______ _______ _______ _____ _____    ______ ____
ROOT
ATOM      1  C   UNL     1      -4.404  11.176 139.934  0.00  0.00    +0.000 C 
ATOM      2  N   UNL     1      -3.139  12.596 138.569  0.00  0.00    +0.000 N 
ATOM      3  C   UNL     1      -1.709  13.746 137.751  0.00  0.00    +0.000 C 
ATOM      4  O   UNL     1      -0.913  14.301 138.611  0.00  0.00    +0.000 OA
ATOM      5  C   UNL     1      -0.344  14.931 136.314  0.00  0.00    +0.000 C 
ATOM      6  N   UNL     1       1.190  16.084 136.728  0.00  0.00    +0.000 N 
ATOM      7  C   UNL     1       2.279  15.725 137.614  0.00  0.00    +0.000 C 
ATOM      8  O   UNL     1       3.130  16.473 138.121  0.00  0.00    +0.000 OA
ATOM      9  C   UNL     1       2.178  14.299 138.078  0.00  0.00    +0.000 C 
ATOM     10  C   UNL     1       1.263  13.399 137.393  0.00  0.00    +0.000 C 
ATOM     11  S   UNL     1       0.928  11.799 137.762  0.00  0.00    +0.000 S 
ATOM     12  C   UNL     1      -0.344  11.211 136.543  0.00  0.00    +0.000 C 
ATOM     13  C   UNL     1      -0.465   9.747 136.835  0.00  0.00    +0.000 A 
ATOM     14  C   UNL     1       0.099   9.156 137.957  0.00  0.00    +0.000 A 
ATOM     15  C   UNL     1      -0.007   7.788 138.225  0.00  0.00    +0.000 A 
ATOM     16  C   UNL     1      -0.557   6.903 137.268  0.00  0.00    +0.000 A 
ATOM     17  C   UNL     1      -1.087   7.422 136.065  0.00  0.00    +0.000 A 
ATOM     18  C   UNL     1      -0.997   8.856 135.899  0.00  0.00    +0.000 A 
ATOM     19  C   UNL     1      -1.987   6.520 135.187  0.00  0.00    +0.000 C 
ATOM     20  S   UNL     1      -3.709   6.555 135.110  0.00  0.00    +0.000 S 
ATOM     21  C   UNL     1      -4.837   5.494 134.403  0.00  0.00    +0.000 C 
ATOM     22  C   UNL     1      -6.315   5.715 134.662  0.00  0.00    +0.000 C 
ATOM     23  N   UNL     1      -6.652   5.361 136.057  0.00  0.00    +0.000 N 
ATOM     24  C   UNL     1      -6.194   5.971 137.172  0.00  0.00    +0.000 C 
ATOM     25  O   UNL     1      -6.519   5.514 138.256  0.00  0.00    +0.000 OA
ATOM     26  C   UNL     1      -5.341   7.195 137.029  0.00  0.00    +0.000 C 
ATOM     27  N   UNL     1      -5.797   8.423 137.385  0.00  0.00    +0.000 N 
ATOM     28  C   UNL     1      -5.344   8.642 138.605  0.00  0.00    +0.000 C 
ATOM     29  O   UNL     1      -5.393   9.770 139.041  0.00  0.00    +0.000 OA
ATOM     30  C   UNL     1      -5.474   7.219 139.836  0.00  0.00    +0.000 C 
ATOM     31  N   UNL     1      -4.483   7.913 140.834  0.00  0.00    +0.000 N 
ATOM     32  C   UNL     1      -4.193   9.524 141.110  0.00  0.00    +0.000 C 
ATOM     33  O   UNL     1      -4.189   9.466 142.402  0.00  0.00    +0.000 OA
ATOM     34  H   UNL     1      -3.473  13.561 137.944  0.00  0.00    +0.000 HD
ATOM     35  H   UNL     1       1.631  17.025 136.222  0.00  0.00    +0.000 HD
ATOM     36  H   UNL     1      -7.252   4.550 136.219  0.00  0.00    +0.000 HD
ATOM     37  H   UNL     1      -6.019   9.218 136.790  0.00  0.00    +0.000 HD
ATOM     38  H   UNL     1      -3.741   7.263 141.027  0.00  0.00    +0.000 HD
ENDROOT
BRANCH  22  39
ATOM     39  C   UNL     1      -7.062   4.828 133.653  0.00  0.00    +0.000 C 
ATOM     40  O   UNL     1      -7.250   3.690 134.080  0.00  0.00    +0.000 OA
ATOM     41  N   UNL     1      -7.538   5.408 132.447  0.00  0.00    +0.000 N 
ATOM     42  C   UNL     1      -6.784   6.263 131.557  0.00  0.00    +0.000 C 
ATOM     43  C   UNL     1      -7.820   7.185 130.985  0.00  0.00    +0.000 C 
ATOM     44  C   UNL     1      -8.935   6.237 130.648  0.00  0.00    +0.000 C 
ATOM     45  C   UNL     1      -8.818   5.124 131.683  0.00  0.00    +0.000 C 
BRANCH  45  46
ATOM     46  C   UNL     1      -8.696   3.962 130.645  0.00  0.00    +0.000 C 
ATOM     47  O   UNL     1      -9.192   4.147 129.520  0.00  0.00    +0.000 OA
ATOM     48  N   UNL     1      -7.691   2.969 130.913  0.00  0.00    +0.000 N 
ATOM     49  H   UNL     1      -7.344   2.771 131.850  0.00  0.00    +0.000 HD
BRANCH  48  50
ATOM     50  C   UNL     1      -7.052   2.149 129.817  0.00  0.00    +0.000 C 
BRANCH  50  51
ATOM     51  C   UNL     1      -6.545   3.079 128.671  0.00  0.00    +0.000 C 
ATOM     52  O   UNL     1      -5.593   3.834 128.879  0.00  0.00    +0.000 OA
ATOM     53  N   UNL     1      -7.182   3.029 127.443  0.00  0.00    +0.000 N 
ATOM     54  H   UNL     1      -7.960   2.414 127.285  0.00  0.00    +0.000 HD
BRANCH  53  55
ATOM     55  C   UNL     1      -6.761   3.863 126.313  0.00  0.00    +0.000 C 
BRANCH  55  56
ATOM     56  C   UNL     1      -7.924   4.409 125.457  0.00  0.00    +0.000 C 
ATOM     57  N   UNL     1      -8.117   3.854 124.210  0.00  0.00    +0.000 N 
ATOM     58  O   UNL     1      -8.656   5.307 125.870  0.00  0.00    +0.000 OA
ATOM     59  H   UNL     1      -7.569   3.121 123.800  0.00  0.00    +0.000 HD
ATOM     60  H   UNL     1      -8.872   4.187 123.619  0.00  0.00    +0.000 HD
ENDBRANCH  55  56
ENDBRANCH  53  55
ENDBRANCH  50  51
BRANCH  50  61
ATOM     61  C   UNL     1      -7.976   1.074 129.204  0.00  0.00    +0.000 C 
BRANCH  61  62
ATOM     62  C   UNL     1      -7.328  -0.295 129.105  0.00  0.00    +0.000 C 
ATOM     63  C   UNL     1      -7.846  -1.215 130.140  0.00  0.00    +0.000 C 
ATOM     64  C   UNL     1      -7.787  -1.113 127.964  0.00  0.00    +0.000 C 
ENDBRANCH  61  62
ENDBRANCH  50  61
ENDBRANCH  48  50
ENDBRANCH  45  46
ENDBRANCH  22  39
BRANCH   1  65
ATOM     65  C   UNL     1      -6.243  10.187 140.653  0.00  0.00    +0.000 C 
ATOM     66  C   UNL     1      -7.583   9.587 141.984  0.00  0.00    +0.000 C 
BRANCH  65  68
ATOM     67  C   UNL     1      -8.085  11.512 139.415  0.00  0.00    +0.000 C 
ATOM     68  C   UNL     1      -7.579  11.313 141.310  0.00  0.00    +0.000 C 
ENDBRANCH  65  68
ENDBRANCH   1  65
BRANCH  26  69
ATOM     69  C   UNL     1      -3.956   6.965 137.623  0.00  0.00    +0.000 C 
BRANCH  69  70
ATOM     70  C   UNL     1      -3.978   5.555 138.067  0.00  0.00    +0.000 C 
ATOM     71  N   UNL     1      -4.063   4.480 137.178  0.00  0.00    +0.000 N 
ATOM     72  O   UNL     1      -3.808   5.511 139.269  0.00  0.00    +0.000 OA
ATOM     73  H   UNL     1      -4.058   4.579 136.190  0.00  0.00    +0.000 HD
ATOM     74  H   UNL     1      -4.245   3.506 137.322  0.00  0.00    +0.000 HD
ENDBRANCH  69  70
ENDBRANCH  26  69
BRANCH   5  75
ATOM     75  C   UNL     1       1.184  14.333 135.076  0.00  0.00    +0.000 C 
BRANCH  75  76
ATOM     76  C   UNL     1       0.375  13.645 134.077  0.00  0.00    +0.000 A 
ATOM     77  C   UNL     1       1.125  13.128 133.035  0.00  0.00    +0.000 A 
ATOM     78  C   UNL     1       0.569  12.858 131.817  0.00  0.00    +0.000 A 
ATOM     79  C   UNL     1      -0.791  12.827 131.723  0.00  0.00    +0.000 A 
ATOM     80  C   UNL     1      -1.556  13.107 132.857  0.00  0.00    +0.000 A 
ATOM     81  C   UNL     1      -0.990  13.646 134.012  0.00  0.00    +0.000 A 
BRANCH  79  82
ATOM     82  O   UNL     1      -1.407  12.533 130.544  0.00  0.00    +0.000 OA
ATOM     83  H   UNL     1      -1.633  11.589 130.451  0.00  0.00    +0.000 HD
ENDBRANCH  79  82
ENDBRANCH  75  76
ENDBRANCH   5  75
BRANCH  30  84
ATOM     84  C   UNL     1      -6.876   6.660 140.590  0.00  0.00    +0.000 C 
BRANCH  84  85
ATOM     85  C   UNL     1      -6.575   5.632 141.706  0.00  0.00    +0.000 C 
BRANCH  85  86
ATOM     86  C   UNL     1      -6.817   4.208 141.303  0.00  0.00    +0.000 C 
ATOM     87  N   UNL     1      -5.842   3.575 140.577  0.00  0.00    +0.000 N 
ATOM     88  O   UNL     1      -7.864   3.648 141.612  0.00  0.00    +0.000 OA
ATOM     89  H   UNL     1      -4.978   4.005 140.273  0.00  0.00    +0.000 HD
ATOM     90  H   UNL     1      -5.955   2.604 140.328  0.00  0.00    +0.000 HD
ENDBRANCH  85  86
ENDBRANCH  84  85
ENDBRANCH  30  84
TORSDOF 18
ENDMDL
MODEL 8
REMARK VINA RESULT:      -8.9      3.869     13.072
REMARK  Name = CHEMBL4129142
REMARK  22 active torsions:
REMARK  status: ('A' for Active; 'I' for Inactive)
REMARK    1  A    between atoms: C_1  and  C_2
REMARK    2  A    between atoms: C_2  and  C_3
REMARK    3  A    between atoms: C_3  and  C_4
REMARK    4  A    between atoms: C_3  and  C_5
REMARK    5  A    between atoms: C_9  and  C_10
REMARK    6  A    between atoms: C_10  and  C_11
REMARK    7  A    between atoms: C_14  and  O_15
REMARK    8  A    between atoms: C_34  and  C_35
REMARK    9  A    between atoms: C_41  and  C_42
REMARK   10  A    between atoms: N_44  and  C_45
REMARK   11  A    between atoms: C_45  and  C_46
REMARK   12  A    between atoms: C_45  and  C_50
REMARK   13  A    between atoms: C_46  and  C_47
REMARK   14  A    between atoms: C_47  and  C_48
REMARK   15  A    between atoms: C_47  and  C_49
REMARK   16  A    between atoms: N_52  and  C_53
REMARK   17  A    between atoms: C_53  and  C_54
REMARK   18  A    between atoms: C_60  and  C_61
REMARK   19  A    between atoms: C_61  and  C_62
REMARK   20  A    between atoms: C_68  and  C_69
REMARK   21  A    between atoms: C_69  and  C_70
REMARK   22  A    between atoms: C_70  and  C_71
REMARK                            x       y       z     vdW  Elec       q    Type
REMARK                         _______ _______ _______ _____ _____    ______ ____
ROOT
ATOM      1  C   UNL     1      -3.876  10.719 139.726  0.00  0.00    +0.000 C 
ATOM      2  N   UNL     1      -2.638  12.320 138.550  0.00  0.00    +0.000 N 
ATOM      3  C   UNL     1      -1.238  13.606 137.897  0.00  0.00    +0.000 C 
ATOM      4  O   UNL     1      -0.497  14.109 138.835  0.00  0.00    +0.000 OA
ATOM      5  C   UNL     1       0.113  14.985 136.631  0.00  0.00    +0.000 C 
ATOM      6  N   UNL     1       1.577  16.158 137.208  0.00  0.00    +0.000 N 
ATOM      7  C   UNL     1       2.654  15.761 138.093  0.00  0.00    +0.000 C 
ATOM      8  O   UNL     1       3.453  16.493 138.700  0.00  0.00    +0.000 OA
ATOM      9  C   UNL     1       2.606  14.294 138.414  0.00  0.00    +0.000 C 
ATOM     10  C   UNL     1       1.756  13.427 137.614  0.00  0.00    +0.000 C 
ATOM     11  S   UNL     1       1.486  11.785 137.814  0.00  0.00    +0.000 S 
ATOM     12  C   UNL     1       0.281  11.264 136.500  0.00  0.00    +0.000 C 
ATOM     13  C   UNL     1       0.220   9.775 136.645  0.00  0.00    +0.000 A 
ATOM     14  C   UNL     1       0.777   9.101 137.724  0.00  0.00    +0.000 A 
ATOM     15  C   UNL     1       0.726   7.710 137.855  0.00  0.00    +0.000 A 
ATOM     16  C   UNL     1       0.248   6.901 136.797  0.00  0.00    +0.000 A 
ATOM     17  C   UNL     1      -0.268   7.511 135.633  0.00  0.00    +0.000 A 
ATOM     18  C   UNL     1      -0.241   8.957 135.609  0.00  0.00    +0.000 A 
ATOM     19  C   UNL     1      -1.097   6.661 134.640  0.00  0.00    +0.000 C 
ATOM     20  S   UNL     1      -2.815   6.628 134.506  0.00  0.00    +0.000 S 
ATOM     21  C   UNL     1      -3.870   5.593 133.661  0.00  0.00    +0.000 C 
ATOM     22  C   UNL     1      -5.364   5.722 133.887  0.00  0.00    +0.000 C 
ATOM     23  N   UNL     1      -5.727   5.219 135.228  0.00  0.00    +0.000 N 
ATOM     24  C   UNL     1      -5.333   5.736 136.413  0.00  0.00    +0.000 C 
ATOM     25  O   UNL     1      -5.670   5.162 137.436  0.00  0.00    +0.000 OA
ATOM     26  C   UNL     1      -4.535   7.005 136.419  0.00  0.00    +0.000 C 
ATOM     27  N   UNL     1      -5.058   8.171 136.876  0.00  0.00    +0.000 N 
ATOM     28  C   UNL     1      -4.654   8.289 138.126  0.00  0.00    +0.000 C 
ATOM     29  O   UNL     1      -4.770   9.366 138.667  0.00  0.00    +0.000 OA
ATOM     30  C   UNL     1      -4.756   6.748 139.209  0.00  0.00    +0.000 C 
ATOM     31  N   UNL     1      -3.830   7.383 140.304  0.00  0.00    +0.000 N 
ATOM     32  C   UNL     1      -3.624   8.970 140.744  0.00  0.00    +0.000 C 
ATOM     33  O   UNL     1      -3.658   8.787 142.024  0.00  0.00    +0.000 OA
ATOM     34  H   UNL     1      -2.997  13.326 138.009  0.00  0.00    +0.000 HD
ATOM     35  H   UNL     1       1.989  17.163 136.812  0.00  0.00    +0.000 HD
ATOM     36  H   UNL     1      -6.293   4.371 135.290  0.00  0.00    +0.000 HD
ATOM     37  H   UNL     1      -5.299   9.010 136.352  0.00  0.00    +0.000 HD
ATOM     38  H   UNL     1      -3.064   6.750 140.459  0.00  0.00    +0.000 HD
ENDROOT
BRANCH  22  39
ATOM     39  C   UNL     1      -6.037   4.907 132.771  0.00  0.00    +0.000 C 
ATOM     40  O   UNL     1      -5.282   4.702 131.823  0.00  0.00    +0.000 OA
ATOM     41  N   UNL     1      -7.346   4.399 132.984  0.00  0.00    +0.000 N 
ATOM     42  C   UNL     1      -8.475   5.141 133.502  0.00  0.00    +0.000 C 
ATOM     43  C   UNL     1      -9.265   4.110 134.253  0.00  0.00    +0.000 C 
ATOM     44  C   UNL     1      -9.267   2.953 133.295  0.00  0.00    +0.000 C 
ATOM     45  C   UNL     1      -7.949   3.079 132.538  0.00  0.00    +0.000 C 
BRANCH  45  46
ATOM     46  C   UNL     1      -8.594   3.122 131.115  0.00  0.00    +0.000 C 
ATOM     47  O   UNL     1      -9.683   2.542 130.965  0.00  0.00    +0.000 OA
ATOM     48  N   UNL     1      -8.111   4.143 130.226  0.00  0.00    +0.000 N 
ATOM     49  H   UNL     1      -7.186   4.560 130.311  0.00  0.00    +0.000 HD
BRANCH  48  50
ATOM     50  C   UNL     1      -8.951   4.697 129.099  0.00  0.00    +0.000 C 
BRANCH  50  51
ATOM     51  C   UNL     1      -8.170   4.610 127.750  0.00  0.00    +0.000 C 
ATOM     52  O   UNL     1      -8.574   5.245 126.774  0.00  0.00    +0.000 OA
ATOM     53  N   UNL     1      -7.035   3.821 127.688  0.00  0.00    +0.000 N 
ATOM     54  H   UNL     1      -6.716   3.304 128.488  0.00  0.00    +0.000 HD
BRANCH  53  55
ATOM     55  C   UNL     1      -6.241   3.694 126.462  0.00  0.00    +0.000 C 
BRANCH  55  56
ATOM     56  C   UNL     1      -4.917   4.490 126.476  0.00  0.00    +0.000 C 
ATOM     57  N   UNL     1      -3.803   3.890 125.930  0.00  0.00    +0.000 N 
ATOM     58  O   UNL     1      -4.855   5.620 126.956  0.00  0.00    +0.000 OA
ATOM     59  H   UNL     1      -3.768   2.975 125.519  0.00  0.00    +0.000 HD
ATOM     60  H   UNL     1      -2.916   4.382 125.921  0.00  0.00    +0.000 HD
ENDBRANCH  55  56
ENDBRANCH  53  55
ENDBRANCH  50  51
BRANCH  50  61
ATOM     61  C   UNL     1      -9.413   6.156 129.306  0.00  0.00    +0.000 C 
BRANCH  61  62
ATOM     62  C   UNL     1     -10.913   6.293 129.498  0.00  0.00    +0.000 C 
ATOM     63  C   UNL     1     -11.359   5.644 130.750  0.00  0.00    +0.000 C 
ATOM     64  C   UNL     1     -11.363   7.645 129.886  0.00  0.00    +0.000 C 
ENDBRANCH  61  62
ENDBRANCH  50  61
ENDBRANCH  48  50
ENDBRANCH  45  46
ENDBRANCH  22  39
BRANCH   1  65
ATOM     65  C   UNL     1      -5.688   9.585 140.281  0.00  0.00    +0.000 C 
ATOM     66  C   UNL     1      -7.017   8.766 141.501  0.00  0.00    +0.000 C 
BRANCH  65  68
ATOM     67  C   UNL     1      -7.298  11.337 139.273  0.00  0.00    +0.000 C 
ATOM     68  C   UNL     1      -7.063  10.567 141.073  0.00  0.00    +0.000 C 
ENDBRANCH  65  68
ENDBRANCH   1  65
BRANCH  26  69
ATOM     69  C   UNL     1      -3.159   6.778 137.037  0.00  0.00    +0.000 C 
BRANCH  69  70
ATOM     70  C   UNL     1      -3.136   5.335 137.358  0.00  0.00    +0.000 C 
ATOM     71  N   UNL     1      -3.205   4.339 136.381  0.00  0.00    +0.000 N 
ATOM     72  O   UNL     1      -2.946   5.194 138.549  0.00  0.00    +0.000 OA
ATOM     73  H   UNL     1      -3.217   4.522 135.405  0.00  0.00    +0.000 HD
ATOM     74  H   UNL     1      -3.357   3.351 136.443  0.00  0.00    +0.000 HD
ENDBRANCH  69  70
ENDBRANCH  26  69
BRANCH   5  75
ATOM     75  C   UNL     1       1.705  14.579 135.396  0.00  0.00    +0.000 C 
BRANCH  75  76
ATOM     76  C   UNL     1       0.976  13.857 134.360  0.00  0.00    +0.000 A 
ATOM     77  C   UNL     1       1.802  13.334 133.380  0.00  0.00    +0.000 A 
ATOM     78  C   UNL     1       1.333  13.032 132.133  0.00  0.00    +0.000 A 
ATOM     79  C   UNL     1      -0.018  12.974 131.951  0.00  0.00    +0.000 A 
ATOM     80  C   UNL     1      -0.861  13.261 133.025  0.00  0.00    +0.000 A 
ATOM     81  C   UNL     1      -0.382  13.832 134.205  0.00  0.00    +0.000 A 
BRANCH  79  82
ATOM     82  O   UNL     1      -0.549  12.647 130.739  0.00  0.00    +0.000 OA
ATOM     83  H   UNL     1       0.068  12.151 130.169  0.00  0.00    +0.000 HD
ENDBRANCH  79  82
ENDBRANCH  75  76
ENDBRANCH   5  75
BRANCH  30  84
ATOM     84  C   UNL     1      -6.152   6.057 139.855  0.00  0.00    +0.000 C 
BRANCH  84  85
ATOM     85  C   UNL     1      -5.838   4.914 140.849  0.00  0.00    +0.000 C 
BRANCH  85  86
ATOM     86  C   UNL     1      -5.947   5.314 142.291  0.00  0.00    +0.000 C 
ATOM     87  N   UNL     1      -7.128   5.059 142.937  0.00  0.00    +0.000 N 
ATOM     88  O   UNL     1      -5.003   5.863 142.852  0.00  0.00    +0.000 OA
ATOM     89  H   UNL     1      -7.942   4.638 142.507  0.00  0.00    +0.000 HD
ATOM     90  H   UNL     1      -7.218   5.276 143.918  0.00  0.00    +0.000 HD
ENDBRANCH  85  86
ENDBRANCH  84  85
ENDBRANCH  30  84
TORSDOF 18
ENDMDL
MODEL 9
REMARK VINA RESULT:      -8.8      3.416     13.216
REMARK  Name = CHEMBL4129142
REMARK  22 active torsions:
REMARK  status: ('A' for Active; 'I' for Inactive)
REMARK    1  A    between atoms: C_1  and  C_2
REMARK    2  A    between atoms: C_2  and  C_3
REMARK    3  A    between atoms: C_3  and  C_4
REMARK    4  A    between atoms: C_3  and  C_5
REMARK    5  A    between atoms: C_9  and  C_10
REMARK    6  A    between atoms: C_10  and  C_11
REMARK    7  A    between atoms: C_14  and  O_15
REMARK    8  A    between atoms: C_34  and  C_35
REMARK    9  A    between atoms: C_41  and  C_42
REMARK   10  A    between atoms: N_44  and  C_45
REMARK   11  A    between atoms: C_45  and  C_46
REMARK   12  A    between atoms: C_45  and  C_50
REMARK   13  A    between atoms: C_46  and  C_47
REMARK   14  A    between atoms: C_47  and  C_48
REMARK   15  A    between atoms: C_47  and  C_49
REMARK   16  A    between atoms: N_52  and  C_53
REMARK   17  A    between atoms: C_53  and  C_54
REMARK   18  A    between atoms: C_60  and  C_61
REMARK   19  A    between atoms: C_61  and  C_62
REMARK   20  A    between atoms: C_68  and  C_69
REMARK   21  A    between atoms: C_69  and  C_70
REMARK   22  A    between atoms: C_70  and  C_71
REMARK                            x       y       z     vdW  Elec       q    Type
REMARK                         _______ _______ _______ _____ _____    ______ ____
ROOT
ATOM      1  C   UNL     1      -4.015  10.468 139.572  0.00  0.00    +0.000 C 
ATOM      2  N   UNL     1      -2.859  12.098 138.353  0.00  0.00    +0.000 N 
ATOM      3  C   UNL     1      -1.514  13.414 137.650  0.00  0.00    +0.000 C 
ATOM      4  O   UNL     1      -0.745  13.928 138.559  0.00  0.00    +0.000 OA
ATOM      5  C   UNL     1      -0.242  14.825 136.336  0.00  0.00    +0.000 C 
ATOM      6  N   UNL     1       1.220  16.025 136.858  0.00  0.00    +0.000 N 
ATOM      7  C   UNL     1       2.340  15.647 137.697  0.00  0.00    +0.000 C 
ATOM      8  O   UNL     1       3.148  16.393 138.274  0.00  0.00    +0.000 OA
ATOM      9  C   UNL     1       2.334  14.178 138.013  0.00  0.00    +0.000 C 
ATOM     10  C   UNL     1       1.470  13.296 137.244  0.00  0.00    +0.000 C 
ATOM     11  S   UNL     1       1.241  11.649 137.448  0.00  0.00    +0.000 S 
ATOM     12  C   UNL     1      -0.006  11.108 136.182  0.00  0.00    +0.000 C 
ATOM     13  C   UNL     1      -0.031   9.618 136.323  0.00  0.00    +0.000 A 
ATOM     14  C   UNL     1       0.583   8.952 137.375  0.00  0.00    +0.000 A 
ATOM     15  C   UNL     1       0.566   7.560 137.503  0.00  0.00    +0.000 A 
ATOM     16  C   UNL     1       0.061   6.744 136.462  0.00  0.00    +0.000 A 
ATOM     17  C   UNL     1      -0.513   7.348 135.322  0.00  0.00    +0.000 A 
ATOM     18  C   UNL     1      -0.517   8.794 135.303  0.00  0.00    +0.000 A 
ATOM     19  C   UNL     1      -1.365   6.485 134.360  0.00  0.00    +0.000 C 
ATOM     20  S   UNL     1      -3.087   6.417 134.296  0.00  0.00    +0.000 S 
ATOM     21  C   UNL     1      -4.154   5.364 133.490  0.00  0.00    +0.000 C 
ATOM     22  C   UNL     1      -5.640   5.463 133.777  0.00  0.00    +0.000 C 
ATOM     23  N   UNL     1      -5.938   4.947 135.130  0.00  0.00    +0.000 N 
ATOM     24  C   UNL     1      -5.506   5.468 136.299  0.00  0.00    +0.000 C 
ATOM     25  O   UNL     1      -5.789   4.883 137.333  0.00  0.00    +0.000 OA
ATOM     26  C   UNL     1      -4.734   6.753 136.279  0.00  0.00    +0.000 C 
ATOM     27  N   UNL     1      -5.262   7.906 136.761  0.00  0.00    +0.000 N 
ATOM     28  C   UNL     1      -4.809   8.028 137.995  0.00  0.00    +0.000 C 
ATOM     29  O   UNL     1      -4.925   9.100 138.545  0.00  0.00    +0.000 OA
ATOM     30  C   UNL     1      -4.836   6.481 139.074  0.00  0.00    +0.000 C 
ATOM     31  N   UNL     1      -3.879   7.132 140.133  0.00  0.00    +0.000 N 
ATOM     32  C   UNL     1      -3.687   8.721 140.572  0.00  0.00    +0.000 C 
ATOM     33  O   UNL     1      -3.665   8.532 141.851  0.00  0.00    +0.000 OA
ATOM     34  H   UNL     1      -3.260  13.098 137.832  0.00  0.00    +0.000 HD
ATOM     35  H   UNL     1       1.595  17.039 136.450  0.00  0.00    +0.000 HD
ATOM     36  H   UNL     1      -6.484   4.087 135.211  0.00  0.00    +0.000 HD
ATOM     37  H   UNL     1      -5.540   8.742 136.252  0.00  0.00    +0.000 HD
ATOM     38  H   UNL     1      -3.095   6.514 140.254  0.00  0.00    +0.000 HD
ENDROOT
BRANCH  22  39
ATOM     39  C   UNL     1      -6.341   4.637 132.686  0.00  0.00    +0.000 C 
ATOM     40  O   UNL     1      -6.137   3.431 132.810  0.00  0.00    +0.000 OA
ATOM     41  N   UNL     1      -7.200   5.299 131.768  0.00  0.00    +0.000 N 
ATOM     42  C   UNL     1      -6.900   6.515 131.045  0.00  0.00    +0.000 C 
ATOM     43  C   UNL     1      -8.235   7.185 130.905  0.00  0.00    +0.000 C 
ATOM     44  C   UNL     1      -9.120   6.045 130.491  0.00  0.00    +0.000 C 
ATOM     45  C   UNL     1      -8.502   4.819 131.154  0.00  0.00    +0.000 C 
BRANCH  45  46
ATOM     46  C   UNL     1      -8.321   4.005 129.832  0.00  0.00    +0.000 C 
ATOM     47  O   UNL     1      -9.029   4.327 128.863  0.00  0.00    +0.000 OA
ATOM     48  N   UNL     1      -7.102   3.254 129.706  0.00  0.00    +0.000 N 
ATOM     49  H   UNL     1      -6.567   2.929 130.510  0.00  0.00    +0.000 HD
BRANCH  48  50
ATOM     50  C   UNL     1      -6.504   2.902 128.365  0.00  0.00    +0.000 C 
BRANCH  50  51
ATOM     51  C   UNL     1      -7.249   1.678 127.745  0.00  0.00    +0.000 C 
ATOM     52  O   UNL     1      -6.915   0.537 128.069  0.00  0.00    +0.000 OA
ATOM     53  N   UNL     1      -8.275   1.910 126.845  0.00  0.00    +0.000 N 
ATOM     54  H   UNL     1      -8.537   2.844 126.584  0.00  0.00    +0.000 HD
BRANCH  53  55
ATOM     55  C   UNL     1      -9.030   0.817 126.226  0.00  0.00    +0.000 C 
BRANCH  55  56
ATOM     56  C   UNL     1      -8.463   0.339 124.872  0.00  0.00    +0.000 C 
ATOM     57  N   UNL     1      -7.769  -0.852 124.853  0.00  0.00    +0.000 N 
ATOM     58  O   UNL     1      -8.623   0.993 123.844  0.00  0.00    +0.000 OA
ATOM     59  H   UNL     1      -7.595  -1.446 125.643  0.00  0.00    +0.000 HD
ATOM     60  H   UNL     1      -7.382  -1.199 123.981  0.00  0.00    +0.000 HD
ENDBRANCH  55  56
ENDBRANCH  53  55
ENDBRANCH  50  51
BRANCH  50  61
ATOM     61  C   UNL     1      -4.992   2.586 128.404  0.00  0.00    +0.000 C 
BRANCH  61  62
ATOM     62  C   UNL     1      -4.298   2.792 127.069  0.00  0.00    +0.000 C 
ATOM     63  C   UNL     1      -4.669   4.087 126.460  0.00  0.00    +0.000 C 
ATOM     64  C   UNL     1      -2.858   3.103 127.166  0.00  0.00    +0.000 C 
ENDBRANCH  61  62
ENDBRANCH  50  61
ENDBRANCH  48  50
ENDBRANCH  45  46
ENDBRANCH  22  39
BRANCH   1  65
ATOM     65  C   UNL     1      -5.781   9.296 140.195  0.00  0.00    +0.000 C 
ATOM     66  C   UNL     1      -7.083   8.505 141.463  0.00  0.00    +0.000 C 
BRANCH  65  68
ATOM     67  C   UNL     1      -7.602  10.709 139.029  0.00  0.00    +0.000 C 
ATOM     68  C   UNL     1      -7.204  10.268 140.909  0.00  0.00    +0.000 C 
ENDBRANCH  65  68
ENDBRANCH   1  65
BRANCH  26  69
ATOM     69  C   UNL     1      -3.330   6.552 136.839  0.00  0.00    +0.000 C 
BRANCH  69  70
ATOM     70  C   UNL     1      -3.261   5.107 137.142  0.00  0.00    +0.000 C 
ATOM     71  N   UNL     1      -3.328   4.120 136.155  0.00  0.00    +0.000 N 
ATOM     72  O   UNL     1      -3.037   4.956 138.326  0.00  0.00    +0.000 OA
ATOM     73  H   UNL     1      -3.369   4.314 135.182  0.00  0.00    +0.000 HD
ATOM     74  H   UNL     1      -3.452   3.128 136.208  0.00  0.00    +0.000 HD
ENDBRANCH  69  70
ENDBRANCH  26  69
BRANCH   5  75
ATOM     75  C   UNL     1       1.305  14.455 135.036  0.00  0.00    +0.000 C 
BRANCH  75  76
ATOM     76  C   UNL     1       0.546  13.733 134.021  0.00  0.00    +0.000 A 
ATOM     77  C   UNL     1       1.345  13.209 133.018  0.00  0.00    +0.000 A 
ATOM     78  C   UNL     1       0.840  12.907 131.785  0.00  0.00    +0.000 A 
ATOM     79  C   UNL     1      -0.515  12.851 131.641  0.00  0.00    +0.000 A 
ATOM     80  C   UNL     1      -1.327  13.139 132.738  0.00  0.00    +0.000 A 
ATOM     81  C   UNL     1      -0.815  13.711 133.904  0.00  0.00    +0.000 A 
BRANCH  79  82
ATOM     82  O   UNL     1      -1.080  12.524 130.444  0.00  0.00    +0.000 OA
ATOM     83  H   UNL     1      -0.425  12.371 129.737  0.00  0.00    +0.000 HD
ENDBRANCH  79  82
ENDBRANCH  75  76
ENDBRANCH   5  75
BRANCH  30  84
ATOM     84  C   UNL     1      -6.191   5.760 139.773  0.00  0.00    +0.000 C 
BRANCH  84  85
ATOM     85  C   UNL     1      -5.815   4.784 140.914  0.00  0.00    +0.000 C 
BRANCH  85  86
ATOM     86  C   UNL     1      -5.863   3.338 140.517  0.00  0.00    +0.000 C 
ATOM     87  N   UNL     1      -5.068   2.936 139.476  0.00  0.00    +0.000 N 
ATOM     88  O   UNL     1      -6.603   2.559 141.109  0.00  0.00    +0.000 OA
ATOM     89  H   UNL     1      -4.466   3.547 138.939  0.00  0.00    +0.000 HD
ATOM     90  H   UNL     1      -5.044   1.962 139.213  0.00  0.00    +0.000 HD
ENDBRANCH  85  86
ENDBRANCH  84  85
ENDBRANCH  30  84
TORSDOF 18
ENDMDL
