MODEL 1
REMARK VINA RESULT:      -9.2      0.000      0.000
REMARK  Name = CHEMBL2172290
REMARK  39 active torsions:
REMARK  status: ('A' for Active; 'I' for Inactive)
REMARK    1  A    between atoms: C_1  and  C_2
REMARK    2  A    between atoms: C_2  and  N_3
REMARK    3  A    between atoms: C_5  and  C_6
REMARK    4  A    between atoms: C_7  and  C_8
REMARK    5  A    between atoms: C_9  and  C_10
REMARK    6  A    between atoms: N_11  and  C_12
REMARK    7  A    between atoms: C_12  and  C_13
REMARK    8  A    between atoms: C_17  and  S_18
REMARK    9  A    between atoms: C_24  and  C_25
REMARK   10  A    between atoms: C_24  and  C_26
REMARK   11  A    between atoms: C_27  and  C_28
REMARK   12  A    between atoms: C_27  and  C_29
REMARK   13  A    between atoms: C_29  and  C_30
REMARK   14  A    between atoms: C_30  and  C_31
REMARK   15  A    between atoms: C_31  and  C_32
REMARK   16  A    between atoms: N_34  and  C_35
REMARK   17  A    between atoms: C_35  and  C_36
REMARK   18  A    between atoms: C_36  and  O_37
REMARK   19  A    between atoms: O_37  and  C_38
REMARK   20  A    between atoms: C_38  and  C_39
REMARK   21  A    between atoms: C_39  and  O_40
REMARK   22  A    between atoms: O_40  and  C_41
REMARK   23  A    between atoms: C_41  and  C_42
REMARK   24  A    between atoms: C_42  and  O_43
REMARK   25  A    between atoms: O_43  and  C_44
REMARK   26  A    between atoms: C_44  and  C_45
REMARK   27  A    between atoms: C_45  and  N_46
REMARK   28  A    between atoms: C_48  and  C_49
REMARK   29  A    between atoms: C_49  and  N_50
REMARK   30  A    between atoms: C_51  and  C_53
REMARK   31  A    between atoms: C_53  and  C_54
REMARK   32  A    between atoms: C_54  and  C_55
REMARK   33  A    between atoms: N_57  and  C_58
REMARK   34  A    between atoms: C_63  and  C_65
REMARK   35  A    between atoms: C_68  and  N_69
REMARK   36  A    between atoms: C_70  and  C_72
REMARK   37  A    between atoms: C_77  and  C_78
REMARK   38  A    between atoms: C_96  and  S_97
REMARK   39  A    between atoms: S_97  and  O_100
REMARK                            x       y       z     vdW  Elec       q    Type
REMARK                         _______ _______ _______ _____ _____    ______ ____
ROOT
ATOM      1  C   UNL     1      -9.308   3.572 133.671  0.00  0.00    +0.000 C 
ENDROOT
BRANCH   1   2
ATOM      2  O   UNL     1      -8.202   3.871 134.520  0.00  0.00    +0.000 OA
BRANCH   2   3
ATOM      3  C   UNL     1      -8.144   5.270 134.740  0.00  0.00    +0.000 C 
BRANCH   3   4
ATOM      4  C   UNL     1      -6.868   5.659 135.466  0.00  0.00    +0.000 C 
BRANCH   4   5
ATOM      5  N   UNL     1      -7.166   6.091 136.817  0.00  0.00    +0.000 N 
ATOM      6  C   UNL     1      -6.484   5.759 137.947  0.00  0.00    +0.000 A 
ATOM      7  C   UNL     1      -7.082   6.447 138.967  0.00  0.00    +0.000 A 
ATOM      8  N   UNL     1      -8.125   7.168 138.427  0.00  0.00    +0.000 NA
ATOM      9  N   UNL     1      -8.167   6.938 137.109  0.00  0.00    +0.000 NA
BRANCH   7  10
ATOM     10  C   UNL     1      -6.700   6.443 140.416  0.00  0.00    +0.000 C 
BRANCH  10  11
ATOM     11  N   UNL     1      -5.220   6.322 140.610  0.00  0.00    +0.000 N 
ATOM     12  C   UNL     1      -4.625   5.154 141.100  0.00  0.00    +0.000 C 
ATOM     13  O   UNL     1      -5.328   4.185 141.382  0.00  0.00    +0.000 OA
ATOM     14  H   UNL     1      -4.662   7.128 140.371  0.00  0.00    +0.000 HD
BRANCH  12  15
ATOM     15  C   UNL     1      -3.034   5.090 141.288  0.00  0.00    +0.000 C 
BRANCH  15  16
ATOM     16  C   UNL     1      -2.053   4.924 139.783  0.00  0.00    +0.000 C 
BRANCH  16  17
ATOM     17  C   UNL     1      -2.415   6.024 138.211  0.00  0.00    +0.000 C 
ATOM     18  O   UNL     1      -3.023   5.176 137.503  0.00  0.00    +0.000 OA
ATOM     19  N   UNL     1      -2.154   7.808 137.836  0.00  0.00    +0.000 N 
ATOM     20  H   UNL     1      -1.410   7.666 138.570  0.00  0.00    +0.000 HD
BRANCH  19  21
ATOM     21  C   UNL     1      -2.110   9.520 136.728  0.00  0.00    +0.000 C 
ATOM     22  C   UNL     1      -1.448   9.831 137.926  0.00  0.00    +0.000 C 
ATOM     23  C   UNL     1      -0.961   9.958 136.443  0.00  0.00    +0.000 C 
ATOM     24  C   UNL     1      -0.635  11.244 136.868  0.00  0.00    +0.000 C 
ATOM     25  N   UNL     1      -0.105  11.404 135.301  0.00  0.00    +0.000 N 
ATOM     26  C   UNL     1      -0.597  10.828 133.869  0.00  0.00    +0.000 C 
ATOM     27  O   UNL     1      -0.583  11.487 132.816  0.00  0.00    +0.000 OA
ATOM     28  C   UNL     1      -0.883  12.423 135.526  0.00  0.00    +0.000 A 
ATOM     29  C   UNL     1       0.011  13.702 136.276  0.00  0.00    +0.000 A 
ATOM     30  C   UNL     1      -0.179  15.034 136.294  0.00  0.00    +0.000 A 
ATOM     31  C   UNL     1      -1.095  15.025 135.350  0.00  0.00    +0.000 A 
ATOM     32  C   UNL     1      -1.978  13.378 135.143  0.00  0.00    +0.000 A 
ATOM     33  C   UNL     1      -2.257  11.580 135.619  0.00  0.00    +0.000 A 
BRANCH  26  34
ATOM     34  C   UNL     1      -0.969   9.328 133.735  0.00  0.00    +0.000 A 
ATOM     35  C   UNL     1      -0.181   8.107 133.855  0.00  0.00    +0.000 A 
ATOM     36  C   UNL     1      -0.304   7.078 132.883  0.00  0.00    +0.000 A 
ATOM     37  C   UNL     1      -1.460   7.025 132.165  0.00  0.00    +0.000 A 
ATOM     38  C   UNL     1      -2.414   7.986 132.498  0.00  0.00    +0.000 A 
ATOM     39  C   UNL     1      -2.154   9.196 133.116  0.00  0.00    +0.000 A 
BRANCH  37  40
ATOM     40  N   UNL     1      -1.697   5.975 131.254  0.00  0.00    +0.000 N 
ATOM     41  C   UNL     1      -2.980   5.645 130.859  0.00  0.00    +0.000 C 
ATOM     42  O   UNL     1      -3.991   6.240 131.219  0.00  0.00    +0.000 OA
ATOM     43  H   UNL     1      -0.891   5.453 130.884  0.00  0.00    +0.000 HD
BRANCH  41  44
ATOM     44  C   UNL     1      -3.179   4.529 129.907  0.00  0.00    +0.000 A 
ATOM     45  C   UNL     1      -2.930   4.665 128.539  0.00  0.00    +0.000 A 
ATOM     46  C   UNL     1      -3.390   3.696 127.649  0.00  0.00    +0.000 A 
ATOM     47  C   UNL     1      -3.846   2.483 128.132  0.00  0.00    +0.000 A 
ATOM     48  C   UNL     1      -3.809   2.240 129.502  0.00  0.00    +0.000 A 
ATOM     49  C   UNL     1      -3.604   3.287 130.415  0.00  0.00    +0.000 A 
BRANCH  49  50
ATOM     50  C   UNL     1      -3.873   3.089 131.848  0.00  0.00    +0.000 A 
ATOM     51  C   UNL     1      -2.842   2.755 132.745  0.00  0.00    +0.000 A 
ATOM     52  C   UNL     1      -3.125   2.257 134.013  0.00  0.00    +0.000 A 
ATOM     53  C   UNL     1      -4.417   2.337 134.492  0.00  0.00    +0.000 A 
ATOM     54  C   UNL     1      -5.404   2.906 133.699  0.00  0.00    +0.000 A 
ATOM     55  C   UNL     1      -5.168   3.155 132.349  0.00  0.00    +0.000 A 
ENDBRANCH  49  50
ENDBRANCH  41  44
ENDBRANCH  37  40
ENDBRANCH  26  34
ENDBRANCH  19  21
ENDBRANCH  16  17
ENDBRANCH  15  16
ENDBRANCH  12  15
ENDBRANCH  10  11
ENDBRANCH   7  10
ENDBRANCH   4   5
ENDBRANCH   3   4
ENDBRANCH   2   3
ENDBRANCH   1   2
BRANCH   1  56
ATOM     56  C   UNL     1      -9.620   4.776 132.816  0.00  0.00    +0.000 C 
BRANCH  56  57
ATOM     57  O   UNL     1     -10.012   4.345 131.516  0.00  0.00    +0.000 OA
BRANCH  57  58
ATOM     58  C   UNL     1     -10.351   5.480 130.725  0.00  0.00    +0.000 C 
BRANCH  58  59
ATOM     59  C   UNL     1      -9.456   6.641 131.099  0.00  0.00    +0.000 C 
BRANCH  59  60
ATOM     60  O   UNL     1      -8.422   6.784 130.127  0.00  0.00    +0.000 OA
BRANCH  60  61
ATOM     61  C   UNL     1      -7.249   6.105 130.569  0.00  0.00    +0.000 C 
BRANCH  61  62
ATOM     62  C   UNL     1      -6.830   5.051 129.554  0.00  0.00    +0.000 C 
BRANCH  62  65
ATOM     63  C   UNL     1      -8.081   2.964 129.157  0.00  0.00    +0.000 C 
ATOM     64  O   UNL     1      -8.523   3.395 128.096  0.00  0.00    +0.000 OA
ATOM     65  N   UNL     1      -7.231   3.703 129.950  0.00  0.00    +0.000 N 
ATOM     66  H   UNL     1      -6.874   3.333 130.821  0.00  0.00    +0.000 HD
BRANCH  63  67
ATOM     67  C   UNL     1      -8.420   1.563 129.667  0.00  0.00    +0.000 C 
BRANCH  67  68
ATOM     68  C   UNL     1      -7.493   0.577 129.028  0.00  0.00    +0.000 C 
BRANCH  68  69
ATOM     69  C   UNL     1      -8.030  -0.085 127.776  0.00  0.00    +0.000 C 
BRANCH  69  73
ATOM     70  N   UNL     1      -7.433  -1.884 124.847  0.00  0.00    +0.000 N 
ATOM     71  C   UNL     1      -7.230  -2.028 126.321  0.00  0.00    +0.000 C 
ATOM     72  C   UNL     1      -7.227  -3.029 127.274  0.00  0.00    +0.000 C 
ATOM     73  C   UNL     1      -6.931  -0.599 126.831  0.00  0.00    +0.000 C 
ATOM     74  C   UNL     1      -5.492  -0.491 127.301  0.00  0.00    +0.000 C 
ATOM     75  C   UNL     1      -6.964   0.266 125.614  0.00  0.00    +0.000 A 
ATOM     76  C   UNL     1      -6.673   1.661 125.654  0.00  0.00    +0.000 A 
ATOM     77  C   UNL     1      -6.824   2.456 124.564  0.00  0.00    +0.000 A 
ATOM     78  C   UNL     1      -7.121   1.783 123.390  0.00  0.00    +0.000 A 
ATOM     79  C   UNL     1      -7.319   0.322 123.352  0.00  0.00    +0.000 A 
ATOM     80  C   UNL     1      -7.270  -0.486 124.494  0.00  0.00    +0.000 A 
BRANCH  77  81
ATOM     81  S   UNL     1      -6.563   4.220 124.775  0.00  0.00    +0.000 S 
ATOM     82  O   UNL     1      -6.031   4.440 126.103  0.00  0.00    +0.000 OA
ATOM     83  O   UNL     1      -5.862   4.698 123.602  0.00  0.00    +0.000 OA
BRANCH  81  84
ATOM     84  O   UNL     1      -8.057   4.847 124.752  0.00  0.00    +0.000 OA
ATOM     85  H   UNL     1      -8.166   5.563 125.409  0.00  0.00    +0.000 HD
ENDBRANCH  81  84
ENDBRANCH  77  81
BRANCH  70  87
ATOM     86  C   UNL     1      -9.332  -2.848 123.447  0.00  0.00    +0.000 C 
ATOM     87  C   UNL     1      -7.847  -2.936 123.820  0.00  0.00    +0.000 C 
ENDBRANCH  70  87
BRANCH  72  88
ATOM     88  C   UNL     1      -6.985  -2.890 128.762  0.00  0.00    +0.000 C 
ATOM     89  C   UNL     1      -7.890  -3.043 129.747  0.00  0.00    +0.000 C 
BRANCH  89  90
ATOM     90  C   UNL     1      -7.498  -2.879 131.136  0.00  0.00    +0.000 C 
ATOM     91  C   UNL     1      -6.281  -2.657 131.630  0.00  0.00    +0.000 C 
BRANCH  91  92
ATOM     92  C   UNL     1      -5.498  -2.466 132.952  0.00  0.00    +0.000 C 
ATOM     93  N   UNL     1      -5.721  -3.097 134.049  0.00  0.00    +0.000 N 
ATOM     94  C   UNL     1      -5.025  -2.605 135.192  0.00  0.00    +0.000 A 
ATOM     95  C   UNL     1      -4.891  -1.264 135.679  0.00  0.00    +0.000 A 
ATOM     96  C   UNL     1      -3.757  -0.729 136.457  0.00  0.00    +0.000 A 
ATOM     97  C   UNL     1      -2.875  -1.586 137.013  0.00  0.00    +0.000 A 
ATOM     98  C   UNL     1      -2.985  -2.748 136.289  0.00  0.00    +0.000 A 
ATOM     99  C   UNL     1      -3.787  -2.768 134.817  0.00  0.00    +0.000 A 
ATOM    100  C   UNL     1      -4.376  -1.503 133.392  0.00  0.00    +0.000 C 
ATOM    101  C   UNL     1      -2.997  -1.444 132.909  0.00  0.00    +0.000 C 
ATOM    102  C   UNL     1      -4.765  -0.551 131.838  0.00  0.00    +0.000 C 
BRANCH  97 103
ATOM    103  S   UNL     1      -1.604  -1.023 138.267  0.00  0.00    +0.000 S 
ATOM    104  O   UNL     1      -0.386  -1.112 137.469  0.00  0.00    +0.000 OA
ATOM    105  O   UNL     1      -2.030   0.341 138.575  0.00  0.00    +0.000 OA
ATOM    106  O   UNL     1      -1.697  -1.965 139.378  0.00  0.00    +0.000 OA
ENDBRANCH  97 103
BRANCH  93 107
ATOM    107  C   UNL     1      -6.255  -4.446 134.181  0.00  0.00    +0.000 C 
ATOM    108  C   UNL     1      -7.626  -4.379 134.743  0.00  0.00    +0.000 C 
ENDBRANCH  93 107
ENDBRANCH  91  92
ENDBRANCH  89  90
ENDBRANCH  72  88
ENDBRANCH  69  73
ENDBRANCH  68  69
ENDBRANCH  67  68
ENDBRANCH  63  67
ENDBRANCH  62  65
ENDBRANCH  61  62
ENDBRANCH  60  61
ENDBRANCH  59  60
ENDBRANCH  58  59
ENDBRANCH  57  58
ENDBRANCH  56  57
ENDBRANCH   1  56
TORSDOF 34
ENDMDL
MODEL 2
REMARK VINA RESULT:      -9.2      3.817     11.997
REMARK  Name = CHEMBL2172290
REMARK  39 active torsions:
REMARK  status: ('A' for Active; 'I' for Inactive)
REMARK    1  A    between atoms: C_1  and  C_2
REMARK    2  A    between atoms: C_2  and  N_3
REMARK    3  A    between atoms: C_5  and  C_6
REMARK    4  A    between atoms: C_7  and  C_8
REMARK    5  A    between atoms: C_9  and  C_10
REMARK    6  A    between atoms: N_11  and  C_12
REMARK    7  A    between atoms: C_12  and  C_13
REMARK    8  A    between atoms: C_17  and  S_18
REMARK    9  A    between atoms: C_24  and  C_25
REMARK   10  A    between atoms: C_24  and  C_26
REMARK   11  A    between atoms: C_27  and  C_28
REMARK   12  A    between atoms: C_27  and  C_29
REMARK   13  A    between atoms: C_29  and  C_30
REMARK   14  A    between atoms: C_30  and  C_31
REMARK   15  A    between atoms: C_31  and  C_32
REMARK   16  A    between atoms: N_34  and  C_35
REMARK   17  A    between atoms: C_35  and  C_36
REMARK   18  A    between atoms: C_36  and  O_37
REMARK   19  A    between atoms: O_37  and  C_38
REMARK   20  A    between atoms: C_38  and  C_39
REMARK   21  A    between atoms: C_39  and  O_40
REMARK   22  A    between atoms: O_40  and  C_41
REMARK   23  A    between atoms: C_41  and  C_42
REMARK   24  A    between atoms: C_42  and  O_43
REMARK   25  A    between atoms: O_43  and  C_44
REMARK   26  A    between atoms: C_44  and  C_45
REMARK   27  A    between atoms: C_45  and  N_46
REMARK   28  A    between atoms: C_48  and  C_49
REMARK   29  A    between atoms: C_49  and  N_50
REMARK   30  A    between atoms: C_51  and  C_53
REMARK   31  A    between atoms: C_53  and  C_54
REMARK   32  A    between atoms: C_54  and  C_55
REMARK   33  A    between atoms: N_57  and  C_58
REMARK   34  A    between atoms: C_63  and  C_65
REMARK   35  A    between atoms: C_68  and  N_69
REMARK   36  A    between atoms: C_70  and  C_72
REMARK   37  A    between atoms: C_77  and  C_78
REMARK   38  A    between atoms: C_96  and  S_97
REMARK   39  A    between atoms: S_97  and  O_100
REMARK                            x       y       z     vdW  Elec       q    Type
REMARK                         _______ _______ _______ _____ _____    ______ ____
ROOT
ATOM      1  C   UNL     1      -8.949   5.789 132.879  0.00  0.00    +0.000 C 
ENDROOT
BRANCH   1   2
ATOM      2  O   UNL     1     -10.193   6.318 132.422  0.00  0.00    +0.000 OA
BRANCH   2   3
ATOM      3  C   UNL     1     -10.541   5.705 131.193  0.00  0.00    +0.000 C 
BRANCH   3   4
ATOM      4  C   UNL     1      -9.874   6.405 130.022  0.00  0.00    +0.000 C 
BRANCH   4   5
ATOM      5  N   UNL     1      -9.229   5.440 129.155  0.00  0.00    +0.000 N 
ATOM      6  C   UNL     1      -8.795   4.198 129.499  0.00  0.00    +0.000 A 
ATOM      7  C   UNL     1      -8.318   3.630 128.351  0.00  0.00    +0.000 A 
ATOM      8  N   UNL     1      -8.462   4.554 127.338  0.00  0.00    +0.000 NA
ATOM      9  N   UNL     1      -9.019   5.660 127.846  0.00  0.00    +0.000 NA
BRANCH   7  10
ATOM     10  C   UNL     1      -7.739   2.258 128.184  0.00  0.00    +0.000 C 
BRANCH  10  11
ATOM     11  N   UNL     1      -8.603   1.378 127.333  0.00  0.00    +0.000 N 
ATOM     12  C   UNL     1      -8.327   1.144 125.981  0.00  0.00    +0.000 C 
ATOM     13  O   UNL     1      -7.344   1.670 125.461  0.00  0.00    +0.000 OA
ATOM     14  H   UNL     1      -9.402   0.956 127.780  0.00  0.00    +0.000 HD
BRANCH  12  15
ATOM     15  C   UNL     1      -9.294   0.194 125.125  0.00  0.00    +0.000 C 
BRANCH  15  16
ATOM     16  C   UNL     1      -8.862  -1.557 125.075  0.00  0.00    +0.000 C 
BRANCH  16  17
ATOM     17  C   UNL     1      -8.529  -2.565 126.713  0.00  0.00    +0.000 C 
ATOM     18  O   UNL     1      -8.616  -3.737 126.255  0.00  0.00    +0.000 OA
ATOM     19  N   UNL     1      -8.050  -2.068 128.421  0.00  0.00    +0.000 N 
ATOM     20  H   UNL     1      -8.520  -1.180 128.099  0.00  0.00    +0.000 HD
BRANCH  19  21
ATOM     21  C   UNL     1      -7.643  -2.283 130.408  0.00  0.00    +0.000 C 
ATOM     22  C   UNL     1      -7.433  -3.550 129.843  0.00  0.00    +0.000 C 
ATOM     23  C   UNL     1      -6.469  -2.651 130.689  0.00  0.00    +0.000 C 
ATOM     24  C   UNL     1      -6.318  -3.834 131.408  0.00  0.00    +0.000 C 
ATOM     25  N   UNL     1      -5.286  -2.904 132.321  0.00  0.00    +0.000 N 
ATOM     26  C   UNL     1      -5.255  -1.348 132.774  0.00  0.00    +0.000 C 
ATOM     27  O   UNL     1      -4.887  -0.962 133.896  0.00  0.00    +0.000 OA
ATOM     28  C   UNL     1      -6.101  -3.471 133.162  0.00  0.00    +0.000 A 
ATOM     29  C   UNL     1      -5.526  -5.050 133.577  0.00  0.00    +0.000 A 
ATOM     30  C   UNL     1      -5.720  -5.814 134.668  0.00  0.00    +0.000 A 
ATOM     31  C   UNL     1      -6.259  -4.848 135.381  0.00  0.00    +0.000 A 
ATOM     32  C   UNL     1      -7.007  -3.457 134.361  0.00  0.00    +0.000 A 
ATOM     33  C   UNL     1      -7.418  -2.653 132.711  0.00  0.00    +0.000 A 
BRANCH  26  34
ATOM     34  C   UNL     1      -5.548  -0.242 131.728  0.00  0.00    +0.000 A 
ATOM     35  C   UNL     1      -4.914   0.104 130.461  0.00  0.00    +0.000 A 
ATOM     36  C   UNL     1      -4.603   1.457 130.163  0.00  0.00    +0.000 A 
ATOM     37  C   UNL     1      -5.315   2.424 130.806  0.00  0.00    +0.000 A 
ATOM     38  C   UNL     1      -6.303   1.960 131.672  0.00  0.00    +0.000 A 
ATOM     39  C   UNL     1      -6.331   0.709 132.264  0.00  0.00    +0.000 A 
BRANCH  37  40
ATOM     40  N   UNL     1      -5.132   3.786 130.490  0.00  0.00    +0.000 N 
ATOM     41  C   UNL     1      -3.926   4.420 130.730  0.00  0.00    +0.000 C 
ATOM     42  O   UNL     1      -2.929   3.867 131.182  0.00  0.00    +0.000 OA
ATOM     43  H   UNL     1      -5.917   4.306 130.075  0.00  0.00    +0.000 HD
BRANCH  41  44
ATOM     44  C   UNL     1      -3.785   5.855 130.390  0.00  0.00    +0.000 A 
ATOM     45  C   UNL     1      -3.820   6.856 131.363  0.00  0.00    +0.000 A 
ATOM     46  C   UNL     1      -3.965   8.190 130.982  0.00  0.00    +0.000 A 
ATOM     47  C   UNL     1      -3.802   8.545 129.656  0.00  0.00    +0.000 A 
ATOM     48  C   UNL     1      -3.465   7.566 128.726  0.00  0.00    +0.000 A 
ATOM     49  C   UNL     1      -3.578   6.203 129.041  0.00  0.00    +0.000 A 
BRANCH  49  50
ATOM     50  C   UNL     1      -3.526   5.185 127.980  0.00  0.00    +0.000 A 
ATOM     51  C   UNL     1      -4.660   4.878 127.206  0.00  0.00    +0.000 A 
ATOM     52  C   UNL     1      -4.715   3.718 126.440  0.00  0.00    +0.000 A 
ATOM     53  C   UNL     1      -3.556   2.999 126.227  0.00  0.00    +0.000 A 
ATOM     54  C   UNL     1      -2.365   3.444 126.787  0.00  0.00    +0.000 A 
ATOM     55  C   UNL     1      -2.372   4.442 127.757  0.00  0.00    +0.000 A 
ENDBRANCH  49  50
ENDBRANCH  41  44
ENDBRANCH  37  40
ENDBRANCH  26  34
ENDBRANCH  19  21
ENDBRANCH  16  17
ENDBRANCH  15  16
ENDBRANCH  12  15
ENDBRANCH  10  11
ENDBRANCH   7  10
ENDBRANCH   4   5
ENDBRANCH   3   4
ENDBRANCH   2   3
ENDBRANCH   1   2
BRANCH   1  56
ATOM     56  C   UNL     1      -9.120   4.325 133.206  0.00  0.00    +0.000 C 
BRANCH  56  57
ATOM     57  O   UNL     1      -8.548   4.057 134.483  0.00  0.00    +0.000 OA
BRANCH  57  58
ATOM     58  C   UNL     1      -7.972   5.252 135.002  0.00  0.00    +0.000 C 
BRANCH  58  59
ATOM     59  C   UNL     1      -6.662   4.924 135.686  0.00  0.00    +0.000 C 
BRANCH  59  60
ATOM     60  O   UNL     1      -6.105   3.742 135.116  0.00  0.00    +0.000 OA
BRANCH  60  61
ATOM     61  C   UNL     1      -4.970   4.080 134.321  0.00  0.00    +0.000 C 
BRANCH  61  62
ATOM     62  C   UNL     1      -3.693   3.574 134.973  0.00  0.00    +0.000 C 
BRANCH  62  65
ATOM     63  C   UNL     1      -3.466   3.619 137.428  0.00  0.00    +0.000 C 
ATOM     64  O   UNL     1      -3.785   2.436 137.510  0.00  0.00    +0.000 OA
ATOM     65  N   UNL     1      -3.385   4.273 136.219  0.00  0.00    +0.000 N 
ATOM     66  H   UNL     1      -3.119   5.247 136.168  0.00  0.00    +0.000 HD
BRANCH  63  67
ATOM     67  C   UNL     1      -3.109   4.450 138.661  0.00  0.00    +0.000 C 
BRANCH  67  68
ATOM     68  C   UNL     1      -4.229   5.402 138.945  0.00  0.00    +0.000 C 
BRANCH  68  69
ATOM     69  C   UNL     1      -5.532   4.752 139.356  0.00  0.00    +0.000 C 
BRANCH  69  73
ATOM     70  N   UNL     1      -4.848   6.797 142.099  0.00  0.00    +0.000 N 
ATOM     71  C   UNL     1      -5.008   5.344 141.787  0.00  0.00    +0.000 C 
ATOM     72  C   UNL     1      -4.489   4.131 142.200  0.00  0.00    +0.000 C 
ATOM     73  C   UNL     1      -6.092   5.282 140.686  0.00  0.00    +0.000 C 
ATOM     74  C   UNL     1      -7.359   4.639 141.222  0.00  0.00    +0.000 C 
ATOM     75  C   UNL     1      -6.497   6.701 140.454  0.00  0.00    +0.000 A 
ATOM     76  C   UNL     1      -7.531   7.067 139.545  0.00  0.00    +0.000 A 
ATOM     77  C   UNL     1      -7.805   8.364 139.255  0.00  0.00    +0.000 A 
ATOM     78  C   UNL     1      -7.118   9.289 140.024  0.00  0.00    +0.000 A 
ATOM     79  C   UNL     1      -6.123   8.884 141.034  0.00  0.00    +0.000 A 
ATOM     80  C   UNL     1      -5.760   7.552 141.259  0.00  0.00    +0.000 A 
BRANCH  77  81
ATOM     81  S   UNL     1      -9.034   8.696 137.989  0.00  0.00    +0.000 S 
ATOM     82  O   UNL     1     -10.244   9.144 138.644  0.00  0.00    +0.000 OA
ATOM     83  O   UNL     1      -8.397   9.498 136.966  0.00  0.00    +0.000 OA
BRANCH  81  84
ATOM     84  O   UNL     1      -9.350   7.239 137.352  0.00  0.00    +0.000 OA
ATOM     85  H   UNL     1     -10.155   6.836 137.735  0.00  0.00    +0.000 HD
ENDBRANCH  81  84
ENDBRANCH  77  81
BRANCH  70  87
ATOM     86  C   UNL     1      -2.646   8.065 142.299  0.00  0.00    +0.000 C 
ATOM     87  C   UNL     1      -3.857   7.481 143.039  0.00  0.00    +0.000 C 
ENDBRANCH  70  87
BRANCH  72  88
ATOM     88  C   UNL     1      -4.842   2.751 141.691  0.00  0.00    +0.000 C 
ATOM     89  C   UNL     1      -4.016   1.874 141.091  0.00  0.00    +0.000 C 
BRANCH  89  90
ATOM     90  C   UNL     1      -4.509   0.577 140.659  0.00  0.00    +0.000 C 
ATOM     91  C   UNL     1      -5.673   0.288 140.079  0.00  0.00    +0.000 C 
BRANCH  91  92
ATOM     92  C   UNL     1      -6.526  -0.884 139.533  0.00  0.00    +0.000 C 
ATOM     93  N   UNL     1      -6.179  -1.681 138.587  0.00  0.00    +0.000 N 
ATOM     94  C   UNL     1      -7.207  -2.543 138.104  0.00  0.00    +0.000 A 
ATOM     95  C   UNL     1      -8.552  -2.240 137.716  0.00  0.00    +0.000 A 
ATOM     96  C   UNL     1      -9.708  -3.156 137.787  0.00  0.00    +0.000 A 
ATOM     97  C   UNL     1      -9.492  -4.476 137.971  0.00  0.00    +0.000 A 
ATOM     98  C   UNL     1      -8.248  -4.570 138.545  0.00  0.00    +0.000 A 
ATOM     99  C   UNL     1      -7.495  -3.215 139.183  0.00  0.00    +0.000 A 
ATOM    100  C   UNL     1      -7.954  -1.384 139.828  0.00  0.00    +0.000 C 
ATOM    101  C   UNL     1      -8.466  -1.975 141.065  0.00  0.00    +0.000 C 
ATOM    102  C   UNL     1      -8.195   0.234 140.721  0.00  0.00    +0.000 C 
BRANCH  97 103
ATOM    103  S   UNL     1     -10.858  -5.739 137.757  0.00  0.00    +0.000 S 
ATOM    104  O   UNL     1     -12.022  -4.862 137.687  0.00  0.00    +0.000 OA
ATOM    105  O   UNL     1     -10.509  -6.389 136.496  0.00  0.00    +0.000 OA
ATOM    106  O   UNL     1     -10.790  -6.599 138.935  0.00  0.00    +0.000 OA
ENDBRANCH  97 103
BRANCH  93 107
ATOM    107  C   UNL     1      -4.821  -2.083 138.245  0.00  0.00    +0.000 C 
ATOM    108  C   UNL     1      -4.287  -1.172 137.204  0.00  0.00    +0.000 C 
ENDBRANCH  93 107
ENDBRANCH  91  92
ENDBRANCH  89  90
ENDBRANCH  72  88
ENDBRANCH  69  73
ENDBRANCH  68  69
ENDBRANCH  67  68
ENDBRANCH  63  67
ENDBRANCH  62  65
ENDBRANCH  61  62
ENDBRANCH  60  61
ENDBRANCH  59  60
ENDBRANCH  58  59
ENDBRANCH  57  58
ENDBRANCH  56  57
ENDBRANCH   1  56
TORSDOF 34
ENDMDL
MODEL 3
REMARK VINA RESULT:      -9.1      2.533      6.028
REMARK  Name = CHEMBL2172290
REMARK  39 active torsions:
REMARK  status: ('A' for Active; 'I' for Inactive)
REMARK    1  A    between atoms: C_1  and  C_2
REMARK    2  A    between atoms: C_2  and  N_3
REMARK    3  A    between atoms: C_5  and  C_6
REMARK    4  A    between atoms: C_7  and  C_8
REMARK    5  A    between atoms: C_9  and  C_10
REMARK    6  A    between atoms: N_11  and  C_12
REMARK    7  A    between atoms: C_12  and  C_13
REMARK    8  A    between atoms: C_17  and  S_18
REMARK    9  A    between atoms: C_24  and  C_25
REMARK   10  A    between atoms: C_24  and  C_26
REMARK   11  A    between atoms: C_27  and  C_28
REMARK   12  A    between atoms: C_27  and  C_29
REMARK   13  A    between atoms: C_29  and  C_30
REMARK   14  A    between atoms: C_30  and  C_31
REMARK   15  A    between atoms: C_31  and  C_32
REMARK   16  A    between atoms: N_34  and  C_35
REMARK   17  A    between atoms: C_35  and  C_36
REMARK   18  A    between atoms: C_36  and  O_37
REMARK   19  A    between atoms: O_37  and  C_38
REMARK   20  A    between atoms: C_38  and  C_39
REMARK   21  A    between atoms: C_39  and  O_40
REMARK   22  A    between atoms: O_40  and  C_41
REMARK   23  A    between atoms: C_41  and  C_42
REMARK   24  A    between atoms: C_42  and  O_43
REMARK   25  A    between atoms: O_43  and  C_44
REMARK   26  A    between atoms: C_44  and  C_45
REMARK   27  A    between atoms: C_45  and  N_46
REMARK   28  A    between atoms: C_48  and  C_49
REMARK   29  A    between atoms: C_49  and  N_50
REMARK   30  A    between atoms: C_51  and  C_53
REMARK   31  A    between atoms: C_53  and  C_54
REMARK   32  A    between atoms: C_54  and  C_55
REMARK   33  A    between atoms: N_57  and  C_58
REMARK   34  A    between atoms: C_63  and  C_65
REMARK   35  A    between atoms: C_68  and  N_69
REMARK   36  A    between atoms: C_70  and  C_72
REMARK   37  A    between atoms: C_77  and  C_78
REMARK   38  A    between atoms: C_96  and  S_97
REMARK   39  A    between atoms: S_97  and  O_100
REMARK                            x       y       z     vdW  Elec       q    Type
REMARK                         _______ _______ _______ _____ _____    ______ ____
ROOT
ATOM      1  C   UNL     1      -9.283   3.303 129.579  0.00  0.00    +0.000 C 
ENDROOT
BRANCH   1   2
ATOM      2  O   UNL     1      -9.701   4.053 130.718  0.00  0.00    +0.000 OA
BRANCH   2   3
ATOM      3  C   UNL     1     -10.324   5.251 130.289  0.00  0.00    +0.000 C 
BRANCH   3   4
ATOM      4  C   UNL     1     -10.002   6.403 131.225  0.00  0.00    +0.000 C 
BRANCH   4   5
ATOM      5  N   UNL     1      -8.568   6.590 131.325  0.00  0.00    +0.000 N 
ATOM      6  C   UNL     1      -7.747   6.089 132.287  0.00  0.00    +0.000 A 
ATOM      7  C   UNL     1      -6.480   6.466 131.938  0.00  0.00    +0.000 A 
ATOM      8  N   UNL     1      -6.569   7.202 130.777  0.00  0.00    +0.000 NA
ATOM      9  N   UNL     1      -7.856   7.273 130.414  0.00  0.00    +0.000 NA
BRANCH   7  10
ATOM     10  C   UNL     1      -5.204   6.154 132.660  0.00  0.00    +0.000 C 
BRANCH  10  11
ATOM     11  N   UNL     1      -5.369   5.033 133.640  0.00  0.00    +0.000 N 
ATOM     12  C   UNL     1      -4.279   4.454 134.301  0.00  0.00    +0.000 C 
ATOM     13  O   UNL     1      -3.143   4.871 134.082  0.00  0.00    +0.000 OA
ATOM     14  H   UNL     1      -6.309   4.708 133.807  0.00  0.00    +0.000 HD
BRANCH  12  15
ATOM     15  C   UNL     1      -4.523   3.254 135.337  0.00  0.00    +0.000 C 
BRANCH  15  16
ATOM     16  C   UNL     1      -4.072   3.571 137.055  0.00  0.00    +0.000 C 
BRANCH  16  17
ATOM     17  C   UNL     1      -3.196   5.234 137.581  0.00  0.00    +0.000 C 
ATOM     18  O   UNL     1      -3.419   5.200 138.822  0.00  0.00    +0.000 OA
ATOM     19  N   UNL     1      -2.177   6.464 136.665  0.00  0.00    +0.000 N 
ATOM     20  H   UNL     1      -2.737   6.063 135.867  0.00  0.00    +0.000 HD
BRANCH  19  21
ATOM     21  C   UNL     1      -1.122   8.180 136.342  0.00  0.00    +0.000 C 
ATOM     22  C   UNL     1      -0.949   7.409 135.182  0.00  0.00    +0.000 C 
ATOM     23  C   UNL     1      -1.489   8.870 135.351  0.00  0.00    +0.000 C 
ATOM     24  C   UNL     1      -0.549   9.121 134.354  0.00  0.00    +0.000 C 
ATOM     25  N   UNL     1      -1.107  10.679 134.510  0.00  0.00    +0.000 N 
ATOM     26  C   UNL     1      -1.641  11.579 135.748  0.00  0.00    +0.000 C 
ATOM     27  O   UNL     1      -1.389  12.787 135.884  0.00  0.00    +0.000 OA
ATOM     28  C   UNL     1       0.190  10.749 134.594  0.00  0.00    +0.000 A 
ATOM     29  C   UNL     1       0.886  10.838 133.012  0.00  0.00    +0.000 A 
ATOM     30  C   UNL     1       2.051  11.353 132.575  0.00  0.00    +0.000 A 
ATOM     31  C   UNL     1       2.323  11.975 133.703  0.00  0.00    +0.000 A 
ATOM     32  C   UNL     1       1.463  11.254 135.212  0.00  0.00    +0.000 A 
ATOM     33  C   UNL     1       0.315  10.004 136.021  0.00  0.00    +0.000 A 
BRANCH  26  34
ATOM     34  C   UNL     1      -2.653  10.970 136.753  0.00  0.00    +0.000 A 
ATOM     35  C   UNL     1      -3.793  10.077 136.581  0.00  0.00    +0.000 A 
ATOM     36  C   UNL     1      -5.028  10.363 137.220  0.00  0.00    +0.000 A 
ATOM     37  C   UNL     1      -4.996  11.150 138.331  0.00  0.00    +0.000 A 
ATOM     38  C   UNL     1      -3.726  11.563 138.732  0.00  0.00    +0.000 A 
ATOM     39  C   UNL     1      -2.611  11.639 137.918  0.00  0.00    +0.000 A 
BRANCH  37  40
ATOM     40  N   UNL     1      -6.168  11.397 139.076  0.00  0.00    +0.000 N 
ATOM     41  C   UNL     1      -6.379  10.789 140.299  0.00  0.00    +0.000 C 
ATOM     42  O   UNL     1      -5.579  10.039 140.850  0.00  0.00    +0.000 OA
ATOM     43  H   UNL     1      -6.870  12.043 138.690  0.00  0.00    +0.000 HD
BRANCH  41  44
ATOM     44  C   UNL     1      -7.630  11.072 141.040  0.00  0.00    +0.000 A 
ATOM     45  C   UNL     1      -7.668  11.952 142.124  0.00  0.00    +0.000 A 
ATOM     46  C   UNL     1      -8.785  11.977 142.960  0.00  0.00    +0.000 A 
ATOM     47  C   UNL     1      -9.948  11.341 142.568  0.00  0.00    +0.000 A 
ATOM     48  C   UNL     1      -9.993  10.709 141.328  0.00  0.00    +0.000 A 
ATOM     49  C   UNL     1      -8.816  10.450 140.608  0.00  0.00    +0.000 A 
BRANCH  49  50
ATOM     50  C   UNL     1      -8.830   9.521 139.467  0.00  0.00    +0.000 A 
ATOM     51  C   UNL     1      -8.126   8.303 139.509  0.00  0.00    +0.000 A 
ATOM     52  C   UNL     1      -7.866   7.582 138.348  0.00  0.00    +0.000 A 
ATOM     53  C   UNL     1      -8.526   7.924 137.184  0.00  0.00    +0.000 A 
ATOM     54  C   UNL     1      -9.428   8.980 137.197  0.00  0.00    +0.000 A 
ATOM     55  C   UNL     1      -9.479   9.850 138.284  0.00  0.00    +0.000 A 
ENDBRANCH  49  50
ENDBRANCH  41  44
ENDBRANCH  37  40
ENDBRANCH  26  34
ENDBRANCH  19  21
ENDBRANCH  16  17
ENDBRANCH  15  16
ENDBRANCH  12  15
ENDBRANCH  10  11
ENDBRANCH   7  10
ENDBRANCH   4   5
ENDBRANCH   3   4
ENDBRANCH   2   3
ENDBRANCH   1   2
BRANCH   1  56
ATOM     56  C   UNL     1      -8.269   4.105 128.799  0.00  0.00    +0.000 C 
BRANCH  56  57
ATOM     57  O   UNL     1      -7.008   4.041 129.458  0.00  0.00    +0.000 OA
BRANCH  57  58
ATOM     58  C   UNL     1      -5.966   4.211 128.501  0.00  0.00    +0.000 C 
BRANCH  58  59
ATOM     59  C   UNL     1      -4.667   4.509 129.217  0.00  0.00    +0.000 C 
BRANCH  59  60
ATOM     60  O   UNL     1      -4.013   3.288 129.554  0.00  0.00    +0.000 OA
BRANCH  60  61
ATOM     61  C   UNL     1      -3.740   3.258 130.953  0.00  0.00    +0.000 C 
BRANCH  61  62
ATOM     62  C   UNL     1      -4.178   1.932 131.554  0.00  0.00    +0.000 C 
BRANCH  62  65
ATOM     63  C   UNL     1      -6.479   1.274 130.958  0.00  0.00    +0.000 C 
ATOM     64  O   UNL     1      -6.939   1.923 131.893  0.00  0.00    +0.000 OA
ATOM     65  N   UNL     1      -5.127   1.218 130.702  0.00  0.00    +0.000 N 
ATOM     66  H   UNL     1      -4.763   0.680 129.926  0.00  0.00    +0.000 HD
BRANCH  63  67
ATOM     67  C   UNL     1      -7.374   0.498 129.992  0.00  0.00    +0.000 C 
BRANCH  67  68
ATOM     68  C   UNL     1      -6.765   0.543 128.625  0.00  0.00    +0.000 C 
BRANCH  68  69
ATOM     69  C   UNL     1      -7.739   0.334 127.485  0.00  0.00    +0.000 C 
BRANCH  69  73
ATOM     70  N   UNL     1      -8.472  -1.210 124.443  0.00  0.00    +0.000 N 
ATOM     71  C   UNL     1      -7.999  -1.581 125.812  0.00  0.00    +0.000 C 
ATOM     72  C   UNL     1      -8.116  -2.633 126.700  0.00  0.00    +0.000 C 
ATOM     73  C   UNL     1      -7.126  -0.391 126.276  0.00  0.00    +0.000 C 
ATOM     74  C   UNL     1      -5.668  -0.803 126.367  0.00  0.00    +0.000 C 
ATOM     75  C   UNL     1      -7.142   0.574 125.135  0.00  0.00    +0.000 A 
ATOM     76  C   UNL     1      -6.396   1.789 125.145  0.00  0.00    +0.000 A 
ATOM     77  C   UNL     1      -6.514   2.710 124.156  0.00  0.00    +0.000 A 
ATOM     78  C   UNL     1      -7.282   2.308 123.075  0.00  0.00    +0.000 A 
ATOM     79  C   UNL     1      -7.964   1.001 123.041  0.00  0.00    +0.000 A 
ATOM     80  C   UNL     1      -7.932   0.094 124.106  0.00  0.00    +0.000 A 
BRANCH  77  81
ATOM     81  S   UNL     1      -5.632   4.261 124.350  0.00  0.00    +0.000 S 
ATOM     82  O   UNL     1      -4.639   4.087 125.389  0.00  0.00    +0.000 OA
ATOM     83  O   UNL     1      -5.257   4.716 123.028  0.00  0.00    +0.000 OA
BRANCH  81  84
ATOM     84  O   UNL     1      -6.749   5.283 124.929  0.00  0.00    +0.000 OA
ATOM     85  H   UNL     1      -7.444   4.821 125.438  0.00  0.00    +0.000 HD
ENDBRANCH  81  84
ENDBRANCH  77  81
BRANCH  70  87
ATOM     86  C   UNL     1      -9.400  -3.471 123.720  0.00  0.00    +0.000 C 
ATOM     87  C   UNL     1      -9.440  -1.950 123.522  0.00  0.00    +0.000 C 
ENDBRANCH  70  87
BRANCH  72  88
ATOM     88  C   UNL     1      -7.508  -2.751 128.081  0.00  0.00    +0.000 C 
ATOM     89  C   UNL     1      -8.146  -3.074 129.222  0.00  0.00    +0.000 C 
BRANCH  89  90
ATOM     90  C   UNL     1      -7.416  -3.150 130.476  0.00  0.00    +0.000 C 
ATOM     91  C   UNL     1      -6.239  -2.606 130.780  0.00  0.00    +0.000 C 
BRANCH  91  92
ATOM     92  C   UNL     1      -5.186  -2.486 131.910  0.00  0.00    +0.000 C 
ATOM     93  N   UNL     1      -5.254  -1.682 132.910  0.00  0.00    +0.000 N 
ATOM     94  C   UNL     1      -4.073  -1.590 133.703  0.00  0.00    +0.000 A 
ATOM     95  C   UNL     1      -2.710  -1.401 133.302  0.00  0.00    +0.000 A 
ATOM     96  C   UNL     1      -1.514  -1.876 134.027  0.00  0.00    +0.000 A 
ATOM     97  C   UNL     1      -1.640  -2.291 135.305  0.00  0.00    +0.000 A 
ATOM     98  C   UNL     1      -2.962  -2.633 135.453  0.00  0.00    +0.000 A 
ATOM     99  C   UNL     1      -3.954  -2.821 134.115  0.00  0.00    +0.000 A 
ATOM    100  C   UNL     1      -3.810  -3.138 132.152  0.00  0.00    +0.000 C 
ATOM    101  C   UNL     1      -3.513  -4.544 132.426  0.00  0.00    +0.000 C 
ATOM    102  C   UNL     1      -3.911  -3.699 130.376  0.00  0.00    +0.000 C 
BRANCH  97 103
ATOM    103  S   UNL     1      -0.149  -2.604 136.393  0.00  0.00    +0.000 S 
ATOM    104  O   UNL     1       0.672  -3.409 135.493  0.00  0.00    +0.000 OA
ATOM    105  O   UNL     1       0.364  -1.258 136.643  0.00  0.00    +0.000 OA
ATOM    106  O   UNL     1      -0.656  -3.301 137.571  0.00  0.00    +0.000 OA
ENDBRANCH  97 103
BRANCH  93 107
ATOM    107  C   UNL     1      -6.468  -1.189 133.546  0.00  0.00    +0.000 C 
ATOM    108  C   UNL     1      -6.116  -0.113 134.505  0.00  0.00    +0.000 C 
ENDBRANCH  93 107
ENDBRANCH  91  92
ENDBRANCH  89  90
ENDBRANCH  72  88
ENDBRANCH  69  73
ENDBRANCH  68  69
ENDBRANCH  67  68
ENDBRANCH  63  67
ENDBRANCH  62  65
ENDBRANCH  61  62
ENDBRANCH  60  61
ENDBRANCH  59  60
ENDBRANCH  58  59
ENDBRANCH  57  58
ENDBRANCH  56  57
ENDBRANCH   1  56
TORSDOF 34
ENDMDL
MODEL 4
REMARK VINA RESULT:      -9.1      3.202     10.632
REMARK  Name = CHEMBL2172290
REMARK  39 active torsions:
REMARK  status: ('A' for Active; 'I' for Inactive)
REMARK    1  A    between atoms: C_1  and  C_2
REMARK    2  A    between atoms: C_2  and  N_3
REMARK    3  A    between atoms: C_5  and  C_6
REMARK    4  A    between atoms: C_7  and  C_8
REMARK    5  A    between atoms: C_9  and  C_10
REMARK    6  A    between atoms: N_11  and  C_12
REMARK    7  A    between atoms: C_12  and  C_13
REMARK    8  A    between atoms: C_17  and  S_18
REMARK    9  A    between atoms: C_24  and  C_25
REMARK   10  A    between atoms: C_24  and  C_26
REMARK   11  A    between atoms: C_27  and  C_28
REMARK   12  A    between atoms: C_27  and  C_29
REMARK   13  A    between atoms: C_29  and  C_30
REMARK   14  A    between atoms: C_30  and  C_31
REMARK   15  A    between atoms: C_31  and  C_32
REMARK   16  A    between atoms: N_34  and  C_35
REMARK   17  A    between atoms: C_35  and  C_36
REMARK   18  A    between atoms: C_36  and  O_37
REMARK   19  A    between atoms: O_37  and  C_38
REMARK   20  A    between atoms: C_38  and  C_39
REMARK   21  A    between atoms: C_39  and  O_40
REMARK   22  A    between atoms: O_40  and  C_41
REMARK   23  A    between atoms: C_41  and  C_42
REMARK   24  A    between atoms: C_42  and  O_43
REMARK   25  A    between atoms: O_43  and  C_44
REMARK   26  A    between atoms: C_44  and  C_45
REMARK   27  A    between atoms: C_45  and  N_46
REMARK   28  A    between atoms: C_48  and  C_49
REMARK   29  A    between atoms: C_49  and  N_50
REMARK   30  A    between atoms: C_51  and  C_53
REMARK   31  A    between atoms: C_53  and  C_54
REMARK   32  A    between atoms: C_54  and  C_55
REMARK   33  A    between atoms: N_57  and  C_58
REMARK   34  A    between atoms: C_63  and  C_65
REMARK   35  A    between atoms: C_68  and  N_69
REMARK   36  A    between atoms: C_70  and  C_72
REMARK   37  A    between atoms: C_77  and  C_78
REMARK   38  A    between atoms: C_96  and  S_97
REMARK   39  A    between atoms: S_97  and  O_100
REMARK                            x       y       z     vdW  Elec       q    Type
REMARK                         _______ _______ _______ _____ _____    ______ ____
ROOT
ATOM      1  C   UNL     1      -1.645   3.506 140.589  0.00  0.00    +0.000 C 
ENDROOT
BRANCH   1   2
ATOM      2  O   UNL     1      -1.065   3.888 139.344  0.00  0.00    +0.000 OA
BRANCH   2   3
ATOM      3  C   UNL     1      -1.473   5.205 139.019  0.00  0.00    +0.000 C 
BRANCH   3   4
ATOM      4  C   UNL     1      -0.282   6.078 138.664  0.00  0.00    +0.000 C 
BRANCH   4   5
ATOM      5  N   UNL     1      -0.709   7.228 137.893  0.00  0.00    +0.000 N 
ATOM      6  C   UNL     1      -0.258   7.596 136.663  0.00  0.00    +0.000 A 
ATOM      7  C   UNL     1      -0.987   8.696 136.305  0.00  0.00    +0.000 A 
ATOM      8  N   UNL     1      -1.853   8.976 137.339  0.00  0.00    +0.000 NA
ATOM      9  N   UNL     1      -1.670   8.070 138.307  0.00  0.00    +0.000 NA
BRANCH   7  10
ATOM     10  C   UNL     1      -0.891   9.478 135.030  0.00  0.00    +0.000 C 
BRANCH  10  11
ATOM     11  N   UNL     1      -1.641   8.827 133.909  0.00  0.00    +0.000 N 
ATOM     12  C   UNL     1      -1.008   8.009 132.965  0.00  0.00    +0.000 C 
ATOM     13  O   UNL     1       0.202   7.808 133.047  0.00  0.00    +0.000 OA
ATOM     14  H   UNL     1      -2.633   9.003 133.861  0.00  0.00    +0.000 HD
BRANCH  12  15
ATOM     15  C   UNL     1      -1.869   7.344 131.786  0.00  0.00    +0.000 C 
BRANCH  15  16
ATOM     16  C   UNL     1      -2.248   5.588 131.960  0.00  0.00    +0.000 C 
BRANCH  16  17
ATOM     17  C   UNL     1      -4.041   4.901 131.615  0.00  0.00    +0.000 C 
ATOM     18  O   UNL     1      -3.743   3.744 131.210  0.00  0.00    +0.000 OA
ATOM     19  N   UNL     1      -5.728   5.577 131.915  0.00  0.00    +0.000 N 
ATOM     20  H   UNL     1      -5.180   6.476 131.852  0.00  0.00    +0.000 HD
BRANCH  19  21
ATOM     21  C   UNL     1      -7.764   5.676 131.850  0.00  0.00    +0.000 C 
ATOM     22  C   UNL     1      -7.311   6.818 131.172  0.00  0.00    +0.000 C 
ATOM     23  C   UNL     1      -8.276   5.679 130.697  0.00  0.00    +0.000 C 
ATOM     24  C   UNL     1      -9.069   6.768 130.344  0.00  0.00    +0.000 C 
ATOM     25  N   UNL     1     -10.109   5.580 129.826  0.00  0.00    +0.000 N 
ATOM     26  C   UNL     1     -10.482   4.090 130.342  0.00  0.00    +0.000 C 
ATOM     27  O   UNL     1     -11.631   3.620 130.326  0.00  0.00    +0.000 OA
ATOM     28  C   UNL     1     -10.811   6.371 130.583  0.00  0.00    +0.000 A 
ATOM     29  C   UNL     1     -11.404   7.710 129.660  0.00  0.00    +0.000 A 
ATOM     30  C   UNL     1     -12.477   8.505 129.826  0.00  0.00    +0.000 A 
ATOM     31  C   UNL     1     -13.029   7.750 130.751  0.00  0.00    +0.000 A 
ATOM     32  C   UNL     1     -11.820   6.638 131.665  0.00  0.00    +0.000 A 
ATOM     33  C   UNL     1     -10.085   5.980 131.971  0.00  0.00    +0.000 A 
BRANCH  26  34
ATOM     34  C   UNL     1      -9.345   3.113 130.742  0.00  0.00    +0.000 A 
ATOM     35  C   UNL     1      -8.181   2.613 130.020  0.00  0.00    +0.000 A 
ATOM     36  C   UNL     1      -7.867   1.229 130.041  0.00  0.00    +0.000 A 
ATOM     37  C   UNL     1      -8.334   0.491 131.086  0.00  0.00    +0.000 A 
ATOM     38  C   UNL     1      -9.054   1.205 132.044  0.00  0.00    +0.000 A 
ATOM     39  C   UNL     1      -9.697   2.411 131.832  0.00  0.00    +0.000 A 
BRANCH  37  40
ATOM     40  N   UNL     1      -7.982  -0.867 131.228  0.00  0.00    +0.000 N 
ATOM     41  C   UNL     1      -6.677  -1.243 131.486  0.00  0.00    +0.000 C 
ATOM     42  O   UNL     1      -5.748  -0.460 131.652  0.00  0.00    +0.000 OA
ATOM     43  H   UNL     1      -8.718  -1.579 131.135  0.00  0.00    +0.000 HD
BRANCH  41  44
ATOM     44  C   UNL     1      -6.353  -2.683 131.618  0.00  0.00    +0.000 A 
ATOM     45  C   UNL     1      -6.228  -3.306 132.861  0.00  0.00    +0.000 A 
ATOM     46  C   UNL     1      -5.655  -4.574 132.948  0.00  0.00    +0.000 A 
ATOM     47  C   UNL     1      -5.462  -5.319 131.800  0.00  0.00    +0.000 A 
ATOM     48  C   UNL     1      -5.873  -4.801 130.575  0.00  0.00    +0.000 A 
ATOM     49  C   UNL     1      -6.199  -3.441 130.442  0.00  0.00    +0.000 A 
BRANCH  49  50
ATOM     50  C   UNL     1      -6.328  -2.834 129.108  0.00  0.00    +0.000 A 
ATOM     51  C   UNL     1      -7.565  -2.799 128.438  0.00  0.00    +0.000 A 
ATOM     52  C   UNL     1      -7.637  -2.530 127.074  0.00  0.00    +0.000 A 
ATOM     53  C   UNL     1      -6.522  -2.035 126.428  0.00  0.00    +0.000 A 
ATOM     54  C   UNL     1      -5.354  -1.824 127.150  0.00  0.00    +0.000 A 
ATOM     55  C   UNL     1      -5.217  -2.340 128.436  0.00  0.00    +0.000 A 
ENDBRANCH  49  50
ENDBRANCH  41  44
ENDBRANCH  37  40
ENDBRANCH  26  34
ENDBRANCH  19  21
ENDBRANCH  16  17
ENDBRANCH  15  16
ENDBRANCH  12  15
ENDBRANCH  10  11
ENDBRANCH   7  10
ENDBRANCH   4   5
ENDBRANCH   3   4
ENDBRANCH   2   3
ENDBRANCH   1   2
BRANCH   1  56
ATOM     56  C   UNL     1      -3.093   3.933 140.616  0.00  0.00    +0.000 C 
BRANCH  56  57
ATOM     57  O   UNL     1      -3.926   2.779 140.673  0.00  0.00    +0.000 OA
BRANCH  57  58
ATOM     58  C   UNL     1      -3.273   1.763 141.429  0.00  0.00    +0.000 C 
BRANCH  58  59
ATOM     59  C   UNL     1      -4.084   0.488 141.367  0.00  0.00    +0.000 C 
BRANCH  59  60
ATOM     60  O   UNL     1      -5.338   0.746 140.739  0.00  0.00    +0.000 OA
BRANCH  60  61
ATOM     61  C   UNL     1      -6.399   0.468 141.650  0.00  0.00    +0.000 C 
BRANCH  61  62
ATOM     62  C   UNL     1      -7.335   1.662 141.759  0.00  0.00    +0.000 C 
BRANCH  62  65
ATOM     63  C   UNL     1      -7.436   4.077 141.269  0.00  0.00    +0.000 C 
ATOM     64  O   UNL     1      -8.579   4.150 141.713  0.00  0.00    +0.000 OA
ATOM     65  N   UNL     1      -6.732   2.893 141.253  0.00  0.00    +0.000 N 
ATOM     66  H   UNL     1      -5.791   2.850 140.885  0.00  0.00    +0.000 HD
BRANCH  63  67
ATOM     67  C   UNL     1      -6.698   5.300 140.725  0.00  0.00    +0.000 C 
BRANCH  67  68
ATOM     68  C   UNL     1      -7.257   5.645 139.380  0.00  0.00    +0.000 C 
BRANCH  68  69
ATOM     69  C   UNL     1      -6.260   5.592 138.242  0.00  0.00    +0.000 C 
BRANCH  69  73
ATOM     70  N   UNL     1      -8.281   8.198 137.100  0.00  0.00    +0.000 N 
ATOM     71  C   UNL     1      -7.650   6.947 136.579  0.00  0.00    +0.000 C 
ATOM     72  C   UNL     1      -7.927   5.950 135.662  0.00  0.00    +0.000 C 
ATOM     73  C   UNL     1      -6.303   6.828 137.329  0.00  0.00    +0.000 C 
ATOM     74  C   UNL     1      -5.141   7.038 136.374  0.00  0.00    +0.000 C 
ATOM     75  C   UNL     1      -6.242   8.029 138.216  0.00  0.00    +0.000 A 
ATOM     76  C   UNL     1      -5.114   8.321 139.037  0.00  0.00    +0.000 A 
ATOM     77  C   UNL     1      -5.121   9.347 139.926  0.00  0.00    +0.000 A 
ATOM     78  C   UNL     1      -6.233  10.170 139.855  0.00  0.00    +0.000 A 
ATOM     79  C   UNL     1      -7.346   9.905 138.924  0.00  0.00    +0.000 A 
ATOM     80  C   UNL     1      -7.390   8.788 138.083  0.00  0.00    +0.000 A 
BRANCH  77  81
ATOM     81  S   UNL     1      -3.696   9.528 141.002  0.00  0.00    +0.000 S 
ATOM     82  O   UNL     1      -4.023  10.503 142.021  0.00  0.00    +0.000 OA
ATOM     83  O   UNL     1      -3.249   8.198 141.358  0.00  0.00    +0.000 OA
BRANCH  81  84
ATOM     84  O   UNL     1      -2.564  10.195 140.053  0.00  0.00    +0.000 OA
ATOM     85  H   UNL     1      -2.898  10.982 139.578  0.00  0.00    +0.000 HD
ENDBRANCH  81  84
ENDBRANCH  77  81
BRANCH  70  87
ATOM     86  C   UNL     1     -10.577   8.798 138.028  0.00  0.00    +0.000 C 
ATOM     87  C   UNL     1      -9.659   8.784 136.799  0.00  0.00    +0.000 C 
ENDBRANCH  70  87
BRANCH  72  88
ATOM     88  C   UNL     1      -7.078   4.746 135.319  0.00  0.00    +0.000 C 
ATOM     89  C   UNL     1      -7.413   3.722 134.511  0.00  0.00    +0.000 C 
BRANCH  89  90
ATOM     90  C   UNL     1      -6.480   2.634 134.278  0.00  0.00    +0.000 C 
ATOM     91  C   UNL     1      -5.908   1.830 135.174  0.00  0.00    +0.000 C 
BRANCH  91  92
ATOM     92  C   UNL     1      -4.909   0.656 135.323  0.00  0.00    +0.000 C 
ATOM     93  N   UNL     1      -5.152  -0.459 135.911  0.00  0.00    +0.000 N 
ATOM     94  C   UNL     1      -4.021  -1.302 136.119  0.00  0.00    +0.000 A 
ATOM     95  C   UNL     1      -2.732  -0.991 136.662  0.00  0.00    +0.000 A 
ATOM     96  C   UNL     1      -1.462  -1.673 136.339  0.00  0.00    +0.000 A 
ATOM     97  C   UNL     1      -1.496  -2.859 135.696  0.00  0.00    +0.000 A 
ATOM     98  C   UNL     1      -2.712  -2.897 135.057  0.00  0.00    +0.000 A 
ATOM     99  C   UNL     1      -3.636  -1.509 134.891  0.00  0.00    +0.000 A 
ATOM    100  C   UNL     1      -3.423   0.473 134.951  0.00  0.00    +0.000 C 
ATOM    101  C   UNL     1      -2.827   0.424 133.616  0.00  0.00    +0.000 C 
ATOM    102  C   UNL     1      -3.396   2.319 134.692  0.00  0.00    +0.000 C 
BRANCH  97 103
ATOM    103  S   UNL     1       0.025  -3.937 135.530  0.00  0.00    +0.000 S 
ATOM    104  O   UNL     1       0.510  -3.514 134.220  0.00  0.00    +0.000 OA
ATOM    105  O   UNL     1       0.856  -3.507 136.653  0.00  0.00    +0.000 OA
ATOM    106  O   UNL     1      -0.453  -5.314 135.607  0.00  0.00    +0.000 OA
ENDBRANCH  97 103
BRANCH  93 107
ATOM    107  C   UNL     1      -6.446  -1.121 136.016  0.00  0.00    +0.000 C 
ATOM    108  C   UNL     1      -6.566  -1.752 137.353  0.00  0.00    +0.000 C 
ENDBRANCH  93 107
ENDBRANCH  91  92
ENDBRANCH  89  90
ENDBRANCH  72  88
ENDBRANCH  69  73
ENDBRANCH  68  69
ENDBRANCH  67  68
ENDBRANCH  63  67
ENDBRANCH  62  65
ENDBRANCH  61  62
ENDBRANCH  60  61
ENDBRANCH  59  60
ENDBRANCH  58  59
ENDBRANCH  57  58
ENDBRANCH  56  57
ENDBRANCH   1  56
TORSDOF 34
ENDMDL
MODEL 5
REMARK VINA RESULT:      -8.9      2.684      6.262
REMARK  Name = CHEMBL2172290
REMARK  39 active torsions:
REMARK  status: ('A' for Active; 'I' for Inactive)
REMARK    1  A    between atoms: C_1  and  C_2
REMARK    2  A    between atoms: C_2  and  N_3
REMARK    3  A    between atoms: C_5  and  C_6
REMARK    4  A    between atoms: C_7  and  C_8
REMARK    5  A    between atoms: C_9  and  C_10
REMARK    6  A    between atoms: N_11  and  C_12
REMARK    7  A    between atoms: C_12  and  C_13
REMARK    8  A    between atoms: C_17  and  S_18
REMARK    9  A    between atoms: C_24  and  C_25
REMARK   10  A    between atoms: C_24  and  C_26
REMARK   11  A    between atoms: C_27  and  C_28
REMARK   12  A    between atoms: C_27  and  C_29
REMARK   13  A    between atoms: C_29  and  C_30
REMARK   14  A    between atoms: C_30  and  C_31
REMARK   15  A    between atoms: C_31  and  C_32
REMARK   16  A    between atoms: N_34  and  C_35
REMARK   17  A    between atoms: C_35  and  C_36
REMARK   18  A    between atoms: C_36  and  O_37
REMARK   19  A    between atoms: O_37  and  C_38
REMARK   20  A    between atoms: C_38  and  C_39
REMARK   21  A    between atoms: C_39  and  O_40
REMARK   22  A    between atoms: O_40  and  C_41
REMARK   23  A    between atoms: C_41  and  C_42
REMARK   24  A    between atoms: C_42  and  O_43
REMARK   25  A    between atoms: O_43  and  C_44
REMARK   26  A    between atoms: C_44  and  C_45
REMARK   27  A    between atoms: C_45  and  N_46
REMARK   28  A    between atoms: C_48  and  C_49
REMARK   29  A    between atoms: C_49  and  N_50
REMARK   30  A    between atoms: C_51  and  C_53
REMARK   31  A    between atoms: C_53  and  C_54
REMARK   32  A    between atoms: C_54  and  C_55
REMARK   33  A    between atoms: N_57  and  C_58
REMARK   34  A    between atoms: C_63  and  C_65
REMARK   35  A    between atoms: C_68  and  N_69
REMARK   36  A    between atoms: C_70  and  C_72
REMARK   37  A    between atoms: C_77  and  C_78
REMARK   38  A    between atoms: C_96  and  S_97
REMARK   39  A    between atoms: S_97  and  O_100
REMARK                            x       y       z     vdW  Elec       q    Type
REMARK                         _______ _______ _______ _____ _____    ______ ____
ROOT
ATOM      1  C   UNL     1      -9.481   3.111 129.974  0.00  0.00    +0.000 C 
ENDROOT
BRANCH   1   2
ATOM      2  O   UNL     1      -9.807   3.851 131.149  0.00  0.00    +0.000 OA
BRANCH   2   3
ATOM      3  C   UNL     1     -10.449   5.059 130.780  0.00  0.00    +0.000 C 
BRANCH   3   4
ATOM      4  C   UNL     1     -10.046   6.199 131.700  0.00  0.00    +0.000 C 
BRANCH   4   5
ATOM      5  N   UNL     1      -8.636   6.497 131.550  0.00  0.00    +0.000 N 
ATOM      6  C   UNL     1      -7.621   6.045 132.334  0.00  0.00    +0.000 A 
ATOM      7  C   UNL     1      -6.468   6.528 131.778  0.00  0.00    +0.000 A 
ATOM      8  N   UNL     1      -6.820   7.277 130.676  0.00  0.00    +0.000 NA
ATOM      9  N   UNL     1      -8.152   7.252 130.550  0.00  0.00    +0.000 NA
BRANCH   7  10
ATOM     10  C   UNL     1      -5.064   6.304 132.251  0.00  0.00    +0.000 C 
BRANCH  10  11
ATOM     11  N   UNL     1      -4.987   5.258 133.321  0.00  0.00    +0.000 N 
ATOM     12  C   UNL     1      -3.770   4.845 133.874  0.00  0.00    +0.000 C 
ATOM     13  O   UNL     1      -2.720   5.349 133.480  0.00  0.00    +0.000 OA
ATOM     14  H   UNL     1      -5.860   4.860 133.631  0.00  0.00    +0.000 HD
BRANCH  12  15
ATOM     15  C   UNL     1      -3.757   3.718 135.015  0.00  0.00    +0.000 C 
BRANCH  15  16
ATOM     16  C   UNL     1      -4.487   4.172 136.601  0.00  0.00    +0.000 C 
BRANCH  16  17
ATOM     17  C   UNL     1      -5.810   5.602 136.734  0.00  0.00    +0.000 C 
ATOM     18  O   UNL     1      -6.691   5.139 135.959  0.00  0.00    +0.000 OA
ATOM     19  N   UNL     1      -5.924   7.118 137.773  0.00  0.00    +0.000 N 
ATOM     20  H   UNL     1      -4.878   6.983 137.765  0.00  0.00    +0.000 HD
BRANCH  19  21
ATOM     21  C   UNL     1      -6.665   8.893 138.452  0.00  0.00    +0.000 C 
ATOM     22  C   UNL     1      -7.397   7.900 139.121  0.00  0.00    +0.000 C 
ATOM     23  C   UNL     1      -6.558   9.092 139.694  0.00  0.00    +0.000 C 
ATOM     24  C   UNL     1      -7.728   9.309 140.417  0.00  0.00    +0.000 C 
ATOM     25  N   UNL     1      -6.859  10.578 141.046  0.00  0.00    +0.000 N 
ATOM     26  C   UNL     1      -5.743  11.596 140.457  0.00  0.00    +0.000 C 
ATOM     27  O   UNL     1      -5.686  12.802 140.747  0.00  0.00    +0.000 OA
ATOM     28  C   UNL     1      -7.993  11.077 140.652  0.00  0.00    +0.000 A 
ATOM     29  C   UNL     1      -9.189  10.892 141.890  0.00  0.00    +0.000 A 
ATOM     30  C   UNL     1     -10.307  11.589 142.165  0.00  0.00    +0.000 A 
ATOM     31  C   UNL     1     -10.020  12.580 141.348  0.00  0.00    +0.000 A 
ATOM     32  C   UNL     1      -8.827  12.124 139.967  0.00  0.00    +0.000 A 
ATOM     33  C   UNL     1      -7.732  10.887 139.070  0.00  0.00    +0.000 A 
BRANCH  26  34
ATOM     34  C   UNL     1      -4.574  11.038 139.604  0.00  0.00    +0.000 A 
ATOM     35  C   UNL     1      -3.421  10.210 139.940  0.00  0.00    +0.000 A 
ATOM     36  C   UNL     1      -2.128  10.561 139.468  0.00  0.00    +0.000 A 
ATOM     37  C   UNL     1      -2.054  11.338 138.351  0.00  0.00    +0.000 A 
ATOM     38  C   UNL     1      -3.278  11.677 137.779  0.00  0.00    +0.000 A 
ATOM     39  C   UNL     1      -4.496  11.696 138.436  0.00  0.00    +0.000 A 
BRANCH  37  40
ATOM     40  N   UNL     1      -0.807  11.645 137.767  0.00  0.00    +0.000 N 
ATOM     41  C   UNL     1      -0.210  10.785 136.863  0.00  0.00    +0.000 C 
ATOM     42  O   UNL     1      -0.710   9.736 136.469  0.00  0.00    +0.000 OA
ATOM     43  H   UNL     1      -0.345  12.526 138.026  0.00  0.00    +0.000 HD
BRANCH  41  44
ATOM     44  C   UNL     1       1.103  11.147 136.283  0.00  0.00    +0.000 A 
ATOM     45  C   UNL     1       2.309  10.761 136.874  0.00  0.00    +0.000 A 
ATOM     46  C   UNL     1       3.504  11.350 136.462  0.00  0.00    +0.000 A 
ATOM     47  C   UNL     1       3.533  12.101 135.302  0.00  0.00    +0.000 A 
ATOM     48  C   UNL     1       2.371  12.232 134.546  0.00  0.00    +0.000 A 
ATOM     49  C   UNL     1       1.122  11.877 135.079  0.00  0.00    +0.000 A 
BRANCH  49  50
ATOM     50  C   UNL     1      -0.120  12.300 134.413  0.00  0.00    +0.000 A 
ATOM     51  C   UNL     1      -0.741  13.522 134.734  0.00  0.00    +0.000 A 
ATOM     52  C   UNL     1      -2.056  13.779 134.361  0.00  0.00    +0.000 A 
ATOM     53  C   UNL     1      -2.670  12.947 133.447  0.00  0.00    +0.000 A 
ATOM     54  C   UNL     1      -1.965  11.870 132.925  0.00  0.00    +0.000 A 
ATOM     55  C   UNL     1      -0.759  11.473 133.498  0.00  0.00    +0.000 A 
ENDBRANCH  49  50
ENDBRANCH  41  44
ENDBRANCH  37  40
ENDBRANCH  26  34
ENDBRANCH  19  21
ENDBRANCH  16  17
ENDBRANCH  15  16
ENDBRANCH  12  15
ENDBRANCH  10  11
ENDBRANCH   7  10
ENDBRANCH   4   5
ENDBRANCH   3   4
ENDBRANCH   2   3
ENDBRANCH   1   2
BRANCH   1  56
ATOM     56  C   UNL     1      -8.614   3.960 129.076  0.00  0.00    +0.000 C 
BRANCH  56  57
ATOM     57  O   UNL     1      -7.265   3.906 129.532  0.00  0.00    +0.000 OA
BRANCH  57  58
ATOM     58  C   UNL     1      -6.388   4.167 128.440  0.00  0.00    +0.000 C 
BRANCH  58  59
ATOM     59  C   UNL     1      -5.017   4.527 128.970  0.00  0.00    +0.000 C 
BRANCH  59  60
ATOM     60  O   UNL     1      -4.245   3.342 129.150  0.00  0.00    +0.000 OA
BRANCH  60  61
ATOM     61  C   UNL     1      -3.796   3.260 130.501  0.00  0.00    +0.000 C 
BRANCH  61  62
ATOM     62  C   UNL     1      -4.603   2.225 131.270  0.00  0.00    +0.000 C 
BRANCH  62  65
ATOM     63  C   UNL     1      -6.676   0.956 130.851  0.00  0.00    +0.000 C 
ATOM     64  O   UNL     1      -7.085   1.192 131.985  0.00  0.00    +0.000 OA
ATOM     65  N   UNL     1      -5.463   1.427 130.399  0.00  0.00    +0.000 N 
ATOM     66  H   UNL     1      -5.141   1.225 129.462  0.00  0.00    +0.000 HD
BRANCH  63  67
ATOM     67  C   UNL     1      -7.493   0.144 129.847  0.00  0.00    +0.000 C 
BRANCH  67  68
ATOM     68  C   UNL     1      -6.929   0.357 128.477  0.00  0.00    +0.000 C 
BRANCH  68  69
ATOM     69  C   UNL     1      -7.930   0.234 127.348  0.00  0.00    +0.000 C 
BRANCH  69  73
ATOM     70  N   UNL     1      -8.709  -0.937 124.155  0.00  0.00    +0.000 N 
ATOM     71  C   UNL     1      -8.249  -1.472 125.472  0.00  0.00    +0.000 C 
ATOM     72  C   UNL     1      -8.400  -2.613 126.238  0.00  0.00    +0.000 C 
ATOM     73  C   UNL     1      -7.339  -0.370 126.064  0.00  0.00    +0.000 C 
ATOM     74  C   UNL     1      -5.895  -0.837 126.105  0.00  0.00    +0.000 C 
ATOM     75  C   UNL     1      -7.323   0.716 125.038  0.00  0.00    +0.000 A 
ATOM     76  C   UNL     1      -6.538   1.897 125.182  0.00  0.00    +0.000 A 
ATOM     77  C   UNL     1      -6.626   2.927 124.302  0.00  0.00    +0.000 A 
ATOM     78  C   UNL     1      -7.404   2.672 123.185  0.00  0.00    +0.000 A 
ATOM     79  C   UNL     1      -8.128   1.400 123.007  0.00  0.00    +0.000 A 
ATOM     80  C   UNL     1      -8.127   0.379 123.964  0.00  0.00    +0.000 A 
BRANCH  77  81
ATOM     81  S   UNL     1      -5.694   4.417 124.667  0.00  0.00    +0.000 S 
ATOM     82  O   UNL     1      -6.615   5.409 125.179  0.00  0.00    +0.000 OA
ATOM     83  O   UNL     1      -4.524   4.024 125.423  0.00  0.00    +0.000 OA
BRANCH  81  84
ATOM     84  O   UNL     1      -5.194   4.938 123.215  0.00  0.00    +0.000 OA
ATOM     85  H   UNL     1      -4.236   5.134 123.204  0.00  0.00    +0.000 HD
ENDBRANCH  81  84
ENDBRANCH  77  81
BRANCH  70  87
ATOM     86  C   UNL     1      -9.521  -3.052 122.988  0.00  0.00    +0.000 C 
ATOM     87  C   UNL     1      -9.699  -1.537 123.159  0.00  0.00    +0.000 C 
ENDBRANCH  70  87
BRANCH  72  88
ATOM     88  C   UNL     1      -7.799  -2.904 127.595  0.00  0.00    +0.000 C 
ATOM     89  C   UNL     1      -8.445  -3.352 128.689  0.00  0.00    +0.000 C 
BRANCH  89  90
ATOM     90  C   UNL     1      -7.719  -3.588 129.925  0.00  0.00    +0.000 C 
ATOM     91  C   UNL     1      -6.652  -2.942 130.393  0.00  0.00    +0.000 C 
BRANCH  91  92
ATOM     92  C   UNL     1      -5.641  -2.909 131.566  0.00  0.00    +0.000 C 
ATOM     93  N   UNL     1      -5.942  -2.993 132.812  0.00  0.00    +0.000 N 
ATOM     94  C   UNL     1      -4.876  -2.721 133.719  0.00  0.00    +0.000 A 
ATOM     95  C   UNL     1      -3.945  -1.632 133.742  0.00  0.00    +0.000 A 
ATOM     96  C   UNL     1      -2.571  -1.670 134.282  0.00  0.00    +0.000 A 
ATOM     97  C   UNL     1      -2.200  -2.703 135.067  0.00  0.00    +0.000 A 
ATOM     98  C   UNL     1      -3.062  -3.728 134.760  0.00  0.00    +0.000 A 
ATOM     99  C   UNL     1      -4.027  -3.655 133.392  0.00  0.00    +0.000 A 
ATOM    100  C   UNL     1      -4.116  -2.693 131.646  0.00  0.00    +0.000 C 
ATOM    101  C   UNL     1      -3.054  -3.563 131.141  0.00  0.00    +0.000 C 
ATOM    102  C   UNL     1      -4.235  -2.123 129.876  0.00  0.00    +0.000 C 
BRANCH  97 103
ATOM    103  S   UNL     1      -0.603  -2.678 136.044  0.00  0.00    +0.000 S 
ATOM    104  O   UNL     1       0.104  -1.594 135.369  0.00  0.00    +0.000 OA
ATOM    105  O   UNL     1      -1.052  -2.360 137.398  0.00  0.00    +0.000 OA
ATOM    106  O   UNL     1      -0.018  -4.005 135.882  0.00  0.00    +0.000 OA
ENDBRANCH  97 103
BRANCH  93 107
ATOM    107  C   UNL     1      -7.078  -3.702 133.385  0.00  0.00    +0.000 C 
ATOM    108  C   UNL     1      -8.084  -2.718 133.853  0.00  0.00    +0.000 C 
ENDBRANCH  93 107
ENDBRANCH  91  92
ENDBRANCH  89  90
ENDBRANCH  72  88
ENDBRANCH  69  73
ENDBRANCH  68  69
ENDBRANCH  67  68
ENDBRANCH  63  67
ENDBRANCH  62  65
ENDBRANCH  61  62
ENDBRANCH  60  61
ENDBRANCH  59  60
ENDBRANCH  58  59
ENDBRANCH  57  58
ENDBRANCH  56  57
ENDBRANCH   1  56
TORSDOF 34
ENDMDL
MODEL 6
REMARK VINA RESULT:      -8.6      3.017      8.712
REMARK  Name = CHEMBL2172290
REMARK  39 active torsions:
REMARK  status: ('A' for Active; 'I' for Inactive)
REMARK    1  A    between atoms: C_1  and  C_2
REMARK    2  A    between atoms: C_2  and  N_3
REMARK    3  A    between atoms: C_5  and  C_6
REMARK    4  A    between atoms: C_7  and  C_8
REMARK    5  A    between atoms: C_9  and  C_10
REMARK    6  A    between atoms: N_11  and  C_12
REMARK    7  A    between atoms: C_12  and  C_13
REMARK    8  A    between atoms: C_17  and  S_18
REMARK    9  A    between atoms: C_24  and  C_25
REMARK   10  A    between atoms: C_24  and  C_26
REMARK   11  A    between atoms: C_27  and  C_28
REMARK   12  A    between atoms: C_27  and  C_29
REMARK   13  A    between atoms: C_29  and  C_30
REMARK   14  A    between atoms: C_30  and  C_31
REMARK   15  A    between atoms: C_31  and  C_32
REMARK   16  A    between atoms: N_34  and  C_35
REMARK   17  A    between atoms: C_35  and  C_36
REMARK   18  A    between atoms: C_36  and  O_37
REMARK   19  A    between atoms: O_37  and  C_38
REMARK   20  A    between atoms: C_38  and  C_39
REMARK   21  A    between atoms: C_39  and  O_40
REMARK   22  A    between atoms: O_40  and  C_41
REMARK   23  A    between atoms: C_41  and  C_42
REMARK   24  A    between atoms: C_42  and  O_43
REMARK   25  A    between atoms: O_43  and  C_44
REMARK   26  A    between atoms: C_44  and  C_45
REMARK   27  A    between atoms: C_45  and  N_46
REMARK   28  A    between atoms: C_48  and  C_49
REMARK   29  A    between atoms: C_49  and  N_50
REMARK   30  A    between atoms: C_51  and  C_53
REMARK   31  A    between atoms: C_53  and  C_54
REMARK   32  A    between atoms: C_54  and  C_55
REMARK   33  A    between atoms: N_57  and  C_58
REMARK   34  A    between atoms: C_63  and  C_65
REMARK   35  A    between atoms: C_68  and  N_69
REMARK   36  A    between atoms: C_70  and  C_72
REMARK   37  A    between atoms: C_77  and  C_78
REMARK   38  A    between atoms: C_96  and  S_97
REMARK   39  A    between atoms: S_97  and  O_100
REMARK                            x       y       z     vdW  Elec       q    Type
REMARK                         _______ _______ _______ _____ _____    ______ ____
ROOT
ATOM      1  C   UNL     1      -6.435   4.383 125.787  0.00  0.00    +0.000 C 
ENDROOT
BRANCH   1   2
ATOM      2  O   UNL     1      -5.835   4.789 127.016  0.00  0.00    +0.000 OA
BRANCH   2   3
ATOM      3  C   UNL     1      -6.546   4.214 128.098  0.00  0.00    +0.000 C 
BRANCH   3   4
ATOM      4  C   UNL     1      -8.047   4.311 127.883  0.00  0.00    +0.000 C 
BRANCH   4   5
ATOM      5  N   UNL     1      -8.742   4.301 129.154  0.00  0.00    +0.000 N 
ATOM      6  C   UNL     1      -8.798   5.315 130.060  0.00  0.00    +0.000 A 
ATOM      7  C   UNL     1      -9.615   4.880 131.067  0.00  0.00    +0.000 A 
ATOM      8  N   UNL     1     -10.022   3.602 130.750  0.00  0.00    +0.000 NA
ATOM      9  N   UNL     1      -9.477   3.259 129.577  0.00  0.00    +0.000 NA
BRANCH   7  10
ATOM     10  C   UNL     1     -10.018   5.627 132.301  0.00  0.00    +0.000 C 
BRANCH  10  11
ATOM     11  N   UNL     1      -8.835   6.067 133.108  0.00  0.00    +0.000 N 
ATOM     12  C   UNL     1      -8.253   5.250 134.084  0.00  0.00    +0.000 C 
ATOM     13  O   UNL     1      -8.717   4.131 134.297  0.00  0.00    +0.000 OA
ATOM     14  H   UNL     1      -8.469   6.987 132.916  0.00  0.00    +0.000 HD
BRANCH  12  15
ATOM     15  C   UNL     1      -6.989   5.782 134.915  0.00  0.00    +0.000 C 
BRANCH  15  16
ATOM     16  C   UNL     1      -7.303   6.298 136.615  0.00  0.00    +0.000 C 
BRANCH  16  17
ATOM     17  C   UNL     1      -6.278   5.560 138.103  0.00  0.00    +0.000 C 
ATOM     18  O   UNL     1      -6.567   6.407 138.992  0.00  0.00    +0.000 OA
ATOM     19  N   UNL     1      -5.297   4.016 138.312  0.00  0.00    +0.000 N 
ATOM     20  H   UNL     1      -5.236   4.129 137.266  0.00  0.00    +0.000 HD
BRANCH  19  21
ATOM     21  C   UNL     1      -4.057   2.671 139.216  0.00  0.00    +0.000 C 
ATOM     22  C   UNL     1      -4.761   3.292 140.259  0.00  0.00    +0.000 C 
ATOM     23  C   UNL     1      -4.625   1.774 139.897  0.00  0.00    +0.000 C 
ATOM     24  C   UNL     1      -4.299   1.685 141.248  0.00  0.00    +0.000 C 
ATOM     25  N   UNL     1      -4.153   0.068 140.894  0.00  0.00    +0.000 N 
ATOM     26  C   UNL     1      -3.656  -0.773 139.601  0.00  0.00    +0.000 C 
ATOM     27  O   UNL     1      -2.989  -1.818 139.670  0.00  0.00    +0.000 OA
ATOM     28  C   UNL     1      -3.055   0.405 141.503  0.00  0.00    +0.000 A 
ATOM     29  C   UNL     1      -3.273   0.316 143.219  0.00  0.00    +0.000 A 
ATOM     30  C   UNL     1      -2.397   0.122 144.222  0.00  0.00    +0.000 A 
ATOM     31  C   UNL     1      -1.404  -0.229 143.433  0.00  0.00    +0.000 A 
ATOM     32  C   UNL     1      -1.561   0.397 141.667  0.00  0.00    +0.000 A 
ATOM     33  C   UNL     1      -2.476   1.341 140.322  0.00  0.00    +0.000 A 
BRANCH  26  34
ATOM     34  C   UNL     1      -4.152  -0.367 138.188  0.00  0.00    +0.000 A 
ATOM     35  C   UNL     1      -5.474  -0.371 137.573  0.00  0.00    +0.000 A 
ATOM     36  C   UNL     1      -5.653  -0.899 136.267  0.00  0.00    +0.000 A 
ATOM     37  C   UNL     1      -4.567  -0.936 135.447  0.00  0.00    +0.000 A 
ATOM     38  C   UNL     1      -3.394  -0.411 135.987  0.00  0.00    +0.000 A 
ATOM     39  C   UNL     1      -3.115  -0.288 137.337  0.00  0.00    +0.000 A 
BRANCH  37  40
ATOM     40  N   UNL     1      -4.688  -1.355 134.105  0.00  0.00    +0.000 N 
ATOM     41  C   UNL     1      -3.904  -2.376 133.601  0.00  0.00    +0.000 C 
ATOM     42  O   UNL     1      -3.091  -3.016 134.260  0.00  0.00    +0.000 OA
ATOM     43  H   UNL     1      -5.376  -0.883 133.502  0.00  0.00    +0.000 HD
BRANCH  41  44
ATOM     44  C   UNL     1      -4.061  -2.774 132.184  0.00  0.00    +0.000 A 
ATOM     45  C   UNL     1      -3.146  -2.396 131.199  0.00  0.00    +0.000 A 
ATOM     46  C   UNL     1      -3.472  -2.549 129.852  0.00  0.00    +0.000 A 
ATOM     47  C   UNL     1      -4.567  -3.313 129.494  0.00  0.00    +0.000 A 
ATOM     48  C   UNL     1      -5.310  -3.943 130.488  0.00  0.00    +0.000 A 
ATOM     49  C   UNL     1      -5.158  -3.586 131.838  0.00  0.00    +0.000 A 
BRANCH  49  50
ATOM     50  C   UNL     1      -6.146  -4.018 132.839  0.00  0.00    +0.000 A 
ATOM     51  C   UNL     1      -7.363  -3.331 133.007  0.00  0.00    +0.000 A 
ATOM     52  C   UNL     1      -8.145  -3.521 134.142  0.00  0.00    +0.000 A 
ATOM     53  C   UNL     1      -7.863  -4.580 134.982  0.00  0.00    +0.000 A 
ATOM     54  C   UNL     1      -6.803  -5.426 134.680  0.00  0.00    +0.000 A 
ATOM     55  C   UNL     1      -5.877  -5.074 133.701  0.00  0.00    +0.000 A 
ENDBRANCH  49  50
ENDBRANCH  41  44
ENDBRANCH  37  40
ENDBRANCH  26  34
ENDBRANCH  19  21
ENDBRANCH  16  17
ENDBRANCH  15  16
ENDBRANCH  12  15
ENDBRANCH  10  11
ENDBRANCH   7  10
ENDBRANCH   4   5
ENDBRANCH   3   4
ENDBRANCH   2   3
ENDBRANCH   1   2
BRANCH   1  56
ATOM     56  C   UNL     1      -5.356   4.180 124.750  0.00  0.00    +0.000 C 
BRANCH  56  57
ATOM     57  O   UNL     1      -5.668   4.943 123.588  0.00  0.00    +0.000 OA
BRANCH  57  58
ATOM     58  C   UNL     1      -4.894   4.466 122.490  0.00  0.00    +0.000 C 
BRANCH  58  59
ATOM     59  C   UNL     1      -5.819   3.976 121.397  0.00  0.00    +0.000 C 
BRANCH  59  60
ATOM     60  O   UNL     1      -6.751   3.043 121.939  0.00  0.00    +0.000 OA
BRANCH  60  61
ATOM     61  C   UNL     1      -8.080   3.458 121.635  0.00  0.00    +0.000 C 
BRANCH  61  62
ATOM     62  C   UNL     1      -9.086   2.423 122.116  0.00  0.00    +0.000 C 
BRANCH  62  65
ATOM     63  C   UNL     1      -9.706   1.171 124.148  0.00  0.00    +0.000 C 
ATOM     64  O   UNL     1     -10.365   0.370 123.490  0.00  0.00    +0.000 OA
ATOM     65  N   UNL     1      -9.031   2.219 123.561  0.00  0.00    +0.000 N 
ATOM     66  H   UNL     1      -8.491   2.869 124.117  0.00  0.00    +0.000 HD
BRANCH  63  67
ATOM     67  C   UNL     1      -9.565   1.051 125.665  0.00  0.00    +0.000 C 
BRANCH  67  68
ATOM     68  C   UNL     1      -8.111   0.961 126.011  0.00  0.00    +0.000 C 
BRANCH  68  69
ATOM     69  C   UNL     1      -7.815   0.785 127.484  0.00  0.00    +0.000 C 
BRANCH  69  73
ATOM     70  N   UNL     1      -8.015  -2.498 128.648  0.00  0.00    +0.000 N 
ATOM     71  C   UNL     1      -7.485  -1.173 129.093  0.00  0.00    +0.000 C 
ATOM     72  C   UNL     1      -7.318  -0.465 130.269  0.00  0.00    +0.000 C 
ATOM     73  C   UNL     1      -6.996  -0.476 127.802  0.00  0.00    +0.000 C 
ATOM     74  C   UNL     1      -5.483  -0.351 127.805  0.00  0.00    +0.000 C 
ATOM     75  C   UNL     1      -7.259  -1.456 126.705  0.00  0.00    +0.000 A 
ATOM     76  C   UNL     1      -6.889  -1.211 125.351  0.00  0.00    +0.000 A 
ATOM     77  C   UNL     1      -7.241  -2.054 124.348  0.00  0.00    +0.000 A 
ATOM     78  C   UNL     1      -7.840  -3.233 124.762  0.00  0.00    +0.000 A 
ATOM     79  C   UNL     1      -8.123  -3.511 126.183  0.00  0.00    +0.000 A 
ATOM     80  C   UNL     1      -7.859  -2.596 127.208  0.00  0.00    +0.000 A 
BRANCH  77  81
ATOM     81  S   UNL     1      -6.839  -1.567 122.668  0.00  0.00    +0.000 S 
ATOM     82  O   UNL     1      -6.813  -0.121 122.612  0.00  0.00    +0.000 OA
ATOM     83  O   UNL     1      -5.694  -2.351 122.251  0.00  0.00    +0.000 OA
BRANCH  81  84
ATOM     84  O   UNL     1      -8.116  -2.053 121.797  0.00  0.00    +0.000 OA
ATOM     85  H   UNL     1      -7.932  -2.048 120.836  0.00  0.00    +0.000 HD
ENDBRANCH  81  84
ENDBRANCH  77  81
BRANCH  70  87
ATOM     86  C   UNL     1      -9.749  -4.366 128.645  0.00  0.00    +0.000 C 
ATOM     87  C   UNL     1      -8.713  -3.584 129.464  0.00  0.00    +0.000 C 
ENDBRANCH  70  87
BRANCH  72  88
ATOM     88  C   UNL     1      -6.732   0.919 130.441  0.00  0.00    +0.000 C 
ATOM     89  C   UNL     1      -5.436   1.232 130.631  0.00  0.00    +0.000 C 
BRANCH  89  90
ATOM     90  C   UNL     1      -5.029   2.619 130.776  0.00  0.00    +0.000 C 
ATOM     91  C   UNL     1      -3.927   3.101 131.348  0.00  0.00    +0.000 C 
BRANCH  91  92
ATOM     92  C   UNL     1      -3.192   4.416 131.707  0.00  0.00    +0.000 C 
ATOM     93  N   UNL     1      -2.856   5.334 130.873  0.00  0.00    +0.000 N 
ATOM     94  C   UNL     1      -1.999   6.349 131.390  0.00  0.00    +0.000 A 
ATOM     95  C   UNL     1      -0.793   6.230 132.154  0.00  0.00    +0.000 A 
ATOM     96  C   UNL     1      -0.277   7.213 133.128  0.00  0.00    +0.000 A 
ATOM     97  C   UNL     1      -0.798   8.458 133.146  0.00  0.00    +0.000 A 
ATOM     98  C   UNL     1      -2.039   8.347 132.570  0.00  0.00    +0.000 A 
ATOM     99  C   UNL     1      -2.745   6.845 132.337  0.00  0.00    +0.000 A 
ATOM    100  C   UNL     1      -2.591   4.975 133.013  0.00  0.00    +0.000 C 
ATOM    101  C   UNL     1      -3.297   5.382 134.228  0.00  0.00    +0.000 C 
ATOM    102  C   UNL     1      -2.803   3.251 133.692  0.00  0.00    +0.000 C 
BRANCH  97 103
ATOM    103  S   UNL     1      -0.000   9.848 134.115  0.00  0.00    +0.000 S 
ATOM    104  O   UNL     1      -1.140  10.745 134.280  0.00  0.00    +0.000 OA
ATOM    105  O   UNL     1       0.434   9.185 135.342  0.00  0.00    +0.000 OA
ATOM    106  O   UNL     1       1.077  10.353 133.270  0.00  0.00    +0.000 OA
ENDBRANCH  97 103
BRANCH  93 107
ATOM    107  C   UNL     1      -3.545   5.675 129.635  0.00  0.00    +0.000 C 
ATOM    108  C   UNL     1      -2.654   5.389 128.484  0.00  0.00    +0.000 C 
ENDBRANCH  93 107
ENDBRANCH  91  92
ENDBRANCH  89  90
ENDBRANCH  72  88
ENDBRANCH  69  73
ENDBRANCH  68  69
ENDBRANCH  67  68
ENDBRANCH  63  67
ENDBRANCH  62  65
ENDBRANCH  61  62
ENDBRANCH  60  61
ENDBRANCH  59  60
ENDBRANCH  58  59
ENDBRANCH  57  58
ENDBRANCH  56  57
ENDBRANCH   1  56
TORSDOF 34
ENDMDL
MODEL 7
REMARK VINA RESULT:      -8.6      3.806      9.264
REMARK  Name = CHEMBL2172290
REMARK  39 active torsions:
REMARK  status: ('A' for Active; 'I' for Inactive)
REMARK    1  A    between atoms: C_1  and  C_2
REMARK    2  A    between atoms: C_2  and  N_3
REMARK    3  A    between atoms: C_5  and  C_6
REMARK    4  A    between atoms: C_7  and  C_8
REMARK    5  A    between atoms: C_9  and  C_10
REMARK    6  A    between atoms: N_11  and  C_12
REMARK    7  A    between atoms: C_12  and  C_13
REMARK    8  A    between atoms: C_17  and  S_18
REMARK    9  A    between atoms: C_24  and  C_25
REMARK   10  A    between atoms: C_24  and  C_26
REMARK   11  A    between atoms: C_27  and  C_28
REMARK   12  A    between atoms: C_27  and  C_29
REMARK   13  A    between atoms: C_29  and  C_30
REMARK   14  A    between atoms: C_30  and  C_31
REMARK   15  A    between atoms: C_31  and  C_32
REMARK   16  A    between atoms: N_34  and  C_35
REMARK   17  A    between atoms: C_35  and  C_36
REMARK   18  A    between atoms: C_36  and  O_37
REMARK   19  A    between atoms: O_37  and  C_38
REMARK   20  A    between atoms: C_38  and  C_39
REMARK   21  A    between atoms: C_39  and  O_40
REMARK   22  A    between atoms: O_40  and  C_41
REMARK   23  A    between atoms: C_41  and  C_42
REMARK   24  A    between atoms: C_42  and  O_43
REMARK   25  A    between atoms: O_43  and  C_44
REMARK   26  A    between atoms: C_44  and  C_45
REMARK   27  A    between atoms: C_45  and  N_46
REMARK   28  A    between atoms: C_48  and  C_49
REMARK   29  A    between atoms: C_49  and  N_50
REMARK   30  A    between atoms: C_51  and  C_53
REMARK   31  A    between atoms: C_53  and  C_54
REMARK   32  A    between atoms: C_54  and  C_55
REMARK   33  A    between atoms: N_57  and  C_58
REMARK   34  A    between atoms: C_63  and  C_65
REMARK   35  A    between atoms: C_68  and  N_69
REMARK   36  A    between atoms: C_70  and  C_72
REMARK   37  A    between atoms: C_77  and  C_78
REMARK   38  A    between atoms: C_96  and  S_97
REMARK   39  A    between atoms: S_97  and  O_100
REMARK                            x       y       z     vdW  Elec       q    Type
REMARK                         _______ _______ _______ _____ _____    ______ ____
ROOT
ATOM      1  C   UNL     1      -6.380   4.199 126.417  0.00  0.00    +0.000 C 
ENDROOT
BRANCH   1   2
ATOM      2  O   UNL     1      -5.864   4.804 127.601  0.00  0.00    +0.000 OA
BRANCH   2   3
ATOM      3  C   UNL     1      -6.510   4.247 128.733  0.00  0.00    +0.000 C 
BRANCH   3   4
ATOM      4  C   UNL     1      -7.994   4.572 128.734  0.00  0.00    +0.000 C 
BRANCH   4   5
ATOM      5  N   UNL     1      -8.641   3.984 129.889  0.00  0.00    +0.000 N 
ATOM      6  C   UNL     1      -8.088   3.779 131.115  0.00  0.00    +0.000 A 
ATOM      7  C   UNL     1      -9.084   3.266 131.900  0.00  0.00    +0.000 A 
ATOM      8  N   UNL     1     -10.215   3.159 131.119  0.00  0.00    +0.000 NA
ATOM      9  N   UNL     1      -9.928   3.600 129.889  0.00  0.00    +0.000 NA
BRANCH   7  10
ATOM     10  C   UNL     1      -8.999   2.881 133.346  0.00  0.00    +0.000 C 
BRANCH  10  11
ATOM     11  N   UNL     1      -8.991   4.076 134.250  0.00  0.00    +0.000 N 
ATOM     12  C   UNL     1      -7.806   4.608 134.771  0.00  0.00    +0.000 C 
ATOM     13  O   UNL     1      -6.729   4.089 134.486  0.00  0.00    +0.000 OA
ATOM     14  H   UNL     1      -9.886   4.487 134.469  0.00  0.00    +0.000 HD
BRANCH  12  15
ATOM     15  C   UNL     1      -7.867   5.887 135.736  0.00  0.00    +0.000 C 
BRANCH  15  16
ATOM     16  C   UNL     1      -6.499   6.085 136.896  0.00  0.00    +0.000 C 
BRANCH  16  17
ATOM     17  C   UNL     1      -6.205   7.770 137.837  0.00  0.00    +0.000 C 
ATOM     18  O   UNL     1      -4.951   7.717 137.965  0.00  0.00    +0.000 OA
ATOM     19  N   UNL     1      -7.315   9.167 138.293  0.00  0.00    +0.000 N 
ATOM     20  H   UNL     1      -8.021   8.386 138.235  0.00  0.00    +0.000 HD
BRANCH  19  21
ATOM     21  C   UNL     1      -7.883  10.925 139.156  0.00  0.00    +0.000 C 
ATOM     22  C   UNL     1      -8.708   9.944 139.726  0.00  0.00    +0.000 C 
ATOM     23  C   UNL     1      -7.759  10.985 140.411  0.00  0.00    +0.000 C 
ATOM     24  C   UNL     1      -8.905  11.238 141.162  0.00  0.00    +0.000 C 
ATOM     25  N   UNL     1      -7.918  12.347 141.910  0.00  0.00    +0.000 N 
ATOM     26  C   UNL     1      -6.709  13.308 141.419  0.00  0.00    +0.000 C 
ATOM     27  O   UNL     1      -6.537  14.467 141.829  0.00  0.00    +0.000 OA
ATOM     28  C   UNL     1      -8.999  12.990 141.578  0.00  0.00    +0.000 A 
ATOM     29  C   UNL     1     -10.208  12.794 142.802  0.00  0.00    +0.000 A 
ATOM     30  C   UNL     1     -11.255  13.563 143.156  0.00  0.00    +0.000 A 
ATOM     31  C   UNL     1     -10.873  14.600 142.441  0.00  0.00    +0.000 A 
ATOM     32  C   UNL     1      -9.728  14.176 141.012  0.00  0.00    +0.000 A 
ATOM     33  C   UNL     1      -8.755  12.938 139.983  0.00  0.00    +0.000 A 
BRANCH  26  34
ATOM     34  C   UNL     1      -5.598  12.731 140.503  0.00  0.00    +0.000 A 
ATOM     35  C   UNL     1      -4.697  11.594 140.649  0.00  0.00    +0.000 A 
ATOM     36  C   UNL     1      -3.314  11.736 140.362  0.00  0.00    +0.000 A 
ATOM     37  C   UNL     1      -2.945  12.738 139.516  0.00  0.00    +0.000 A 
ATOM     38  C   UNL     1      -3.994  13.499 139.001  0.00  0.00    +0.000 A 
ATOM     39  C   UNL     1      -5.246  13.635 139.574  0.00  0.00    +0.000 A 
BRANCH  37  40
ATOM     40  N   UNL     1      -1.603  12.881 139.106  0.00  0.00    +0.000 N 
ATOM     41  C   UNL     1      -1.153  12.318 137.925  0.00  0.00    +0.000 C 
ATOM     42  O   UNL     1      -1.861  11.703 137.135  0.00  0.00    +0.000 OA
ATOM     43  H   UNL     1      -0.959  13.414 139.705  0.00  0.00    +0.000 HD
BRANCH  41  44
ATOM     44  C   UNL     1       0.267  12.488 137.541  0.00  0.00    +0.000 A 
ATOM     45  C   UNL     1       1.225  11.500 137.782  0.00  0.00    +0.000 A 
ATOM     46  C   UNL     1       2.581  11.804 137.665  0.00  0.00    +0.000 A 
ATOM     47  C   UNL     1       2.969  12.983 137.057  0.00  0.00    +0.000 A 
ATOM     48  C   UNL     1       1.996  13.836 136.543  0.00  0.00    +0.000 A 
ATOM     49  C   UNL     1       0.644  13.676 136.886  0.00  0.00    +0.000 A 
BRANCH  49  50
ATOM     50  C   UNL     1      -0.329  14.743 136.603  0.00  0.00    +0.000 A 
ATOM     51  C   UNL     1      -0.578  15.769 137.534  0.00  0.00    +0.000 A 
ATOM     52  C   UNL     1      -1.703  16.581 137.424  0.00  0.00    +0.000 A 
ATOM     53  C   UNL     1      -2.437  16.556 136.256  0.00  0.00    +0.000 A 
ATOM     54  C   UNL     1      -2.042  15.719 135.220  0.00  0.00    +0.000 A 
ATOM     55  C   UNL     1      -1.086  14.731 135.438  0.00  0.00    +0.000 A 
ENDBRANCH  49  50
ENDBRANCH  41  44
ENDBRANCH  37  40
ENDBRANCH  26  34
ENDBRANCH  19  21
ENDBRANCH  16  17
ENDBRANCH  15  16
ENDBRANCH  12  15
ENDBRANCH  10  11
ENDBRANCH   7  10
ENDBRANCH   4   5
ENDBRANCH   3   4
ENDBRANCH   2   3
ENDBRANCH   1   2
BRANCH   1  56
ATOM     56  C   UNL     1      -5.357   4.313 125.313  0.00  0.00    +0.000 C 
BRANCH  56  57
ATOM     57  O   UNL     1      -5.973   4.863 124.152  0.00  0.00    +0.000 OA
BRANCH  57  58
ATOM     58  C   UNL     1      -5.297   4.390 122.990  0.00  0.00    +0.000 C 
BRANCH  58  59
ATOM     59  C   UNL     1      -6.301   3.786 122.033  0.00  0.00    +0.000 C 
BRANCH  59  60
ATOM     60  O   UNL     1      -6.778   2.548 122.555  0.00  0.00    +0.000 OA
BRANCH  60  61
ATOM     61  C   UNL     1      -8.201   2.574 122.634  0.00  0.00    +0.000 C 
BRANCH  61  62
ATOM     62  C   UNL     1      -8.706   1.451 123.527  0.00  0.00    +0.000 C 
BRANCH  62  65
ATOM     63  C   UNL     1      -9.266   1.065 125.897  0.00  0.00    +0.000 C 
ATOM     64  O   UNL     1     -10.066   0.182 125.596  0.00  0.00    +0.000 OA
ATOM     65  N   UNL     1      -8.540   1.749 124.948  0.00  0.00    +0.000 N 
ATOM     66  H   UNL     1      -7.884   2.472 125.212  0.00  0.00    +0.000 HD
BRANCH  63  67
ATOM     67  C   UNL     1      -8.998   1.453 127.351  0.00  0.00    +0.000 C 
BRANCH  67  68
ATOM     68  C   UNL     1      -7.724   0.808 127.798  0.00  0.00    +0.000 C 
BRANCH  68  69
ATOM     69  C   UNL     1      -7.668   0.458 129.270  0.00  0.00    +0.000 C 
BRANCH  69  73
ATOM     70  N   UNL     1      -7.545  -2.515 131.093  0.00  0.00    +0.000 N 
ATOM     71  C   UNL     1      -6.880  -1.177 131.070  0.00  0.00    +0.000 C 
ATOM     72  C   UNL     1      -6.339  -0.272 131.965  0.00  0.00    +0.000 C 
ATOM     73  C   UNL     1      -6.811  -0.782 129.577  0.00  0.00    +0.000 C 
ATOM     74  C   UNL     1      -5.373  -0.781 129.091  0.00  0.00    +0.000 C 
ATOM     75  C   UNL     1      -7.424  -1.928 128.841  0.00  0.00    +0.000 A 
ATOM     76  C   UNL     1      -7.496  -1.978 127.418  0.00  0.00    +0.000 A 
ATOM     77  C   UNL     1      -8.162  -2.966 126.768  0.00  0.00    +0.000 A 
ATOM     78  C   UNL     1      -8.619  -3.991 127.581  0.00  0.00    +0.000 A 
ATOM     79  C   UNL     1      -8.444  -3.968 129.045  0.00  0.00    +0.000 A 
ATOM     80  C   UNL     1      -7.853  -2.899 129.728  0.00  0.00    +0.000 A 
BRANCH  77  81
ATOM     81  S   UNL     1      -8.302  -2.844 124.983  0.00  0.00    +0.000 S 
ATOM     82  O   UNL     1      -7.541  -1.693 124.549  0.00  0.00    +0.000 OA
ATOM     83  O   UNL     1      -8.043  -4.160 124.436  0.00  0.00    +0.000 OA
BRANCH  81  84
ATOM     84  O   UNL     1      -9.866  -2.501 124.730  0.00  0.00    +0.000 OA
ATOM     85  H   UNL     1     -10.340  -2.308 125.564  0.00  0.00    +0.000 HD
ENDBRANCH  81  84
ENDBRANCH  77  81
BRANCH  70  87
ATOM     86  C   UNL     1      -6.821  -3.608 133.279  0.00  0.00    +0.000 C 
ATOM     87  C   UNL     1      -7.968  -3.364 132.289  0.00  0.00    +0.000 C 
ENDBRANCH  70  87
BRANCH  72  88
ATOM     88  C   UNL     1      -5.705   1.067 131.659  0.00  0.00    +0.000 C 
ATOM     89  C   UNL     1      -4.391   1.364 131.671  0.00  0.00    +0.000 C 
BRANCH  89  90
ATOM     90  C   UNL     1      -3.938   2.706 131.348  0.00  0.00    +0.000 C 
ATOM     91  C   UNL     1      -3.607   3.689 132.183  0.00  0.00    +0.000 C 
BRANCH  91  92
ATOM     92  C   UNL     1      -3.137   5.164 132.234  0.00  0.00    +0.000 C 
ATOM     93  N   UNL     1      -2.736   5.854 131.228  0.00  0.00    +0.000 N 
ATOM     94  C   UNL     1      -2.148   7.114 131.544  0.00  0.00    +0.000 A 
ATOM     95  C   UNL     1      -1.141   7.441 132.509  0.00  0.00    +0.000 A 
ATOM     96  C   UNL     1      -0.983   8.736 133.200  0.00  0.00    +0.000 A 
ATOM     97  C   UNL     1      -1.641   9.818 132.732  0.00  0.00    +0.000 A 
ATOM     98  C   UNL     1      -2.697   9.321 132.008  0.00  0.00    +0.000 A 
ATOM     99  C   UNL     1      -3.144   7.711 132.138  0.00  0.00    +0.000 A 
ATOM    100  C   UNL     1      -2.921   6.169 133.384  0.00  0.00    +0.000 C 
ATOM    101  C   UNL     1      -3.926   6.766 134.263  0.00  0.00    +0.000 C 
ATOM    102  C   UNL     1      -3.068   4.700 134.521  0.00  0.00    +0.000 C 
BRANCH  97 103
ATOM    103  S   UNL     1      -1.259  11.547 133.339  0.00  0.00    +0.000 S 
ATOM    104  O   UNL     1      -2.572  11.951 133.835  0.00  0.00    +0.000 OA
ATOM    105  O   UNL     1      -0.261  11.315 134.382  0.00  0.00    +0.000 OA
ATOM    106  O   UNL     1      -0.776  12.279 132.173  0.00  0.00    +0.000 OA
ENDBRANCH  97 103
BRANCH  93 107
ATOM    107  C   UNL     1      -3.163   5.699 129.844  0.00  0.00    +0.000 C 
ATOM    108  C   UNL     1      -2.169   6.340 128.949  0.00  0.00    +0.000 C 
ENDBRANCH  93 107
ENDBRANCH  91  92
ENDBRANCH  89  90
ENDBRANCH  72  88
ENDBRANCH  69  73
ENDBRANCH  68  69
ENDBRANCH  67  68
ENDBRANCH  63  67
ENDBRANCH  62  65
ENDBRANCH  61  62
ENDBRANCH  60  61
ENDBRANCH  59  60
ENDBRANCH  58  59
ENDBRANCH  57  58
ENDBRANCH  56  57
ENDBRANCH   1  56
TORSDOF 34
ENDMDL
MODEL 8
REMARK VINA RESULT:      -8.5      3.182     11.167
REMARK  Name = CHEMBL2172290
REMARK  39 active torsions:
REMARK  status: ('A' for Active; 'I' for Inactive)
REMARK    1  A    between atoms: C_1  and  C_2
REMARK    2  A    between atoms: C_2  and  N_3
REMARK    3  A    between atoms: C_5  and  C_6
REMARK    4  A    between atoms: C_7  and  C_8
REMARK    5  A    between atoms: C_9  and  C_10
REMARK    6  A    between atoms: N_11  and  C_12
REMARK    7  A    between atoms: C_12  and  C_13
REMARK    8  A    between atoms: C_17  and  S_18
REMARK    9  A    between atoms: C_24  and  C_25
REMARK   10  A    between atoms: C_24  and  C_26
REMARK   11  A    between atoms: C_27  and  C_28
REMARK   12  A    between atoms: C_27  and  C_29
REMARK   13  A    between atoms: C_29  and  C_30
REMARK   14  A    between atoms: C_30  and  C_31
REMARK   15  A    between atoms: C_31  and  C_32
REMARK   16  A    between atoms: N_34  and  C_35
REMARK   17  A    between atoms: C_35  and  C_36
REMARK   18  A    between atoms: C_36  and  O_37
REMARK   19  A    between atoms: O_37  and  C_38
REMARK   20  A    between atoms: C_38  and  C_39
REMARK   21  A    between atoms: C_39  and  O_40
REMARK   22  A    between atoms: O_40  and  C_41
REMARK   23  A    between atoms: C_41  and  C_42
REMARK   24  A    between atoms: C_42  and  O_43
REMARK   25  A    between atoms: O_43  and  C_44
REMARK   26  A    between atoms: C_44  and  C_45
REMARK   27  A    between atoms: C_45  and  N_46
REMARK   28  A    between atoms: C_48  and  C_49
REMARK   29  A    between atoms: C_49  and  N_50
REMARK   30  A    between atoms: C_51  and  C_53
REMARK   31  A    between atoms: C_53  and  C_54
REMARK   32  A    between atoms: C_54  and  C_55
REMARK   33  A    between atoms: N_57  and  C_58
REMARK   34  A    between atoms: C_63  and  C_65
REMARK   35  A    between atoms: C_68  and  N_69
REMARK   36  A    between atoms: C_70  and  C_72
REMARK   37  A    between atoms: C_77  and  C_78
REMARK   38  A    between atoms: C_96  and  S_97
REMARK   39  A    between atoms: S_97  and  O_100
REMARK                            x       y       z     vdW  Elec       q    Type
REMARK                         _______ _______ _______ _____ _____    ______ ____
ROOT
ATOM      1  C   UNL     1      -2.489   3.720 139.753  0.00  0.00    +0.000 C 
ENDROOT
BRANCH   1   2
ATOM      2  O   UNL     1      -2.118   4.678 138.763  0.00  0.00    +0.000 OA
BRANCH   2   3
ATOM      3  C   UNL     1      -1.691   5.870 139.399  0.00  0.00    +0.000 C 
BRANCH   3   4
ATOM      4  C   UNL     1      -0.365   6.349 138.835  0.00  0.00    +0.000 C 
BRANCH   4   5
ATOM      5  N   UNL     1      -0.564   7.508 137.989  0.00  0.00    +0.000 N 
ATOM      6  C   UNL     1      -0.115   7.674 136.715  0.00  0.00    +0.000 A 
ATOM      7  C   UNL     1      -0.595   8.884 136.297  0.00  0.00    +0.000 A 
ATOM      8  N   UNL     1      -1.313   9.430 137.340  0.00  0.00    +0.000 NA
ATOM      9  N   UNL     1      -1.283   8.577 138.371  0.00  0.00    +0.000 NA
BRANCH   7  10
ATOM     10  C   UNL     1      -0.398   9.531 134.960  0.00  0.00    +0.000 C 
BRANCH  10  11
ATOM     11  N   UNL     1      -1.258   8.911 133.901  0.00  0.00    +0.000 N 
ATOM     12  C   UNL     1      -0.774   7.929 133.029  0.00  0.00    +0.000 C 
ATOM     13  O   UNL     1       0.391   7.550 133.125  0.00  0.00    +0.000 OA
ATOM     14  H   UNL     1      -2.211   9.235 133.841  0.00  0.00    +0.000 HD
BRANCH  12  15
ATOM     15  C   UNL     1      -1.746   7.308 131.914  0.00  0.00    +0.000 C 
BRANCH  15  16
ATOM     16  C   UNL     1      -2.261   5.596 132.161  0.00  0.00    +0.000 C 
BRANCH  16  17
ATOM     17  C   UNL     1      -4.034   4.985 131.619  0.00  0.00    +0.000 C 
ATOM     18  O   UNL     1      -3.708   3.944 130.986  0.00  0.00    +0.000 OA
ATOM     19  N   UNL     1      -5.738   5.568 132.003  0.00  0.00    +0.000 N 
ATOM     20  H   UNL     1      -5.202   6.464 132.152  0.00  0.00    +0.000 HD
BRANCH  19  21
ATOM     21  C   UNL     1      -7.773   5.662 131.897  0.00  0.00    +0.000 C 
ATOM     22  C   UNL     1      -7.310   6.831 131.273  0.00  0.00    +0.000 C 
ATOM     23  C   UNL     1      -8.259   5.708 130.733  0.00  0.00    +0.000 C 
ATOM     24  C   UNL     1      -9.048   6.808 130.405  0.00  0.00    +0.000 C 
ATOM     25  N   UNL     1     -10.071   5.637 129.819  0.00  0.00    +0.000 N 
ATOM     26  C   UNL     1     -10.449   4.127 130.268  0.00  0.00    +0.000 C 
ATOM     27  O   UNL     1     -11.596   3.654 130.208  0.00  0.00    +0.000 OA
ATOM     28  C   UNL     1     -10.794   6.396 130.589  0.00  0.00    +0.000 A 
ATOM     29  C   UNL     1     -11.372   7.767 129.705  0.00  0.00    +0.000 A 
ATOM     30  C   UNL     1     -12.451   8.552 129.877  0.00  0.00    +0.000 A 
ATOM     31  C   UNL     1     -13.021   7.760 130.760  0.00  0.00    +0.000 A 
ATOM     32  C   UNL     1     -11.828   6.617 131.658  0.00  0.00    +0.000 A 
ATOM     33  C   UNL     1     -10.097   5.954 131.977  0.00  0.00    +0.000 A 
BRANCH  26  34
ATOM     34  C   UNL     1      -9.318   3.139 130.655  0.00  0.00    +0.000 A 
ATOM     35  C   UNL     1      -8.169   2.624 129.919  0.00  0.00    +0.000 A 
ATOM     36  C   UNL     1      -7.870   1.236 129.940  0.00  0.00    +0.000 A 
ATOM     37  C   UNL     1      -8.331   0.508 130.995  0.00  0.00    +0.000 A 
ATOM     38  C   UNL     1      -9.029   1.232 131.960  0.00  0.00    +0.000 A 
ATOM     39  C   UNL     1      -9.662   2.445 131.753  0.00  0.00    +0.000 A 
BRANCH  37  40
ATOM     40  N   UNL     1      -7.991  -0.854 131.136  0.00  0.00    +0.000 N 
ATOM     41  C   UNL     1      -6.676  -1.249 131.296  0.00  0.00    +0.000 C 
ATOM     42  O   UNL     1      -5.723  -0.480 131.370  0.00  0.00    +0.000 OA
ATOM     43  H   UNL     1      -8.745  -1.554 131.118  0.00  0.00    +0.000 HD
BRANCH  41  44
ATOM     44  C   UNL     1      -6.367  -2.692 131.432  0.00  0.00    +0.000 A 
ATOM     45  C   UNL     1      -6.209  -3.304 132.677  0.00  0.00    +0.000 A 
ATOM     46  C   UNL     1      -5.649  -4.579 132.758  0.00  0.00    +0.000 A 
ATOM     47  C   UNL     1      -5.506  -5.338 131.612  0.00  0.00    +0.000 A 
ATOM     48  C   UNL     1      -5.951  -4.826 130.396  0.00  0.00    +0.000 A 
ATOM     49  C   UNL     1      -6.263  -3.464 130.259  0.00  0.00    +0.000 A 
BRANCH  49  50
ATOM     50  C   UNL     1      -6.429  -2.868 128.924  0.00  0.00    +0.000 A 
ATOM     51  C   UNL     1      -5.358  -2.227 128.273  0.00  0.00    +0.000 A 
ATOM     52  C   UNL     1      -5.577  -1.393 127.181  0.00  0.00    +0.000 A 
ATOM     53  C   UNL     1      -6.814  -1.399 126.568  0.00  0.00    +0.000 A 
ATOM     54  C   UNL     1      -7.813  -2.231 127.058  0.00  0.00    +0.000 A 
ATOM     55  C   UNL     1      -7.668  -2.854 128.295  0.00  0.00    +0.000 A 
ENDBRANCH  49  50
ENDBRANCH  41  44
ENDBRANCH  37  40
ENDBRANCH  26  34
ENDBRANCH  19  21
ENDBRANCH  16  17
ENDBRANCH  15  16
ENDBRANCH  12  15
ENDBRANCH  10  11
ENDBRANCH   7  10
ENDBRANCH   4   5
ENDBRANCH   3   4
ENDBRANCH   2   3
ENDBRANCH   1   2
BRANCH   1  56
ATOM     56  C   UNL     1      -3.307   4.401 140.824  0.00  0.00    +0.000 C 
BRANCH  56  57
ATOM     57  O   UNL     1      -4.634   3.883 140.806  0.00  0.00    +0.000 OA
BRANCH  57  58
ATOM     58  C   UNL     1      -4.725   2.790 141.716  0.00  0.00    +0.000 C 
BRANCH  58  59
ATOM     59  C   UNL     1      -6.171   2.366 141.852  0.00  0.00    +0.000 C 
BRANCH  59  60
ATOM     60  O   UNL     1      -7.025   3.436 141.455  0.00  0.00    +0.000 OA
BRANCH  60  61
ATOM     61  C   UNL     1      -7.841   3.835 142.554  0.00  0.00    +0.000 C 
BRANCH  61  62
ATOM     62  C   UNL     1      -7.267   5.075 143.222  0.00  0.00    +0.000 C 
BRANCH  62  65
ATOM     63  C   UNL     1      -5.512   6.732 142.714  0.00  0.00    +0.000 C 
ATOM     64  O   UNL     1      -5.145   6.747 143.886  0.00  0.00    +0.000 OA
ATOM     65  N   UNL     1      -6.549   5.934 142.283  0.00  0.00    +0.000 N 
ATOM     66  H   UNL     1      -6.838   5.932 141.314  0.00  0.00    +0.000 HD
BRANCH  63  67
ATOM     67  C   UNL     1      -4.828   7.577 141.639  0.00  0.00    +0.000 C 
BRANCH  67  68
ATOM     68  C   UNL     1      -5.671   7.562 140.402  0.00  0.00    +0.000 C 
BRANCH  68  69
ATOM     69  C   UNL     1      -4.903   7.696 139.105  0.00  0.00    +0.000 C 
BRANCH  69  73
ATOM     70  N   UNL     1      -7.784   9.549 138.438  0.00  0.00    +0.000 N 
ATOM     71  C   UNL     1      -7.096   8.316 137.947  0.00  0.00    +0.000 C 
ATOM     72  C   UNL     1      -7.430   7.076 137.434  0.00  0.00    +0.000 C 
ATOM     73  C   UNL     1      -5.584   8.615 138.077  0.00  0.00    +0.000 C 
ATOM     74  C   UNL     1      -4.945   8.733 136.705  0.00  0.00    +0.000 C 
ATOM     75  C   UNL     1      -5.506  10.006 138.616  0.00  0.00    +0.000 A 
ATOM     76  C   UNL     1      -4.268  10.681 138.823  0.00  0.00    +0.000 A 
ATOM     77  C   UNL     1      -4.206  11.897 139.424  0.00  0.00    +0.000 A 
ATOM     78  C   UNL     1      -5.435  12.487 139.669  0.00  0.00    +0.000 A 
ATOM     79  C   UNL     1      -6.707  11.811 139.353  0.00  0.00    +0.000 A 
ATOM     80  C   UNL     1      -6.774  10.514 138.832  0.00  0.00    +0.000 A 
BRANCH  77  81
ATOM     81  S   UNL     1      -2.581  12.582 139.756  0.00  0.00    +0.000 S 
ATOM     82  O   UNL     1      -2.729  14.004 139.979  0.00  0.00    +0.000 OA
ATOM     83  O   UNL     1      -1.946  11.734 140.743  0.00  0.00    +0.000 OA
BRANCH  81  84
ATOM     84  O   UNL     1      -1.781  12.401 138.358  0.00  0.00    +0.000 OA
ATOM     85  H   UNL     1      -1.619  13.256 137.912  0.00  0.00    +0.000 HD
ENDBRANCH  81  84
ENDBRANCH  77  81
BRANCH  70  87
ATOM     86  C   UNL     1     -10.142   9.119 137.572  0.00  0.00    +0.000 C 
ATOM     87  C   UNL     1      -9.276   9.810 138.633  0.00  0.00    +0.000 C 
ENDBRANCH  70  87
BRANCH  72  88
ATOM     88  C   UNL     1      -6.493   5.970 137.002  0.00  0.00    +0.000 C 
ATOM     89  C   UNL     1      -5.951   5.016 137.784  0.00  0.00    +0.000 C 
BRANCH  89  90
ATOM     90  C   UNL     1      -5.066   4.014 137.214  0.00  0.00    +0.000 C 
ATOM     91  C   UNL     1      -5.354   2.760 136.869  0.00  0.00    +0.000 C 
BRANCH  91  92
ATOM     92  C   UNL     1      -4.733   1.461 136.298  0.00  0.00    +0.000 C 
ATOM     93  N   UNL     1      -4.668   1.150 135.054  0.00  0.00    +0.000 N 
ATOM     94  C   UNL     1      -4.255  -0.187 134.777  0.00  0.00    +0.000 A 
ATOM     95  C   UNL     1      -4.713  -1.423 135.337  0.00  0.00    +0.000 A 
ATOM     96  C   UNL     1      -3.922  -2.663 135.477  0.00  0.00    +0.000 A 
ATOM     97  C   UNL     1      -2.759  -2.783 134.803  0.00  0.00    +0.000 A 
ATOM     98  C   UNL     1      -2.355  -1.498 134.533  0.00  0.00    +0.000 A 
ATOM     99  C   UNL     1      -3.066  -0.195 135.312  0.00  0.00    +0.000 A 
ATOM    100  C   UNL     1      -4.138   0.195 136.948  0.00  0.00    +0.000 C 
ATOM    101  C   UNL     1      -2.916   0.080 137.746  0.00  0.00    +0.000 C 
ATOM    102  C   UNL     1      -4.893   0.815 138.536  0.00  0.00    +0.000 C 
BRANCH  97 103
ATOM    103  S   UNL     1      -1.859  -4.419 134.669  0.00  0.00    +0.000 S 
ATOM    104  O   UNL     1      -2.279  -4.845 133.337  0.00  0.00    +0.000 OA
ATOM    105  O   UNL     1      -0.454  -4.030 134.767  0.00  0.00    +0.000 OA
ATOM    106  O   UNL     1      -2.353  -5.235 135.773  0.00  0.00    +0.000 OA
ENDBRANCH  97 103
BRANCH  93 107
ATOM    107  C   UNL     1      -4.568   2.074 133.932  0.00  0.00    +0.000 C 
ATOM    108  C   UNL     1      -5.921   2.312 133.372  0.00  0.00    +0.000 C 
ENDBRANCH  93 107
ENDBRANCH  91  92
ENDBRANCH  89  90
ENDBRANCH  72  88
ENDBRANCH  69  73
ENDBRANCH  68  69
ENDBRANCH  67  68
ENDBRANCH  63  67
ENDBRANCH  62  65
ENDBRANCH  61  62
ENDBRANCH  60  61
ENDBRANCH  59  60
ENDBRANCH  58  59
ENDBRANCH  57  58
ENDBRANCH  56  57
ENDBRANCH   1  56
TORSDOF 34
ENDMDL
MODEL 9
REMARK VINA RESULT:      -8.4      3.119      7.825
REMARK  Name = CHEMBL2172290
REMARK  39 active torsions:
REMARK  status: ('A' for Active; 'I' for Inactive)
REMARK    1  A    between atoms: C_1  and  C_2
REMARK    2  A    between atoms: C_2  and  N_3
REMARK    3  A    between atoms: C_5  and  C_6
REMARK    4  A    between atoms: C_7  and  C_8
REMARK    5  A    between atoms: C_9  and  C_10
REMARK    6  A    between atoms: N_11  and  C_12
REMARK    7  A    between atoms: C_12  and  C_13
REMARK    8  A    between atoms: C_17  and  S_18
REMARK    9  A    between atoms: C_24  and  C_25
REMARK   10  A    between atoms: C_24  and  C_26
REMARK   11  A    between atoms: C_27  and  C_28
REMARK   12  A    between atoms: C_27  and  C_29
REMARK   13  A    between atoms: C_29  and  C_30
REMARK   14  A    between atoms: C_30  and  C_31
REMARK   15  A    between atoms: C_31  and  C_32
REMARK   16  A    between atoms: N_34  and  C_35
REMARK   17  A    between atoms: C_35  and  C_36
REMARK   18  A    between atoms: C_36  and  O_37
REMARK   19  A    between atoms: O_37  and  C_38
REMARK   20  A    between atoms: C_38  and  C_39
REMARK   21  A    between atoms: C_39  and  O_40
REMARK   22  A    between atoms: O_40  and  C_41
REMARK   23  A    between atoms: C_41  and  C_42
REMARK   24  A    between atoms: C_42  and  O_43
REMARK   25  A    between atoms: O_43  and  C_44
REMARK   26  A    between atoms: C_44  and  C_45
REMARK   27  A    between atoms: C_45  and  N_46
REMARK   28  A    between atoms: C_48  and  C_49
REMARK   29  A    between atoms: C_49  and  N_50
REMARK   30  A    between atoms: C_51  and  C_53
REMARK   31  A    between atoms: C_53  and  C_54
REMARK   32  A    between atoms: C_54  and  C_55
REMARK   33  A    between atoms: N_57  and  C_58
REMARK   34  A    between atoms: C_63  and  C_65
REMARK   35  A    between atoms: C_68  and  N_69
REMARK   36  A    between atoms: C_70  and  C_72
REMARK   37  A    between atoms: C_77  and  C_78
REMARK   38  A    between atoms: C_96  and  S_97
REMARK   39  A    between atoms: S_97  and  O_100
REMARK                            x       y       z     vdW  Elec       q    Type
REMARK                         _______ _______ _______ _____ _____    ______ ____
ROOT
ATOM      1  C   UNL     1      -8.552   4.228 129.598  0.00  0.00    +0.000 C 
ENDROOT
BRANCH   1   2
ATOM      2  O   UNL     1      -8.209   4.075 130.974  0.00  0.00    +0.000 OA
BRANCH   2   3
ATOM      3  C   UNL     1      -8.533   5.264 131.673  0.00  0.00    +0.000 C 
BRANCH   3   4
ATOM      4  C   UNL     1      -7.404   5.680 132.601  0.00  0.00    +0.000 C 
BRANCH   4   5
ATOM      5  N   UNL     1      -6.407   6.442 131.876  0.00  0.00    +0.000 N 
ATOM      6  C   UNL     1      -5.076   6.509 132.149  0.00  0.00    +0.000 A 
ATOM      7  C   UNL     1      -4.526   7.289 131.169  0.00  0.00    +0.000 A 
ATOM      8  N   UNL     1      -5.547   7.689 130.334  0.00  0.00    +0.000 NA
ATOM      9  N   UNL     1      -6.695   7.166 130.781  0.00  0.00    +0.000 NA
BRANCH   7  10
ATOM     10  C   UNL     1      -3.084   7.660 131.001  0.00  0.00    +0.000 C 
BRANCH  10  11
ATOM     11  N   UNL     1      -2.452   8.072 132.295  0.00  0.00    +0.000 N 
ATOM     12  C   UNL     1      -2.283   9.416 132.647  0.00  0.00    +0.000 C 
ATOM     13  O   UNL     1      -2.663  10.299 131.880  0.00  0.00    +0.000 OA
ATOM     14  H   UNL     1      -2.150   7.332 132.910  0.00  0.00    +0.000 HD
BRANCH  12  15
ATOM     15  C   UNL     1      -1.596   9.791 134.047  0.00  0.00    +0.000 C 
BRANCH  15  16
ATOM     16  C   UNL     1      -0.922   8.418 135.004  0.00  0.00    +0.000 C 
BRANCH  16  17
ATOM     17  C   UNL     1      -2.019   6.871 135.466  0.00  0.00    +0.000 C 
ATOM     18  O   UNL     1      -1.910   6.215 134.394  0.00  0.00    +0.000 OA
ATOM     19  N   UNL     1      -2.858   6.341 137.017  0.00  0.00    +0.000 N 
ATOM     20  H   UNL     1      -2.820   7.382 137.178  0.00  0.00    +0.000 HD
BRANCH  19  21
ATOM     21  C   UNL     1      -4.046   5.215 138.234  0.00  0.00    +0.000 C 
ATOM     22  C   UNL     1      -2.743   4.736 138.435  0.00  0.00    +0.000 C 
ATOM     23  C   UNL     1      -3.787   5.282 139.467  0.00  0.00    +0.000 C 
ATOM     24  C   UNL     1      -3.460   4.098 140.124  0.00  0.00    +0.000 C 
ATOM     25  N   UNL     1      -4.560   4.656 141.238  0.00  0.00    +0.000 N 
ATOM     26  C   UNL     1      -5.939   5.502 141.151  0.00  0.00    +0.000 C 
ATOM     27  O   UNL     1      -6.933   5.281 141.863  0.00  0.00    +0.000 OA
ATOM     28  C   UNL     1      -4.911   3.433 140.964  0.00  0.00    +0.000 A 
ATOM     29  C   UNL     1      -4.024   2.322 141.951  0.00  0.00    +0.000 A 
ATOM     30  C   UNL     1      -4.308   1.075 142.370  0.00  0.00    +0.000 A 
ATOM     31  C   UNL     1      -5.569   1.120 141.995  0.00  0.00    +0.000 A 
ATOM     32  C   UNL     1      -5.930   2.376 140.643  0.00  0.00    +0.000 A 
ATOM     33  C   UNL     1      -5.384   3.721 139.447  0.00  0.00    +0.000 A 
BRANCH  26  34
ATOM     34  C   UNL     1      -6.007   6.762 140.249  0.00  0.00    +0.000 A 
ATOM     35  C   UNL     1      -5.193   7.971 140.188  0.00  0.00    +0.000 A 
ATOM     36  C   UNL     1      -5.813   9.246 140.111  0.00  0.00    +0.000 A 
ATOM     37  C   UNL     1      -7.079   9.303 139.613  0.00  0.00    +0.000 A 
ATOM     38  C   UNL     1      -7.614   8.083 139.203  0.00  0.00    +0.000 A 
ATOM     39  C   UNL     1      -7.204   6.837 139.643  0.00  0.00    +0.000 A 
BRANCH  37  40
ATOM     40  N   UNL     1      -7.722  10.543 139.414  0.00  0.00    +0.000 N 
ATOM     41  C   UNL     1      -8.350  11.198 140.458  0.00  0.00    +0.000 C 
ATOM     42  O   UNL     1      -8.368  10.799 141.617  0.00  0.00    +0.000 OA
ATOM     43  H   UNL     1      -7.717  10.954 138.472  0.00  0.00    +0.000 HD
BRANCH  41  44
ATOM     44  C   UNL     1      -9.020  12.493 140.198  0.00  0.00    +0.000 A 
ATOM     45  C   UNL     1     -10.399  12.590 139.999  0.00  0.00    +0.000 A 
ATOM     46  C   UNL     1     -10.946  13.766 139.485  0.00  0.00    +0.000 A 
ATOM     47  C   UNL     1     -10.176  14.912 139.429  0.00  0.00    +0.000 A 
ATOM     48  C   UNL     1      -8.872  14.881 139.916  0.00  0.00    +0.000 A 
ATOM     49  C   UNL     1      -8.232  13.660 140.183  0.00  0.00    +0.000 A 
BRANCH  49  50
ATOM     50  C   UNL     1      -6.776  13.612 140.395  0.00  0.00    +0.000 A 
ATOM     51  C   UNL     1      -6.222  13.722 141.683  0.00  0.00    +0.000 A 
ATOM     52  C   UNL     1      -4.871  14.001 141.863  0.00  0.00    +0.000 A 
ATOM     53  C   UNL     1      -4.017  13.909 140.782  0.00  0.00    +0.000 A 
ATOM     54  C   UNL     1      -4.525  13.547 139.541  0.00  0.00    +0.000 A 
ATOM     55  C   UNL     1      -5.900  13.531 139.320  0.00  0.00    +0.000 A 
ENDBRANCH  49  50
ENDBRANCH  41  44
ENDBRANCH  37  40
ENDBRANCH  26  34
ENDBRANCH  19  21
ENDBRANCH  16  17
ENDBRANCH  15  16
ENDBRANCH  12  15
ENDBRANCH  10  11
ENDBRANCH   7  10
ENDBRANCH   4   5
ENDBRANCH   3   4
ENDBRANCH   2   3
ENDBRANCH   1   2
BRANCH   1  56
ATOM     56  C   UNL     1      -7.294   4.194 128.764  0.00  0.00    +0.000 C 
BRANCH  56  57
ATOM     57  O   UNL     1      -6.231   3.642 129.534  0.00  0.00    +0.000 OA
BRANCH  57  58
ATOM     58  C   UNL     1      -4.998   4.225 129.123  0.00  0.00    +0.000 C 
BRANCH  58  59
ATOM     59  C   UNL     1      -3.912   3.857 130.110  0.00  0.00    +0.000 C 
BRANCH  59  60
ATOM     60  O   UNL     1      -4.229   2.615 130.734  0.00  0.00    +0.000 OA
BRANCH  60  61
ATOM     61  C   UNL     1      -4.378   2.806 132.138  0.00  0.00    +0.000 C 
BRANCH  61  62
ATOM     62  C   UNL     1      -5.699   2.226 132.619  0.00  0.00    +0.000 C 
BRANCH  62  65
ATOM     63  C   UNL     1      -7.515   0.787 131.774  0.00  0.00    +0.000 C 
ATOM     64  O   UNL     1      -7.782   0.405 132.910  0.00  0.00    +0.000 OA
ATOM     65  N   UNL     1      -6.506   1.691 131.524  0.00  0.00    +0.000 N 
ATOM     66  H   UNL     1      -6.299   1.997 130.583  0.00  0.00    +0.000 HD
BRANCH  63  67
ATOM     67  C   UNL     1      -8.298   0.307 130.552  0.00  0.00    +0.000 C 
BRANCH  67  68
ATOM     68  C   UNL     1      -7.445   0.472 129.333  0.00  0.00    +0.000 C 
BRANCH  68  69
ATOM     69  C   UNL     1      -8.178   0.326 128.017  0.00  0.00    +0.000 C 
BRANCH  69  73
ATOM     70  N   UNL     1      -8.371  -1.308 124.939  0.00  0.00    +0.000 N 
ATOM     71  C   UNL     1      -8.090  -1.629 126.372  0.00  0.00    +0.000 C 
ATOM     72  C   UNL     1      -8.287  -2.670 127.259  0.00  0.00    +0.000 C 
ATOM     73  C   UNL     1      -7.356  -0.387 126.931  0.00  0.00    +0.000 C 
ATOM     74  C   UNL     1      -5.909  -0.721 127.248  0.00  0.00    +0.000 C 
ATOM     75  C   UNL     1      -7.248   0.555 125.776  0.00  0.00    +0.000 A 
ATOM     76  C   UNL     1      -6.572   1.807 125.867  0.00  0.00    +0.000 A 
ATOM     77  C   UNL     1      -6.586   2.704 124.848  0.00  0.00    +0.000 A 
ATOM     78  C   UNL     1      -7.162   2.243 123.676  0.00  0.00    +0.000 A 
ATOM     79  C   UNL     1      -7.767   0.902 123.574  0.00  0.00    +0.000 A 
ATOM     80  C   UNL     1      -7.851   0.017 124.654  0.00  0.00    +0.000 A 
BRANCH  77  81
ATOM     81  S   UNL     1      -5.819   4.302 125.133  0.00  0.00    +0.000 S 
ATOM     82  O   UNL     1      -6.757   5.127 125.864  0.00  0.00    +0.000 OA
ATOM     83  O   UNL     1      -4.485   4.059 125.641  0.00  0.00    +0.000 OA
BRANCH  81  84
ATOM     84  O   UNL     1      -5.677   4.943 123.651  0.00  0.00    +0.000 OA
ATOM     85  H   UNL     1      -5.993   4.335 122.954  0.00  0.00    +0.000 HD
ENDBRANCH  81  84
ENDBRANCH  77  81
BRANCH  70  87
ATOM     86  C   UNL     1      -8.283  -2.560 122.722  0.00  0.00    +0.000 C 
ATOM     87  C   UNL     1      -9.153  -2.113 123.904  0.00  0.00    +0.000 C 
ENDBRANCH  70  87
BRANCH  72  88
ATOM     88  C   UNL     1      -7.888  -2.733 128.718  0.00  0.00    +0.000 C 
ATOM     89  C   UNL     1      -7.028  -3.599 129.286  0.00  0.00    +0.000 C 
BRANCH  89  90
ATOM     90  C   UNL     1      -6.744  -3.527 130.709  0.00  0.00    +0.000 C 
ATOM     91  C   UNL     1      -6.021  -2.618 131.361  0.00  0.00    +0.000 C 
BRANCH  91  92
ATOM     92  C   UNL     1      -5.495  -2.231 132.766  0.00  0.00    +0.000 C 
ATOM     93  N   UNL     1      -6.090  -2.473 133.878  0.00  0.00    +0.000 N 
ATOM     94  C   UNL     1      -5.530  -1.836 135.024  0.00  0.00    +0.000 A 
ATOM     95  C   UNL     1      -5.147  -0.469 135.219  0.00  0.00    +0.000 A 
ATOM     96  C   UNL     1      -4.090   0.019 136.127  0.00  0.00    +0.000 A 
ATOM     97  C   UNL     1      -3.595  -0.811 137.069  0.00  0.00    +0.000 A 
ATOM     98  C   UNL     1      -3.861  -2.081 136.617  0.00  0.00    +0.000 A 
ATOM     99  C   UNL     1      -4.330  -2.345 135.030  0.00  0.00    +0.000 A 
ATOM    100  C   UNL     1      -4.270  -1.433 133.257  0.00  0.00    +0.000 C 
ATOM    101  C   UNL     1      -2.856  -1.793 133.148  0.00  0.00    +0.000 C 
ATOM    102  C   UNL     1      -4.076  -0.892 131.484  0.00  0.00    +0.000 C 
BRANCH  97 103
ATOM    103  S   UNL     1      -2.496  -0.193 138.452  0.00  0.00    +0.000 S 
ATOM    104  O   UNL     1      -2.678   1.249 138.312  0.00  0.00    +0.000 OA
ATOM    105  O   UNL     1      -3.113  -0.770 139.645  0.00  0.00    +0.000 OA
ATOM    106  O   UNL     1      -1.157  -0.688 138.148  0.00  0.00    +0.000 OA
ENDBRANCH  97 103
BRANCH  93 107
ATOM    107  C   UNL     1      -6.976  -3.594 134.162  0.00  0.00    +0.000 C 
ATOM    108  C   UNL     1      -8.374  -3.106 134.244  0.00  0.00    +0.000 C 
ENDBRANCH  93 107
ENDBRANCH  91  92
ENDBRANCH  89  90
ENDBRANCH  72  88
ENDBRANCH  69  73
ENDBRANCH  68  69
ENDBRANCH  67  68
ENDBRANCH  63  67
ENDBRANCH  62  65
ENDBRANCH  61  62
ENDBRANCH  60  61
ENDBRANCH  59  60
ENDBRANCH  58  59
ENDBRANCH  57  58
ENDBRANCH  56  57
ENDBRANCH   1  56
TORSDOF 34
ENDMDL
