MODEL 1
REMARK VINA RESULT:      -9.9      0.000      0.000
REMARK  Name = CHEMBL2037492
REMARK  9 active torsions:
REMARK  status: ('A' for Active; 'I' for Inactive)
REMARK    1  A    between atoms: C_1  and  C_2
REMARK    2  A    between atoms: C_5  and  C_6
REMARK    3  A    between atoms: C_6  and  C_7
REMARK    4  A    between atoms: C_6  and  N_15
REMARK    5  A    between atoms: C_18  and  C_19
REMARK    6  A    between atoms: CA_31  and  CB_32
REMARK    7  A    between atoms: CB_32  and  CG_33
REMARK    8  A    between atoms: CG_33  and  CD1_34
REMARK    9  A    between atoms: CG_33  and  CD2_35
REMARK                            x       y       z     vdW  Elec       q    Type
REMARK                         _______ _______ _______ _____ _____    ______ ____
ROOT
ATOM      1  N   LEU A   1      -7.464   0.543 126.056  0.00  0.00    +0.000 N 
ATOM      2  C   UNK A   2      -7.327   1.775 125.395  0.00  0.00    +0.000 C 
ATOM      3  O   UNK A   2      -6.859   2.757 125.977  0.00  0.00    +0.000 OA
ATOM      4  C   UNK A   2      -8.010   1.863 123.980  0.00  0.00    +0.000 C 
ATOM      5  N   UNK A   2      -7.564   0.725 123.236  0.00  0.00    +0.000 N 
ATOM      6  C   LEU A   1      -7.866  -0.498 123.701  0.00  0.00    +0.000 C 
ATOM      7  O   LEU A   1      -7.920  -1.425 122.874  0.00  0.00    +0.000 OA
ATOM      8  CA  LEU A   1      -8.067  -0.611 125.240  0.00  0.00    +0.000 C 
ATOM      9  H   UNK A   2      -7.317   0.774 122.254  0.00  0.00    +0.000 HD
ENDROOT
BRANCH   4  10
ATOM     10  C   UNK A   2      -7.707   3.095 123.156  0.00  0.00    +0.000 C 
ATOM     11  C   UNK A   2      -6.240   3.274 122.794  0.00  0.00    +0.000 C 
ATOM     12  C   UNK A   2      -6.301   3.932 121.478  0.00  0.00    +0.000 A 
ATOM     13  C   UNK A   2      -5.231   4.417 120.759  0.00  0.00    +0.000 A 
ATOM     14  C   UNK A   2      -5.500   4.917 119.496  0.00  0.00    +0.000 A 
ATOM     15  C   UNK A   2      -6.802   4.855 118.967  0.00  0.00    +0.000 A 
ATOM     16  C   UNK A   2      -7.847   4.260 119.671  0.00  0.00    +0.000 A 
ATOM     17  C   UNK A   2      -7.580   3.806 120.935  0.00  0.00    +0.000 A 
ATOM     18  C   UNK A   2      -8.495   3.057 121.835  0.00  0.00    +0.000 C 
ENDBRANCH   4  10
BRANCH   1  19
ATOM     19  C   UNK A   0      -7.123   0.526 127.592  0.00  0.00    +0.000 C 
BRANCH  19  20
ATOM     20  C   UNK A   0      -8.075   1.369 128.556  0.00  0.00    +0.000 C 
ATOM     21  O   UNK A   0      -9.109   1.864 128.079  0.00  0.00    +0.000 OA
ATOM     22  N   UNK A   0      -7.899   1.472 129.920  0.00  0.00    +0.000 N 
ATOM     23  C   UNK A   0      -6.661   1.568 130.687  0.00  0.00    +0.000 C 
ATOM     24  C   UNK A   0      -6.819   0.682 131.910  0.00  0.00    +0.000 C 
ATOM     25  O   UNK A   0      -7.907   1.050 132.753  0.00  0.00    +0.000 OA
ATOM     26  C   UNK A   0      -9.118   0.855 131.993  0.00  0.00    +0.000 C 
ATOM     27  C   UNK A   0      -9.075   1.763 130.754  0.00  0.00    +0.000 C 
ENDBRANCH  19  20
BRANCH  19  32
ATOM     28  C   UNK A   0      -5.570  -3.769 131.225  0.00  0.00    +0.000 C 
ATOM     29  C   UNK A   0      -5.940  -2.769 130.170  0.00  0.00    +0.000 A 
ATOM     30  C   UNK A   0      -7.279  -2.536 129.963  0.00  0.00    +0.000 A 
ATOM     31  C   UNK A   0      -7.698  -1.644 128.968  0.00  0.00    +0.000 A 
ATOM     32  C   UNK A   0      -6.748  -0.837 128.309  0.00  0.00    +0.000 A 
ATOM     33  C   UNK A   0      -5.428  -1.254 128.493  0.00  0.00    +0.000 A 
ATOM     34  N   UNK A   0      -5.006  -2.195 129.392  0.00  0.00    +0.000 NA
ENDBRANCH  19  32
ENDBRANCH   1  19
BRANCH   8  35
ATOM     35  CB  LEU A   1      -7.363  -1.898 125.619  0.00  0.00    +0.000 C 
BRANCH  35  36
ATOM     36  CG  LEU A   1      -8.135  -3.215 125.823  0.00  0.00    +0.000 C 
ATOM     37  CD1 LEU A   1      -9.664  -2.966 125.977  0.00  0.00    +0.000 C 
ATOM     38  CD2 LEU A   1      -8.012  -4.249 124.716  0.00  0.00    +0.000 C 
ENDBRANCH  35  36
ENDBRANCH   8  35
TORSDOF 6
ENDMDL
MODEL 2
REMARK VINA RESULT:      -9.6      1.800      2.618
REMARK  Name = CHEMBL2037492
REMARK  9 active torsions:
REMARK  status: ('A' for Active; 'I' for Inactive)
REMARK    1  A    between atoms: C_1  and  C_2
REMARK    2  A    between atoms: C_5  and  C_6
REMARK    3  A    between atoms: C_6  and  C_7
REMARK    4  A    between atoms: C_6  and  N_15
REMARK    5  A    between atoms: C_18  and  C_19
REMARK    6  A    between atoms: CA_31  and  CB_32
REMARK    7  A    between atoms: CB_32  and  CG_33
REMARK    8  A    between atoms: CG_33  and  CD1_34
REMARK    9  A    between atoms: CG_33  and  CD2_35
REMARK                            x       y       z     vdW  Elec       q    Type
REMARK                         _______ _______ _______ _____ _____    ______ ____
ROOT
ATOM      1  N   LEU A   1      -7.579   0.969 128.012  0.00  0.00    +0.000 N 
ATOM      2  C   UNK A   2      -7.490   2.059 127.129  0.00  0.00    +0.000 C 
ATOM      3  O   UNK A   2      -7.062   3.151 127.512  0.00  0.00    +0.000 OA
ATOM      4  C   UNK A   2      -8.175   1.852 125.728  0.00  0.00    +0.000 C 
ATOM      5  N   UNK A   2      -7.684   0.612 125.209  0.00  0.00    +0.000 N 
ATOM      6  C   LEU A   1      -7.937  -0.511 125.898  0.00  0.00    +0.000 C 
ATOM      7  O   LEU A   1      -7.954  -1.580 125.262  0.00  0.00    +0.000 OA
ATOM      8  CA  LEU A   1      -8.135  -0.340 127.433  0.00  0.00    +0.000 C 
ATOM      9  H   UNK A   2      -7.438   0.484 124.234  0.00  0.00    +0.000 HD
ENDROOT
BRANCH   4  10
ATOM     10  C   UNK A   2      -7.921   2.917 124.684  0.00  0.00    +0.000 C 
ATOM     11  C   UNK A   2      -6.505   2.937 124.127  0.00  0.00    +0.000 C 
ATOM     12  C   UNK A   2      -6.702   3.385 122.738  0.00  0.00    +0.000 A 
ATOM     13  C   UNK A   2      -5.710   3.677 121.828  0.00  0.00    +0.000 A 
ATOM     14  C   UNK A   2      -6.113   3.992 120.541  0.00  0.00    +0.000 A 
ATOM     15  C   UNK A   2      -7.474   3.938 120.187  0.00  0.00    +0.000 A 
ATOM     16  C   UNK A   2      -8.448   3.532 121.098  0.00  0.00    +0.000 A 
ATOM     17  C   UNK A   2      -8.044   3.264 122.378  0.00  0.00    +0.000 A 
ATOM     18  C   UNK A   2      -8.872   2.728 123.490  0.00  0.00    +0.000 C 
ENDBRANCH   4  10
BRANCH   1  19
ATOM     19  C   UNK A   0      -7.239   1.257 129.521  0.00  0.00    +0.000 C 
BRANCH  19  20
ATOM     20  C   UNK A   0      -8.451   1.227 130.558  0.00  0.00    +0.000 C 
ATOM     21  O   UNK A   0      -8.879   0.122 130.932  0.00  0.00    +0.000 OA
ATOM     22  N   UNK A   0      -8.969   2.344 131.176  0.00  0.00    +0.000 N 
ATOM     23  C   UNK A   0      -9.166   3.688 130.640  0.00  0.00    +0.000 C 
ATOM     24  C   UNK A   0      -8.748   4.669 131.721  0.00  0.00    +0.000 C 
ATOM     25  O   UNK A   0      -9.490   4.548 132.931  0.00  0.00    +0.000 OA
ATOM     26  C   UNK A   0      -9.199   3.245 133.479  0.00  0.00    +0.000 C 
ATOM     27  C   UNK A   0      -9.646   2.174 132.471  0.00  0.00    +0.000 C 
ENDBRANCH  19  20
BRANCH  19  32
ATOM     28  C   UNK A   0      -3.286  -2.263 131.983  0.00  0.00    +0.000 C 
ATOM     29  C   UNK A   0      -4.213  -1.234 131.404  0.00  0.00    +0.000 A 
ATOM     30  C   UNK A   0      -4.135  -1.004 130.051  0.00  0.00    +0.000 A 
ATOM     31  C   UNK A   0      -4.943  -0.030 129.450  0.00  0.00    +0.000 A 
ATOM     32  C   UNK A   0      -5.974   0.578 130.194  0.00  0.00    +0.000 A 
ATOM     33  C   UNK A   0      -5.869   0.378 131.573  0.00  0.00    +0.000 A 
ATOM     34  N   UNK A   0      -5.018  -0.497 132.190  0.00  0.00    +0.000 NA
ENDBRANCH  19  32
ENDBRANCH   1  19
BRANCH   8  35
ATOM     35  CB  LEU A   1      -7.381  -1.504 128.043  0.00  0.00    +0.000 C 
BRANCH  35  36
ATOM     36  CG  LEU A   1      -8.080  -2.542 128.941  0.00  0.00    +0.000 C 
ATOM     37  CD1 LEU A   1      -8.586  -3.763 128.120  0.00  0.00    +0.000 C 
ATOM     38  CD2 LEU A   1      -7.244  -3.137 130.061  0.00  0.00    +0.000 C 
ENDBRANCH  35  36
ENDBRANCH   8  35
TORSDOF 6
ENDMDL
MODEL 3
REMARK VINA RESULT:      -9.4      4.441      7.808
REMARK  Name = CHEMBL2037492
REMARK  9 active torsions:
REMARK  status: ('A' for Active; 'I' for Inactive)
REMARK    1  A    between atoms: C_1  and  C_2
REMARK    2  A    between atoms: C_5  and  C_6
REMARK    3  A    between atoms: C_6  and  C_7
REMARK    4  A    between atoms: C_6  and  N_15
REMARK    5  A    between atoms: C_18  and  C_19
REMARK    6  A    between atoms: CA_31  and  CB_32
REMARK    7  A    between atoms: CB_32  and  CG_33
REMARK    8  A    between atoms: CG_33  and  CD1_34
REMARK    9  A    between atoms: CG_33  and  CD2_35
REMARK                            x       y       z     vdW  Elec       q    Type
REMARK                         _______ _______ _______ _____ _____    ______ ____
ROOT
ATOM      1  N   LEU A   1      -7.903   3.386 130.931  0.00  0.00    +0.000 N 
ATOM      2  C   UNK A   2      -8.778   4.368 130.436  0.00  0.00    +0.000 C 
ATOM      3  O   UNK A   2      -9.062   4.417 129.236  0.00  0.00    +0.000 OA
ATOM      4  C   UNK A   2      -9.166   5.502 131.455  0.00  0.00    +0.000 C 
ATOM      5  N   UNK A   2      -9.603   4.849 132.651  0.00  0.00    +0.000 N 
ATOM      6  C   LEU A   1      -8.730   4.067 133.305  0.00  0.00    +0.000 C 
ATOM      7  O   LEU A   1      -8.915   3.901 134.523  0.00  0.00    +0.000 OA
ATOM      8  CA  LEU A   1      -7.610   3.422 132.438  0.00  0.00    +0.000 C 
ATOM      9  H   UNK A   2     -10.398   5.170 133.192  0.00  0.00    +0.000 HD
ENDROOT
BRANCH   4  10
ATOM     10  C   UNK A   2     -10.262   6.453 131.026  0.00  0.00    +0.000 C 
ATOM     11  C   UNK A   2      -9.871   7.413 129.912  0.00  0.00    +0.000 C 
ATOM     12  C   UNK A   2     -11.134   7.600 129.179  0.00  0.00    +0.000 A 
ATOM     13  C   UNK A   2     -11.349   8.475 128.136  0.00  0.00    +0.000 A 
ATOM     14  C   UNK A   2     -12.589   8.426 127.523  0.00  0.00    +0.000 A 
ATOM     15  C   UNK A   2     -13.543   7.470 127.918  0.00  0.00    +0.000 A 
ATOM     16  C   UNK A   2     -13.261   6.523 128.901  0.00  0.00    +0.000 A 
ATOM     17  C   UNK A   2     -12.048   6.607 129.530  0.00  0.00    +0.000 A 
ATOM     18  C   UNK A   2     -11.486   5.664 130.532  0.00  0.00    +0.000 C 
ENDBRANCH   4  10
BRANCH   1  19
ATOM     19  C   UNK A   0      -7.211   2.458 129.864  0.00  0.00    +0.000 C 
BRANCH  19  20
ATOM     20  C   UNK A   0      -5.616   2.471 129.814  0.00  0.00    +0.000 C 
ATOM     21  O   UNK A   0      -5.000   1.618 130.475  0.00  0.00    +0.000 OA
ATOM     22  N   UNK A   0      -4.874   3.277 128.978  0.00  0.00    +0.000 N 
ATOM     23  C   UNK A   0      -5.122   4.655 128.565  0.00  0.00    +0.000 C 
ATOM     24  C   UNK A   0      -4.802   4.744 127.083  0.00  0.00    +0.000 C 
ATOM     25  O   UNK A   0      -3.456   4.407 126.760  0.00  0.00    +0.000 OA
ATOM     26  C   UNK A   0      -3.275   3.015 127.097  0.00  0.00    +0.000 C 
ATOM     27  C   UNK A   0      -3.522   2.834 128.602  0.00  0.00    +0.000 C 
ENDBRANCH  19  20
BRANCH  19  32
ATOM     28  C   UNK A   0      -7.887  -3.314 129.320  0.00  0.00    +0.000 C 
ATOM     29  C   UNK A   0      -7.857  -1.815 129.385  0.00  0.00    +0.000 A 
ATOM     30  C   UNK A   0      -8.158  -1.229 130.591  0.00  0.00    +0.000 A 
ATOM     31  C   UNK A   0      -8.187   0.166 130.715  0.00  0.00    +0.000 A 
ATOM     32  C   UNK A   0      -7.717   0.970 129.657  0.00  0.00    +0.000 A 
ATOM     33  C   UNK A   0      -7.573   0.285 128.448  0.00  0.00    +0.000 A 
ATOM     34  N   UNK A   0      -7.639  -1.072 128.286  0.00  0.00    +0.000 NA
ENDBRANCH  19  32
ENDBRANCH   1  19
BRANCH   8  35
ATOM     35  CB  LEU A   1      -7.507   2.000 132.951  0.00  0.00    +0.000 C 
BRANCH  35  36
ATOM     36  CG  LEU A   1      -6.390   1.566 133.918  0.00  0.00    +0.000 C 
ATOM     37  CD1 LEU A   1      -5.892   0.124 133.609  0.00  0.00    +0.000 C 
ATOM     38  CD2 LEU A   1      -5.136   2.423 133.930  0.00  0.00    +0.000 C 
ENDBRANCH  35  36
ENDBRANCH   8  35
TORSDOF 6
ENDMDL
MODEL 4
REMARK VINA RESULT:      -9.4      4.047      7.526
REMARK  Name = CHEMBL2037492
REMARK  9 active torsions:
REMARK  status: ('A' for Active; 'I' for Inactive)
REMARK    1  A    between atoms: C_1  and  C_2
REMARK    2  A    between atoms: C_5  and  C_6
REMARK    3  A    between atoms: C_6  and  C_7
REMARK    4  A    between atoms: C_6  and  N_15
REMARK    5  A    between atoms: C_18  and  C_19
REMARK    6  A    between atoms: CA_31  and  CB_32
REMARK    7  A    between atoms: CB_32  and  CG_33
REMARK    8  A    between atoms: CG_33  and  CD1_34
REMARK    9  A    between atoms: CG_33  and  CD2_35
REMARK                            x       y       z     vdW  Elec       q    Type
REMARK                         _______ _______ _______ _____ _____    ______ ____
ROOT
ATOM      1  N   LEU A   1      -7.955   2.925 129.070  0.00  0.00    +0.000 N 
ATOM      2  C   UNK A   2      -8.697   4.116 129.142  0.00  0.00    +0.000 C 
ATOM      3  O   UNK A   2      -8.711   4.911 128.198  0.00  0.00    +0.000 OA
ATOM      4  C   UNK A   2      -9.294   4.456 130.557  0.00  0.00    +0.000 C 
ATOM      5  N   UNK A   2      -9.985   3.285 131.004  0.00  0.00    +0.000 N 
ATOM      6  C   LEU A   1      -9.280   2.156 131.177  0.00  0.00    +0.000 C 
ATOM      7  O   LEU A   1      -9.728   1.322 131.983  0.00  0.00    +0.000 OA
ATOM      8  CA  LEU A   1      -8.000   2.012 130.304  0.00  0.00    +0.000 C 
ATOM      9  H   UNK A   2     -10.878   3.324 131.483  0.00  0.00    +0.000 HD
ENDROOT
BRANCH   4  10
ATOM     10  C   UNK A   2     -10.266   5.614 130.624  0.00  0.00    +0.000 C 
ATOM     11  C   UNK A   2      -9.797   6.879 129.920  0.00  0.00    +0.000 C 
ATOM     12  C   UNK A   2     -11.053   7.473 129.434  0.00  0.00    +0.000 A 
ATOM     13  C   UNK A   2     -11.191   8.700 128.822  0.00  0.00    +0.000 A 
ATOM     14  C   UNK A   2     -12.453   9.029 128.357  0.00  0.00    +0.000 A 
ATOM     15  C   UNK A   2     -13.511   8.106 128.451  0.00  0.00    +0.000 A 
ATOM     16  C   UNK A   2     -13.319   6.829 128.976  0.00  0.00    +0.000 A 
ATOM     17  C   UNK A   2     -12.079   6.529 129.472  0.00  0.00    +0.000 A 
ATOM     18  C   UNK A   2     -11.608   5.217 129.988  0.00  0.00    +0.000 C 
ENDBRANCH   4  10
BRANCH   1  19
ATOM     19  C   UNK A   0      -7.050   2.735 127.796  0.00  0.00    +0.000 C 
BRANCH  19  20
ATOM     20  C   UNK A   0      -5.523   2.345 128.041  0.00  0.00    +0.000 C 
ATOM     21  O   UNK A   0      -5.198   1.149 127.946  0.00  0.00    +0.000 OA
ATOM     22  N   UNK A   0      -4.508   3.261 128.216  0.00  0.00    +0.000 N 
ATOM     23  C   UNK A   0      -4.529   4.538 128.922  0.00  0.00    +0.000 C 
ATOM     24  C   UNK A   0      -3.756   5.533 128.076  0.00  0.00    +0.000 C 
ATOM     25  O   UNK A   0      -2.400   5.164 127.842  0.00  0.00    +0.000 OA
ATOM     26  C   UNK A   0      -2.419   3.949 127.063  0.00  0.00    +0.000 C 
ATOM     27  C   UNK A   0      -3.137   2.856 127.871  0.00  0.00    +0.000 C 
ENDBRANCH  19  20
BRANCH  19  32
ATOM     28  C   UNK A   0      -9.779   0.720 123.046  0.00  0.00    +0.000 C 
ATOM     29  C   UNK A   0      -9.029   1.086 124.293  0.00  0.00    +0.000 A 
ATOM     30  C   UNK A   0      -7.807   1.696 124.139  0.00  0.00    +0.000 A 
ATOM     31  C   UNK A   0      -7.035   2.030 125.259  0.00  0.00    +0.000 A 
ATOM     32  C   UNK A   0      -7.592   1.920 126.550  0.00  0.00    +0.000 A 
ATOM     33  C   UNK A   0      -8.767   1.165 126.594  0.00  0.00    +0.000 A 
ATOM     34  N   UNK A   0      -9.487   0.743 125.510  0.00  0.00    +0.000 NA
ENDBRANCH  19  32
ENDBRANCH   1  19
BRANCH   8  35
ATOM     35  CB  LEU A   1      -8.017   0.568 129.844  0.00  0.00    +0.000 C 
BRANCH  35  36
ATOM     36  CG  LEU A   1      -7.034  -0.475 130.408  0.00  0.00    +0.000 C 
ATOM     37  CD1 LEU A   1      -6.329   0.040 131.696  0.00  0.00    +0.000 C 
ATOM     38  CD2 LEU A   1      -7.625  -1.821 130.791  0.00  0.00    +0.000 C 
ENDBRANCH  35  36
ENDBRANCH   8  35
TORSDOF 6
ENDMDL
MODEL 5
REMARK VINA RESULT:      -9.4      4.813      8.726
REMARK  Name = CHEMBL2037492
REMARK  9 active torsions:
REMARK  status: ('A' for Active; 'I' for Inactive)
REMARK    1  A    between atoms: C_1  and  C_2
REMARK    2  A    between atoms: C_5  and  C_6
REMARK    3  A    between atoms: C_6  and  C_7
REMARK    4  A    between atoms: C_6  and  N_15
REMARK    5  A    between atoms: C_18  and  C_19
REMARK    6  A    between atoms: CA_31  and  CB_32
REMARK    7  A    between atoms: CB_32  and  CG_33
REMARK    8  A    between atoms: CG_33  and  CD1_34
REMARK    9  A    between atoms: CG_33  and  CD2_35
REMARK                            x       y       z     vdW  Elec       q    Type
REMARK                         _______ _______ _______ _____ _____    ______ ____
ROOT
ATOM      1  N   LEU A   1      -6.956   3.875 131.056  0.00  0.00    +0.000 N 
ATOM      2  C   UNK A   2      -6.512   2.639 130.558  0.00  0.00    +0.000 C 
ATOM      3  O   UNK A   2      -5.443   2.151 130.935  0.00  0.00    +0.000 OA
ATOM      4  C   UNK A   2      -7.338   2.060 129.351  0.00  0.00    +0.000 C 
ATOM      5  N   UNK A   2      -8.715   2.097 129.739  0.00  0.00    +0.000 N 
ATOM      6  C   LEU A   1      -9.269   3.289 130.011  0.00  0.00    +0.000 C 
ATOM      7  O   LEU A   1     -10.501   3.390 129.874  0.00  0.00    +0.000 OA
ATOM      8  CA  LEU A   1      -8.295   4.395 130.512  0.00  0.00    +0.000 C 
ATOM      9  H   UNK A   2      -9.365   1.347 129.529  0.00  0.00    +0.000 HD
ENDROOT
BRANCH   4  10
ATOM     10  C   UNK A   2      -7.020   0.643 128.927  0.00  0.00    +0.000 C 
ATOM     11  C   UNK A   2      -7.504  -0.433 129.889  0.00  0.00    +0.000 C 
ATOM     12  C   UNK A   2      -7.817  -1.560 128.995  0.00  0.00    +0.000 A 
ATOM     13  C   UNK A   2      -8.190  -2.828 129.382  0.00  0.00    +0.000 A 
ATOM     14  C   UNK A   2      -8.531  -3.716 128.376  0.00  0.00    +0.000 A 
ATOM     15  C   UNK A   2      -8.556  -3.296 127.033  0.00  0.00    +0.000 A 
ATOM     16  C   UNK A   2      -8.280  -1.977 126.677  0.00  0.00    +0.000 A 
ATOM     17  C   UNK A   2      -7.903  -1.118 127.675  0.00  0.00    +0.000 A 
ATOM     18  C   UNK A   2      -7.655   0.343 127.559  0.00  0.00    +0.000 C 
ENDBRANCH   4  10
BRANCH   1  19
ATOM     19  C   UNK A   0      -5.963   4.652 131.998  0.00  0.00    +0.000 C 
BRANCH  19  20
ATOM     20  C   UNK A   0      -5.332   6.004 131.433  0.00  0.00    +0.000 C 
ATOM     21  O   UNK A   0      -6.094   6.955 131.194  0.00  0.00    +0.000 OA
ATOM     22  N   UNK A   0      -3.978   6.238 131.321  0.00  0.00    +0.000 N 
ATOM     23  C   UNK A   0      -2.910   5.318 130.945  0.00  0.00    +0.000 C 
ATOM     24  C   UNK A   0      -1.736   5.588 131.869  0.00  0.00    +0.000 C 
ATOM     25  O   UNK A   0      -1.236   6.921 131.795  0.00  0.00    +0.000 OA
ATOM     26  C   UNK A   0      -2.286   7.794 132.261  0.00  0.00    +0.000 C 
ATOM     27  C   UNK A   0      -3.508   7.632 131.343  0.00  0.00    +0.000 C 
ENDBRANCH  19  20
BRANCH  19  32
ATOM     28  C   UNK A   0      -7.883   6.388 137.230  0.00  0.00    +0.000 C 
ATOM     29  C   UNK A   0      -7.282   5.850 135.965  0.00  0.00    +0.000 A 
ATOM     30  C   UNK A   0      -7.979   4.869 135.302  0.00  0.00    +0.000 A 
ATOM     31  C   UNK A   0      -7.458   4.294 134.136  0.00  0.00    +0.000 A 
ATOM     32  C   UNK A   0      -6.315   4.854 133.531  0.00  0.00    +0.000 A 
ATOM     33  C   UNK A   0      -5.619   5.742 134.355  0.00  0.00    +0.000 A 
ATOM     34  N   UNK A   0      -6.065   6.242 135.547  0.00  0.00    +0.000 NA
ENDBRANCH  19  32
ENDBRANCH   1  19
BRANCH   8  35
ATOM     35  CB  LEU A   1      -9.047   5.079 131.635  0.00  0.00    +0.000 C 
BRANCH  35  36
ATOM     36  CG  LEU A   1      -9.706   6.459 131.447  0.00  0.00    +0.000 C 
ATOM     37  CD1 LEU A   1      -9.430   7.038 130.030  0.00  0.00    +0.000 C 
ATOM     38  CD2 LEU A   1     -11.216   6.513 131.611  0.00  0.00    +0.000 C 
ENDBRANCH  35  36
ENDBRANCH   8  35
TORSDOF 6
ENDMDL
MODEL 6
REMARK VINA RESULT:      -9.3      5.865      8.485
REMARK  Name = CHEMBL2037492
REMARK  9 active torsions:
REMARK  status: ('A' for Active; 'I' for Inactive)
REMARK    1  A    between atoms: C_1  and  C_2
REMARK    2  A    between atoms: C_5  and  C_6
REMARK    3  A    between atoms: C_6  and  C_7
REMARK    4  A    between atoms: C_6  and  N_15
REMARK    5  A    between atoms: C_18  and  C_19
REMARK    6  A    between atoms: CA_31  and  CB_32
REMARK    7  A    between atoms: CB_32  and  CG_33
REMARK    8  A    between atoms: CG_33  and  CD1_34
REMARK    9  A    between atoms: CG_33  and  CD2_35
REMARK                            x       y       z     vdW  Elec       q    Type
REMARK                         _______ _______ _______ _____ _____    ______ ____
ROOT
ATOM      1  N   LEU A   1      -7.795   4.634 131.054  0.00  0.00    +0.000 N 
ATOM      2  C   UNK A   2      -8.903   5.439 130.739  0.00  0.00    +0.000 C 
ATOM      3  O   UNK A   2      -8.781   6.429 130.013  0.00  0.00    +0.000 OA
ATOM      4  C   UNK A   2     -10.217   5.126 131.546  0.00  0.00    +0.000 C 
ATOM      5  N   UNK A   2     -10.442   3.717 131.437  0.00  0.00    +0.000 N 
ATOM      6  C   LEU A   1      -9.514   2.884 131.932  0.00  0.00    +0.000 C 
ATOM      7  O   LEU A   1      -9.890   1.749 132.273  0.00  0.00    +0.000 OA
ATOM      8  CA  LEU A   1      -8.058   3.433 131.974  0.00  0.00    +0.000 C 
ATOM      9  H   UNK A   2     -11.364   3.318 131.299  0.00  0.00    +0.000 HD
ENDROOT
BRANCH   4  10
ATOM     10  C   UNK A   2     -11.477   5.828 131.089  0.00  0.00    +0.000 C 
ATOM     11  C   UNK A   2     -11.408   7.347 131.122  0.00  0.00    +0.000 C 
ATOM     12  C   UNK A   2     -12.267   7.743 129.994  0.00  0.00    +0.000 A 
ATOM     13  C   UNK A   2     -12.631   9.029 129.659  0.00  0.00    +0.000 A 
ATOM     14  C   UNK A   2     -13.372   9.188 128.501  0.00  0.00    +0.000 A 
ATOM     15  C   UNK A   2     -13.666   8.081 127.684  0.00  0.00    +0.000 A 
ATOM     16  C   UNK A   2     -13.192   6.806 127.987  0.00  0.00    +0.000 A 
ATOM     17  C   UNK A   2     -12.496   6.652 129.157  0.00  0.00    +0.000 A 
ATOM     18  C   UNK A   2     -11.815   5.424 129.644  0.00  0.00    +0.000 C 
ENDBRANCH   4  10
BRANCH   1  19
ATOM     19  C   UNK A   0      -6.392   5.140 130.550  0.00  0.00    +0.000 C 
BRANCH  19  20
ATOM     20  C   UNK A   0      -5.372   5.672 131.655  0.00  0.00    +0.000 C 
ATOM     21  O   UNK A   0      -5.659   5.504 132.852  0.00  0.00    +0.000 OA
ATOM     22  N   UNK A   0      -4.124   6.184 131.373  0.00  0.00    +0.000 N 
ATOM     23  C   UNK A   0      -3.701   7.022 130.255  0.00  0.00    +0.000 C 
ATOM     24  C   UNK A   0      -2.353   6.503 129.788  0.00  0.00    +0.000 C 
ATOM     25  O   UNK A   0      -1.341   6.536 130.791  0.00  0.00    +0.000 OA
ATOM     26  C   UNK A   0      -1.748   5.628 131.835  0.00  0.00    +0.000 C 
ATOM     27  C   UNK A   0      -3.088   6.109 132.415  0.00  0.00    +0.000 C 
ENDBRANCH  19  20
BRANCH  19  32
ATOM     28  C   UNK A   0      -2.667   3.044 126.576  0.00  0.00    +0.000 C 
ATOM     29  C   UNK A   0      -3.729   3.469 127.547  0.00  0.00    +0.000 A 
ATOM     30  C   UNK A   0      -3.578   3.082 128.857  0.00  0.00    +0.000 A 
ATOM     31  C   UNK A   0      -4.550   3.410 129.810  0.00  0.00    +0.000 A 
ATOM     32  C   UNK A   0      -5.587   4.304 129.471  0.00  0.00    +0.000 A 
ATOM     33  C   UNK A   0      -5.721   4.516 128.097  0.00  0.00    +0.000 A 
ATOM     34  N   UNK A   0      -4.832   4.118 127.137  0.00  0.00    +0.000 NA
ENDBRANCH  19  32
ENDBRANCH   1  19
BRANCH   8  35
ATOM     35  CB  LEU A   1      -7.202   2.269 131.516  0.00  0.00    +0.000 C 
BRANCH  35  36
ATOM     36  CG  LEU A   1      -6.322   1.474 132.498  0.00  0.00    +0.000 C 
ATOM     37  CD1 LEU A   1      -6.134   2.232 133.844  0.00  0.00    +0.000 C 
ATOM     38  CD2 LEU A   1      -6.823   0.093 132.888  0.00  0.00    +0.000 C 
ENDBRANCH  35  36
ENDBRANCH   8  35
TORSDOF 6
ENDMDL
MODEL 7
REMARK VINA RESULT:      -9.3      5.274      9.672
REMARK  Name = CHEMBL2037492
REMARK  9 active torsions:
REMARK  status: ('A' for Active; 'I' for Inactive)
REMARK    1  A    between atoms: C_1  and  C_2
REMARK    2  A    between atoms: C_5  and  C_6
REMARK    3  A    between atoms: C_6  and  C_7
REMARK    4  A    between atoms: C_6  and  N_15
REMARK    5  A    between atoms: C_18  and  C_19
REMARK    6  A    between atoms: CA_31  and  CB_32
REMARK    7  A    between atoms: CB_32  and  CG_33
REMARK    8  A    between atoms: CG_33  and  CD1_34
REMARK    9  A    between atoms: CG_33  and  CD2_35
REMARK                            x       y       z     vdW  Elec       q    Type
REMARK                         _______ _______ _______ _____ _____    ______ ____
ROOT
ATOM      1  N   LEU A   1      -6.537   4.664 130.766  0.00  0.00    +0.000 N 
ATOM      2  C   UNK A   2      -5.489   5.577 130.564  0.00  0.00    +0.000 C 
ATOM      3  O   UNK A   2      -5.595   6.493 129.743  0.00  0.00    +0.000 OA
ATOM      4  C   UNK A   2      -4.130   5.213 131.269  0.00  0.00    +0.000 C 
ATOM      5  N   UNK A   2      -4.438   4.939 132.639  0.00  0.00    +0.000 N 
ATOM      6  C   LEU A   1      -5.266   3.919 132.914  0.00  0.00    +0.000 C 
ATOM      7  O   LEU A   1      -5.162   3.385 134.032  0.00  0.00    +0.000 OA
ATOM      8  CA  LEU A   1      -6.295   3.558 131.804  0.00  0.00    +0.000 C 
ATOM      9  H   UNK A   2      -3.852   5.249 133.406  0.00  0.00    +0.000 HD
ENDROOT
BRANCH   4  10
ATOM     10  C   UNK A   2      -3.049   6.271 131.246  0.00  0.00    +0.000 C 
ATOM     11  C   UNK A   2      -3.458   7.613 131.836  0.00  0.00    +0.000 C 
ATOM     12  C   UNK A   2      -2.203   8.116 132.418  0.00  0.00    +0.000 A 
ATOM     13  C   UNK A   2      -2.006   9.358 132.981  0.00  0.00    +0.000 A 
ATOM     14  C   UNK A   2      -0.769   9.595 133.556  0.00  0.00    +0.000 A 
ATOM     15  C   UNK A   2       0.199   8.575 133.614  0.00  0.00    +0.000 A 
ATOM     16  C   UNK A   2      -0.065   7.293 133.136  0.00  0.00    +0.000 A 
ATOM     17  C   UNK A   2      -1.275   7.081 132.531  0.00  0.00    +0.000 A 
ATOM     18  C   UNK A   2      -1.819   5.789 132.034  0.00  0.00    +0.000 C 
ENDBRANCH   4  10
BRANCH   1  19
ATOM     19  C   UNK A   0      -7.776   4.791 129.803  0.00  0.00    +0.000 C 
BRANCH  19  20
ATOM     20  C   UNK A   0      -8.365   3.439 129.195  0.00  0.00    +0.000 C 
ATOM     21  O   UNK A   0      -9.553   3.158 129.426  0.00  0.00    +0.000 OA
ATOM     22  N   UNK A   0      -7.686   2.625 128.314  0.00  0.00    +0.000 N 
ATOM     23  C   UNK A   0      -6.266   2.287 128.277  0.00  0.00    +0.000 C 
ATOM     24  C   UNK A   0      -5.834   2.321 126.821  0.00  0.00    +0.000 C 
ATOM     25  O   UNK A   0      -6.542   1.409 125.986  0.00  0.00    +0.000 OA
ATOM     26  C   UNK A   0      -7.922   1.828 125.974  0.00  0.00    +0.000 C 
ATOM     27  C   UNK A   0      -8.469   1.770 127.409  0.00  0.00    +0.000 C 
ENDBRANCH  19  20
BRANCH  19  32
ATOM     28  C   UNK A   0     -12.894   7.289 131.082  0.00  0.00    +0.000 C 
ATOM     29  C   UNK A   0     -11.521   6.797 130.728  0.00  0.00    +0.000 A 
ATOM     30  C   UNK A   0     -10.704   6.407 131.762  0.00  0.00    +0.000 A 
ATOM     31  C   UNK A   0      -9.396   5.974 131.508  0.00  0.00    +0.000 A 
ATOM     32  C   UNK A   0      -8.981   5.749 130.179  0.00  0.00    +0.000 A 
ATOM     33  C   UNK A   0      -9.831   6.306 129.221  0.00  0.00    +0.000 A 
ATOM     34  N   UNK A   0     -11.073   6.826 129.461  0.00  0.00    +0.000 NA
ENDBRANCH  19  32
ENDBRANCH   1  19
BRANCH   8  35
ATOM     35  CB  LEU A   1      -7.586   3.301 132.555  0.00  0.00    +0.000 C 
BRANCH  35  36
ATOM     36  CG  LEU A   1      -8.194   1.890 132.663  0.00  0.00    +0.000 C 
ATOM     37  CD1 LEU A   1      -9.730   1.906 132.413  0.00  0.00    +0.000 C 
ATOM     38  CD2 LEU A   1      -7.647   0.844 131.706  0.00  0.00    +0.000 C 
ENDBRANCH  35  36
ENDBRANCH   8  35
TORSDOF 6
ENDMDL
MODEL 8
REMARK VINA RESULT:      -9.3      4.247      7.935
REMARK  Name = CHEMBL2037492
REMARK  9 active torsions:
REMARK  status: ('A' for Active; 'I' for Inactive)
REMARK    1  A    between atoms: C_1  and  C_2
REMARK    2  A    between atoms: C_5  and  C_6
REMARK    3  A    between atoms: C_6  and  C_7
REMARK    4  A    between atoms: C_6  and  N_15
REMARK    5  A    between atoms: C_18  and  C_19
REMARK    6  A    between atoms: CA_31  and  CB_32
REMARK    7  A    between atoms: CB_32  and  CG_33
REMARK    8  A    between atoms: CG_33  and  CD1_34
REMARK    9  A    between atoms: CG_33  and  CD2_35
REMARK                            x       y       z     vdW  Elec       q    Type
REMARK                         _______ _______ _______ _____ _____    ______ ____
ROOT
ATOM      1  N   LEU A   1      -7.303   2.652 130.677  0.00  0.00    +0.000 N 
ATOM      2  C   UNK A   2      -7.093   1.961 129.472  0.00  0.00    +0.000 C 
ATOM      3  O   UNK A   2      -6.481   2.487 128.538  0.00  0.00    +0.000 OA
ATOM      4  C   UNK A   2      -7.875   0.603 129.326  0.00  0.00    +0.000 C 
ATOM      5  N   UNK A   2      -7.610  -0.154 130.511  0.00  0.00    +0.000 N 
ATOM      6  C   LEU A   1      -7.997   0.355 131.691  0.00  0.00    +0.000 C 
ATOM      7  O   LEU A   1      -8.213  -0.449 132.616  0.00  0.00    +0.000 OA
ATOM      8  CA  LEU A   1      -8.085   1.907 131.769  0.00  0.00    +0.000 C 
ATOM      9  H   UNK A   2      -7.438  -1.153 130.498  0.00  0.00    +0.000 HD
ENDROOT
BRANCH   4  10
ATOM     10  C   UNK A   2      -7.513  -0.264 128.140  0.00  0.00    +0.000 C 
ATOM     11  C   UNK A   2      -7.818  -1.744 128.317  0.00  0.00    +0.000 C 
ATOM     12  C   UNK A   2      -8.154  -2.179 126.951  0.00  0.00    +0.000 A 
ATOM     13  C   UNK A   2      -8.400  -3.472 126.544  0.00  0.00    +0.000 A 
ATOM     14  C   UNK A   2      -8.791  -3.652 125.229  0.00  0.00    +0.000 A 
ATOM     15  C   UNK A   2      -8.991  -2.542 124.386  0.00  0.00    +0.000 A 
ATOM     16  C   UNK A   2      -8.841  -1.238 124.852  0.00  0.00    +0.000 A 
ATOM     17  C   UNK A   2      -8.414  -1.073 126.143  0.00  0.00    +0.000 A 
ATOM     18  C   UNK A   2      -8.274   0.206 126.889  0.00  0.00    +0.000 C 
ENDBRANCH   4  10
BRANCH   1  19
ATOM     19  C   UNK A   0      -6.844   4.157 130.714  0.00  0.00    +0.000 C 
BRANCH  19  20
ATOM     20  C   UNK A   0      -5.356   4.475 130.236  0.00  0.00    +0.000 C 
ATOM     21  O   UNK A   0      -5.198   5.237 129.268  0.00  0.00    +0.000 OA
ATOM     22  N   UNK A   0      -4.224   4.071 130.910  0.00  0.00    +0.000 N 
ATOM     23  C   UNK A   0      -3.968   2.822 131.621  0.00  0.00    +0.000 C 
ATOM     24  C   UNK A   0      -3.239   3.176 132.905  0.00  0.00    +0.000 C 
ATOM     25  O   UNK A   0      -1.998   3.845 132.700  0.00  0.00    +0.000 OA
ATOM     26  C   UNK A   0      -2.297   5.113 132.080  0.00  0.00    +0.000 C 
ATOM     27  C   UNK A   0      -2.991   4.854 130.734  0.00  0.00    +0.000 C 
ENDBRANCH  19  20
BRANCH  19  32
ATOM     28  C   UNK A   0     -11.266   7.710 129.340  0.00  0.00    +0.000 C 
ATOM     29  C   UNK A   0     -10.046   6.868 129.574  0.00  0.00    +0.000 A 
ATOM     30  C   UNK A   0      -9.247   7.198 130.642  0.00  0.00    +0.000 A 
ATOM     31  C   UNK A   0      -8.072   6.479 130.897  0.00  0.00    +0.000 A 
ATOM     32  C   UNK A   0      -7.807   5.295 130.177  0.00  0.00    +0.000 A 
ATOM     33  C   UNK A   0      -8.600   5.139 129.038  0.00  0.00    +0.000 A 
ATOM     34  N   UNK A   0      -9.696   5.892 128.718  0.00  0.00    +0.000 NA
ENDBRANCH  19  32
ENDBRANCH   1  19
BRANCH   8  35
ATOM     35  CB  LEU A   1      -7.490   2.252 133.119  0.00  0.00    +0.000 C 
BRANCH  35  36
ATOM     36  CG  LEU A   1      -8.122   3.315 134.037  0.00  0.00    +0.000 C 
ATOM     37  CD1 LEU A   1      -7.120   4.459 134.365  0.00  0.00    +0.000 C 
ATOM     38  CD2 LEU A   1      -9.362   4.014 133.506  0.00  0.00    +0.000 C 
ENDBRANCH  35  36
ENDBRANCH   8  35
TORSDOF 6
ENDMDL
MODEL 9
REMARK VINA RESULT:      -9.2      4.229      7.931
REMARK  Name = CHEMBL2037492
REMARK  9 active torsions:
REMARK  status: ('A' for Active; 'I' for Inactive)
REMARK    1  A    between atoms: C_1  and  C_2
REMARK    2  A    between atoms: C_5  and  C_6
REMARK    3  A    between atoms: C_6  and  C_7
REMARK    4  A    between atoms: C_6  and  N_15
REMARK    5  A    between atoms: C_18  and  C_19
REMARK    6  A    between atoms: CA_31  and  CB_32
REMARK    7  A    between atoms: CB_32  and  CG_33
REMARK    8  A    between atoms: CG_33  and  CD1_34
REMARK    9  A    between atoms: CG_33  and  CD2_35
REMARK                            x       y       z     vdW  Elec       q    Type
REMARK                         _______ _______ _______ _____ _____    ______ ____
ROOT
ATOM      1  N   LEU A   1      -8.074   3.396 129.808  0.00  0.00    +0.000 N 
ATOM      2  C   UNK A   2      -8.995   4.455 129.740  0.00  0.00    +0.000 C 
ATOM      3  O   UNK A   2      -8.909   5.313 128.857  0.00  0.00    +0.000 OA
ATOM      4  C   UNK A   2      -9.966   4.586 130.971  0.00  0.00    +0.000 C 
ATOM      5  N   UNK A   2     -10.545   3.294 131.179  0.00  0.00    +0.000 N 
ATOM      6  C   LEU A   1      -9.728   2.272 131.478  0.00  0.00    +0.000 C 
ATOM      7  O   LEU A   1     -10.216   1.318 132.109  0.00  0.00    +0.000 OA
ATOM      8  CA  LEU A   1      -8.268   2.389 130.952  0.00  0.00    +0.000 C 
ATOM      9  H   UNK A   2     -11.521   3.162 131.417  0.00  0.00    +0.000 HD
ENDROOT
BRANCH   4  10
ATOM     10  C   UNK A   2     -11.100   5.579 130.837  0.00  0.00    +0.000 C 
ATOM     11  C   UNK A   2     -10.664   7.010 130.560  0.00  0.00    +0.000 C 
ATOM     12  C   UNK A   2     -11.760   7.536 129.730  0.00  0.00    +0.000 A 
ATOM     13  C   UNK A   2     -11.906   8.837 129.301  0.00  0.00    +0.000 A 
ATOM     14  C   UNK A   2     -12.964   9.101 128.448  0.00  0.00    +0.000 A 
ATOM     15  C   UNK A   2     -13.794   8.058 127.997  0.00  0.00    +0.000 A 
ATOM     16  C   UNK A   2     -13.559   6.733 128.358  0.00  0.00    +0.000 A 
ATOM     17  C   UNK A   2     -12.536   6.488 129.235  0.00  0.00    +0.000 A 
ATOM     18  C   UNK A   2     -12.036   5.164 129.689  0.00  0.00    +0.000 C 
ENDBRANCH   4  10
BRANCH   1  19
ATOM     19  C   UNK A   0      -6.868   3.446 128.799  0.00  0.00    +0.000 C 
BRANCH  19  20
ATOM     20  C   UNK A   0      -7.220   3.622 127.253  0.00  0.00    +0.000 C 
ATOM     21  O   UNK A   0      -6.954   4.705 126.707  0.00  0.00    +0.000 OA
ATOM     22  N   UNK A   0      -7.677   2.604 126.443  0.00  0.00    +0.000 N 
ATOM     23  C   UNK A   0      -8.592   1.512 126.759  0.00  0.00    +0.000 C 
ATOM     24  C   UNK A   0      -8.036   0.256 126.111  0.00  0.00    +0.000 C 
ATOM     25  O   UNK A   0      -7.904   0.345 124.695  0.00  0.00    +0.000 OA
ATOM     26  C   UNK A   0      -6.925   1.369 124.424  0.00  0.00    +0.000 C 
ATOM     27  C   UNK A   0      -7.432   2.703 124.995  0.00  0.00    +0.000 C 
ENDBRANCH  19  20
BRANCH  19  32
ATOM     28  C   UNK A   0      -2.079   5.929 131.028  0.00  0.00    +0.000 C 
ATOM     29  C   UNK A   0      -3.324   5.423 130.362  0.00  0.00    +0.000 A 
ATOM     30  C   UNK A   0      -3.175   4.467 129.386  0.00  0.00    +0.000 A 
ATOM     31  C   UNK A   0      -4.291   3.977 128.696  0.00  0.00    +0.000 A 
ATOM     32  C   UNK A   0      -5.587   4.319 129.132  0.00  0.00    +0.000 A 
ATOM     33  C   UNK A   0      -5.617   5.392 130.026  0.00  0.00    +0.000 A 
ATOM     34  N   UNK A   0      -4.529   5.952 130.638  0.00  0.00    +0.000 NA
ENDBRANCH  19  32
ENDBRANCH   1  19
BRANCH   8  35
ATOM     35  CB  LEU A   1      -7.937   1.001 130.444  0.00  0.00    +0.000 C 
BRANCH  35  36
ATOM     36  CG  LEU A   1      -6.701   0.228 130.942  0.00  0.00    +0.000 C 
ATOM     37  CD1 LEU A   1      -5.610   1.187 131.498  0.00  0.00    +0.000 C 
ATOM     38  CD2 LEU A   1      -6.940  -0.785 132.049  0.00  0.00    +0.000 C 
ENDBRANCH  35  36
ENDBRANCH   8  35
TORSDOF 6
ENDMDL
