MODEL 1
REMARK VINA RESULT:      -9.2      0.000      0.000
REMARK  Name = CHEMBL428694
REMARK  9 active torsions:
REMARK  status: ('A' for Active; 'I' for Inactive)
REMARK    1  A    between atoms: C_1  and  C_2
REMARK    2  A    between atoms: N_4  and  C_5
REMARK    3  A    between atoms: C_7  and  C_8
REMARK    4  A    between atoms: N_20  and  C_21
REMARK    5  A    between atoms: C_21  and  C_22
REMARK    6  A    between atoms: N_24  and  C_25
REMARK    7  A    between atoms: N_24  and  C_26
REMARK    8  A    between atoms: C_26  and  C_27
REMARK    9  A    between atoms: C_27  and  C_28
REMARK                            x       y       z     vdW  Elec       q    Type
REMARK                         _______ _______ _______ _____ _____    ______ ____
ROOT
ATOM      1  C   UNL     1      -4.969   1.988 127.497  0.00  0.00    +0.000 C 
ATOM      2  N   UNL     1      -5.365   0.587 127.701  0.00  0.00    +0.000 NA
ATOM      3  C   UNL     1      -6.488   0.329 128.303  0.00  0.00    +0.000 C 
ATOM      4  C   UNL     1      -7.402   1.351 128.909  0.00  0.00    +0.000 A 
ATOM      5  C   UNL     1      -8.074   1.029 130.103  0.00  0.00    +0.000 A 
ATOM      6  C   UNL     1      -8.972   1.928 130.688  0.00  0.00    +0.000 A 
ATOM      7  C   UNL     1      -9.157   3.183 130.130  0.00  0.00    +0.000 A 
ATOM      8  C   UNL     1      -8.447   3.537 128.987  0.00  0.00    +0.000 A 
ATOM      9  C   UNL     1      -7.644   2.600 128.312  0.00  0.00    +0.000 A 
ATOM     10  N   UNL     1      -7.247   2.896 126.981  0.00  0.00    +0.000 N 
ATOM     11  C   UNL     1      -5.975   2.623 126.487  0.00  0.00    +0.000 C 
ATOM     12  O   UNL     1      -5.680   2.896 125.316  0.00  0.00    +0.000 OA
ENDROOT
BRANCH   3  13
ATOM     13  C   UNL     1      -6.886  -1.117 128.396  0.00  0.00    +0.000 A 
ATOM     14  C   UNL     1      -7.801  -1.633 127.474  0.00  0.00    +0.000 A 
ATOM     15  C   UNL     1      -8.399  -2.875 127.708  0.00  0.00    +0.000 A 
ATOM     16  C   UNL     1      -8.007  -3.645 128.801  0.00  0.00    +0.000 A 
ATOM     17  C   UNL     1      -6.981  -3.196 129.636  0.00  0.00    +0.000 A 
ATOM     18  C   UNL     1      -6.446  -1.914 129.460  0.00  0.00    +0.000 A 
ENDBRANCH   3  13
BRANCH   1  22
ATOM     19  C   UNL     1      -1.420   2.984 126.569  0.00  0.00    +0.000 C 
ATOM     20  C   UNL     1      -2.742   2.990 127.294  0.00  0.00    +0.000 C 
ATOM     21  O   UNL     1      -2.987   3.825 128.164  0.00  0.00    +0.000 OA
ATOM     22  N   UNL     1      -3.638   2.012 126.919  0.00  0.00    +0.000 N 
ATOM     23  H   UNL     1      -3.416   1.304 126.236  0.00  0.00    +0.000 HD
ENDBRANCH   1  22
BRANCH  10  24
ATOM     24  C   UNL     1      -8.193   3.506 126.035  0.00  0.00    +0.000 C 
BRANCH  24  25
ATOM     25  C   UNL     1      -8.509   2.793 124.702  0.00  0.00    +0.000 C 
ATOM     26  O   UNL     1      -8.432   3.361 123.602  0.00  0.00    +0.000 OA
ATOM     27  N   UNL     1      -8.909   1.469 124.743  0.00  0.00    +0.000 N 
ATOM     28  C   UNL     1      -9.586   0.898 125.896  0.00  0.00    +0.000 C 
BRANCH  27  29
ATOM     29  C   UNL     1      -8.965   0.779 123.448  0.00  0.00    +0.000 C 
BRANCH  29  30
ATOM     30  C   UNL     1      -7.662   0.120 123.010  0.00  0.00    +0.000 C 
BRANCH  30  31
ATOM     31  C   UNL     1      -7.603  -1.325 123.406  0.00  0.00    +0.000 A 
ATOM     32  C   UNL     1      -8.778  -2.009 123.739  0.00  0.00    +0.000 A 
ATOM     33  C   UNL     1      -8.718  -3.337 124.153  0.00  0.00    +0.000 A 
ATOM     34  C   UNL     1      -7.480  -3.950 124.343  0.00  0.00    +0.000 A 
ATOM     35  C   UNL     1      -6.309  -3.268 124.015  0.00  0.00    +0.000 A 
ATOM     36 CL   UNL     1      -4.778  -4.000 124.296  0.00  0.00    +0.000 Cl
ATOM     37  C   UNL     1      -6.369  -1.982 123.490  0.00  0.00    +0.000 A 
ENDBRANCH  30  31
ENDBRANCH  29  30
ENDBRANCH  27  29
ENDBRANCH  24  25
ENDBRANCH  10  24
TORSDOF 7
ENDMDL
MODEL 2
REMARK VINA RESULT:      -9.1      4.903      7.888
REMARK  Name = CHEMBL428694
REMARK  9 active torsions:
REMARK  status: ('A' for Active; 'I' for Inactive)
REMARK    1  A    between atoms: C_1  and  C_2
REMARK    2  A    between atoms: N_4  and  C_5
REMARK    3  A    between atoms: C_7  and  C_8
REMARK    4  A    between atoms: N_20  and  C_21
REMARK    5  A    between atoms: C_21  and  C_22
REMARK    6  A    between atoms: N_24  and  C_25
REMARK    7  A    between atoms: N_24  and  C_26
REMARK    8  A    between atoms: C_26  and  C_27
REMARK    9  A    between atoms: C_27  and  C_28
REMARK                            x       y       z     vdW  Elec       q    Type
REMARK                         _______ _______ _______ _____ _____    ______ ____
ROOT
ATOM      1  C   UNL     1      -9.302   6.875 130.545  0.00  0.00    +0.000 C 
ATOM      2  N   UNL     1      -7.851   7.080 130.426  0.00  0.00    +0.000 NA
ATOM      3  C   UNL     1      -7.061   6.525 131.296  0.00  0.00    +0.000 C 
ATOM      4  C   UNL     1      -7.503   5.748 132.499  0.00  0.00    +0.000 A 
ATOM      5  C   UNL     1      -6.760   5.866 133.687  0.00  0.00    +0.000 A 
ATOM      6  C   UNL     1      -7.103   5.131 134.827  0.00  0.00    +0.000 A 
ATOM      7  C   UNL     1      -8.230   4.323 134.816  0.00  0.00    +0.000 A 
ATOM      8  C   UNL     1      -9.011   4.251 133.667  0.00  0.00    +0.000 A 
ATOM      9  C   UNL     1      -8.607   4.877 132.474  0.00  0.00    +0.000 A 
ATOM     10  N   UNL     1      -9.231   4.475 131.264  0.00  0.00    +0.000 N 
ATOM     11  C   UNL     1      -9.593   5.369 130.260  0.00  0.00    +0.000 C 
ATOM     12  O   UNL     1     -10.131   4.966 129.220  0.00  0.00    +0.000 OA
ENDROOT
BRANCH   3  13
ATOM     13  C   UNL     1      -5.585   6.689 131.066  0.00  0.00    +0.000 A 
ATOM     14  C   UNL     1      -5.124   7.795 130.346  0.00  0.00    +0.000 A 
ATOM     15  C   UNL     1      -3.807   7.820 129.877  0.00  0.00    +0.000 A 
ATOM     16  C   UNL     1      -2.924   6.797 130.216  0.00  0.00    +0.000 A 
ATOM     17  C   UNL     1      -3.342   5.770 131.064  0.00  0.00    +0.000 A 
ATOM     18  C   UNL     1      -4.684   5.691 131.459  0.00  0.00    +0.000 A 
ENDBRANCH   3  13
BRANCH   1  22
ATOM     19  C   UNL     1     -11.929   8.725 128.515  0.00  0.00    +0.000 C 
ATOM     20  C   UNL     1     -11.314   7.955 129.656  0.00  0.00    +0.000 C 
ATOM     21  O   UNL     1     -11.989   7.598 130.620  0.00  0.00    +0.000 OA
ATOM     22  N   UNL     1      -9.967   7.686 129.541  0.00  0.00    +0.000 N 
ATOM     23  H   UNL     1      -9.409   8.018 128.770  0.00  0.00    +0.000 HD
ENDBRANCH   1  22
BRANCH  10  24
ATOM     24  C   UNL     1      -9.517   3.057 131.003  0.00  0.00    +0.000 C 
BRANCH  24  25
ATOM     25  C   UNL     1      -8.531   2.222 130.156  0.00  0.00    +0.000 C 
ATOM     26  O   UNL     1      -8.723   1.970 128.956  0.00  0.00    +0.000 OA
ATOM     27  N   UNL     1      -7.395   1.723 130.769  0.00  0.00    +0.000 N 
ATOM     28  C   UNL     1      -7.345   1.434 132.193  0.00  0.00    +0.000 C 
BRANCH  27  29
ATOM     29  C   UNL     1      -6.387   1.146 129.871  0.00  0.00    +0.000 C 
BRANCH  29  30
ATOM     30  C   UNL     1      -4.964   1.649 130.089  0.00  0.00    +0.000 C 
BRANCH  30  31
ATOM     31  C   UNL     1      -4.567   2.671 129.067  0.00  0.00    +0.000 A 
ATOM     32  C   UNL     1      -5.451   3.703 128.727  0.00  0.00    +0.000 A 
ATOM     33  C   UNL     1      -5.102   4.624 127.744  0.00  0.00    +0.000 A 
ATOM     34  C   UNL     1      -3.922   4.452 127.019  0.00  0.00    +0.000 A 
ATOM     35  C   UNL     1      -3.044   3.424 127.354  0.00  0.00    +0.000 A 
ATOM     36 CL   UNL     1      -1.614   3.177 126.431  0.00  0.00    +0.000 Cl
ATOM     37  C   UNL     1      -3.333   2.571 128.414  0.00  0.00    +0.000 A 
ENDBRANCH  30  31
ENDBRANCH  29  30
ENDBRANCH  27  29
ENDBRANCH  24  25
ENDBRANCH  10  24
TORSDOF 7
ENDMDL
MODEL 3
REMARK VINA RESULT:      -9.1      4.967      8.762
REMARK  Name = CHEMBL428694
REMARK  9 active torsions:
REMARK  status: ('A' for Active; 'I' for Inactive)
REMARK    1  A    between atoms: C_1  and  C_2
REMARK    2  A    between atoms: N_4  and  C_5
REMARK    3  A    between atoms: C_7  and  C_8
REMARK    4  A    between atoms: N_20  and  C_21
REMARK    5  A    between atoms: C_21  and  C_22
REMARK    6  A    between atoms: N_24  and  C_25
REMARK    7  A    between atoms: N_24  and  C_26
REMARK    8  A    between atoms: C_26  and  C_27
REMARK    9  A    between atoms: C_27  and  C_28
REMARK                            x       y       z     vdW  Elec       q    Type
REMARK                         _______ _______ _______ _____ _____    ______ ____
ROOT
ATOM      1  C   UNL     1     -10.154   5.762 130.523  0.00  0.00    +0.000 C 
ATOM      2  N   UNL     1      -9.231   6.109 131.614  0.00  0.00    +0.000 NA
ATOM      3  C   UNL     1      -8.516   5.171 132.159  0.00  0.00    +0.000 C 
ATOM      4  C   UNL     1      -8.608   3.710 131.836  0.00  0.00    +0.000 A 
ATOM      5  C   UNL     1      -8.448   2.779 132.878  0.00  0.00    +0.000 A 
ATOM      6  C   UNL     1      -8.482   1.404 132.626  0.00  0.00    +0.000 A 
ATOM      7  C   UNL     1      -8.745   0.941 131.346  0.00  0.00    +0.000 A 
ATOM      8  C   UNL     1      -8.971   1.853 130.320  0.00  0.00    +0.000 A 
ATOM      9  C   UNL     1      -8.809   3.235 130.528  0.00  0.00    +0.000 A 
ATOM     10  N   UNL     1      -8.691   4.073 129.387  0.00  0.00    +0.000 N 
ATOM     11  C   UNL     1      -9.295   5.324 129.296  0.00  0.00    +0.000 C 
ATOM     12  O   UNL     1      -9.157   6.019 128.281  0.00  0.00    +0.000 OA
ENDROOT
BRANCH   3  13
ATOM     13  C   UNL     1      -7.521   5.601 133.200  0.00  0.00    +0.000 A 
ATOM     14  C   UNL     1      -6.198   5.846 132.820  0.00  0.00    +0.000 A 
ATOM     15  C   UNL     1      -5.205   5.964 133.797  0.00  0.00    +0.000 A 
ATOM     16  C   UNL     1      -5.546   5.945 135.148  0.00  0.00    +0.000 A 
ATOM     17  C   UNL     1      -6.888   5.855 135.525  0.00  0.00    +0.000 A 
ATOM     18  C   UNL     1      -7.875   5.642 134.554  0.00  0.00    +0.000 A 
ENDBRANCH   3  13
BRANCH   1  22
ATOM     19  C   UNL     1     -12.870   8.412 130.309  0.00  0.00    +0.000 C 
ATOM     20  C   UNL     1     -12.108   7.213 130.811  0.00  0.00    +0.000 C 
ATOM     21  O   UNL     1     -12.538   6.528 131.739  0.00  0.00    +0.000 OA
ATOM     22  N   UNL     1     -10.917   6.945 130.170  0.00  0.00    +0.000 N 
ATOM     23  H   UNL     1     -10.549   7.534 129.439  0.00  0.00    +0.000 HD
ENDBRANCH   1  22
BRANCH  10  24
ATOM     24  C   UNL     1      -7.891   3.653 128.228  0.00  0.00    +0.000 C 
BRANCH  24  25
ATOM     25  C   UNL     1      -6.373   3.939 128.202  0.00  0.00    +0.000 C 
ATOM     26  O   UNL     1      -5.894   4.980 127.727  0.00  0.00    +0.000 OA
ATOM     27  N   UNL     1      -5.515   2.983 128.716  0.00  0.00    +0.000 N 
ATOM     28  C   UNL     1      -5.852   1.568 128.739  0.00  0.00    +0.000 C 
BRANCH  27  29
ATOM     29  C   UNL     1      -4.117   3.404 128.882  0.00  0.00    +0.000 C 
BRANCH  29  30
ATOM     30  C   UNL     1      -3.608   3.399 130.318  0.00  0.00    +0.000 C 
BRANCH  30  31
ATOM     31  C   UNL     1      -3.118   4.751 130.745  0.00  0.00    +0.000 A 
ATOM     32  C   UNL     1      -2.211   4.867 131.805  0.00  0.00    +0.000 A 
ATOM     33  C   UNL     1      -1.794   6.124 132.232  0.00  0.00    +0.000 A 
ATOM     34  C   UNL     1      -2.366   7.270 131.679  0.00  0.00    +0.000 A 
ATOM     35  C   UNL     1      -3.271   7.156 130.625  0.00  0.00    +0.000 A 
ATOM     36 CL   UNL     1      -4.017   8.563 129.975  0.00  0.00    +0.000 Cl
ATOM     37  C   UNL     1      -3.602   5.905 130.116  0.00  0.00    +0.000 A 
ENDBRANCH  30  31
ENDBRANCH  29  30
ENDBRANCH  27  29
ENDBRANCH  24  25
ENDBRANCH  10  24
TORSDOF 7
ENDMDL
MODEL 4
REMARK VINA RESULT:      -8.9      4.219      7.170
REMARK  Name = CHEMBL428694
REMARK  9 active torsions:
REMARK  status: ('A' for Active; 'I' for Inactive)
REMARK    1  A    between atoms: C_1  and  C_2
REMARK    2  A    between atoms: N_4  and  C_5
REMARK    3  A    between atoms: C_7  and  C_8
REMARK    4  A    between atoms: N_20  and  C_21
REMARK    5  A    between atoms: C_21  and  C_22
REMARK    6  A    between atoms: N_24  and  C_25
REMARK    7  A    between atoms: N_24  and  C_26
REMARK    8  A    between atoms: C_26  and  C_27
REMARK    9  A    between atoms: C_27  and  C_28
REMARK                            x       y       z     vdW  Elec       q    Type
REMARK                         _______ _______ _______ _____ _____    ______ ____
ROOT
ATOM      1  C   UNL     1      -9.421   6.775 130.579  0.00  0.00    +0.000 C 
ATOM      2  N   UNL     1      -7.985   6.928 130.299  0.00  0.00    +0.000 NA
ATOM      3  C   UNL     1      -7.124   6.351 131.083  0.00  0.00    +0.000 C 
ATOM      4  C   UNL     1      -7.458   5.597 132.335  0.00  0.00    +0.000 A 
ATOM      5  C   UNL     1      -6.585   5.697 133.433  0.00  0.00    +0.000 A 
ATOM      6  C   UNL     1      -6.826   4.982 134.611  0.00  0.00    +0.000 A 
ATOM      7  C   UNL     1      -7.974   4.215 134.733  0.00  0.00    +0.000 A 
ATOM      8  C   UNL     1      -8.879   4.164 133.678  0.00  0.00    +0.000 A 
ATOM      9  C   UNL     1      -8.588   4.767 132.441  0.00  0.00    +0.000 A 
ATOM     10  N   UNL     1      -9.355   4.380 131.310  0.00  0.00    +0.000 N 
ATOM     11  C   UNL     1      -9.794   5.279 130.343  0.00  0.00    +0.000 C 
ATOM     12  O   UNL     1     -10.457   4.889 129.373  0.00  0.00    +0.000 OA
ENDROOT
BRANCH   3  13
ATOM     13  C   UNL     1      -5.677   6.459 130.691  0.00  0.00    +0.000 A 
ATOM     14  C   UNL     1      -4.942   5.293 130.462  0.00  0.00    +0.000 A 
ATOM     15  C   UNL     1      -3.548   5.354 130.380  0.00  0.00    +0.000 A 
ATOM     16  C   UNL     1      -2.898   6.586 130.420  0.00  0.00    +0.000 A 
ATOM     17  C   UNL     1      -3.644   7.763 130.494  0.00  0.00    +0.000 A 
ATOM     18  C   UNL     1      -5.033   7.703 130.670  0.00  0.00    +0.000 A 
ENDBRANCH   3  13
BRANCH   1  22
ATOM     19  C   UNL     1     -12.193   8.693 128.822  0.00  0.00    +0.000 C 
ATOM     20  C   UNL     1     -11.484   7.908 129.896  0.00  0.00    +0.000 C 
ATOM     21  O   UNL     1     -12.066   7.569 130.926  0.00  0.00    +0.000 OA
ATOM     22  N   UNL     1     -10.163   7.603 129.646  0.00  0.00    +0.000 N 
ATOM     23  H   UNL     1      -9.679   7.920 128.820  0.00  0.00    +0.000 HD
ENDBRANCH   1  22
BRANCH  10  24
ATOM     24  C   UNL     1      -9.717   2.971 131.098  0.00  0.00    +0.000 C 
BRANCH  24  25
ATOM     25  C   UNL     1      -8.807   2.070 130.234  0.00  0.00    +0.000 C 
ATOM     26  O   UNL     1      -8.499   2.350 129.065  0.00  0.00    +0.000 OA
ATOM     27  N   UNL     1      -8.329   0.894 130.785  0.00  0.00    +0.000 N 
ATOM     28  C   UNL     1      -9.043   0.184 131.835  0.00  0.00    +0.000 C 
BRANCH  27  29
ATOM     29  C   UNL     1      -7.289   0.203 130.013  0.00  0.00    +0.000 C 
BRANCH  29  30
ATOM     30  C   UNL     1      -7.274  -1.314 130.163  0.00  0.00    +0.000 C 
BRANCH  30  31
ATOM     31  C   UNL     1      -7.857  -2.002 128.966  0.00  0.00    +0.000 A 
ATOM     32  C   UNL     1      -8.402  -3.286 129.091  0.00  0.00    +0.000 A 
ATOM     33  C   UNL     1      -8.900  -3.945 127.970  0.00  0.00    +0.000 A 
ATOM     34  C   UNL     1      -8.754  -3.372 126.707  0.00  0.00    +0.000 A 
ATOM     35  C   UNL     1      -8.210  -2.095 126.581  0.00  0.00    +0.000 A 
ATOM     36 CL   UNL     1      -7.980  -1.407 125.022  0.00  0.00    +0.000 Cl
ATOM     37  C   UNL     1      -7.818  -1.384 127.710  0.00  0.00    +0.000 A 
ENDBRANCH  30  31
ENDBRANCH  29  30
ENDBRANCH  27  29
ENDBRANCH  24  25
ENDBRANCH  10  24
TORSDOF 7
ENDMDL
MODEL 5
REMARK VINA RESULT:      -8.6      3.949      7.704
REMARK  Name = CHEMBL428694
REMARK  9 active torsions:
REMARK  status: ('A' for Active; 'I' for Inactive)
REMARK    1  A    between atoms: C_1  and  C_2
REMARK    2  A    between atoms: N_4  and  C_5
REMARK    3  A    between atoms: C_7  and  C_8
REMARK    4  A    between atoms: N_20  and  C_21
REMARK    5  A    between atoms: C_21  and  C_22
REMARK    6  A    between atoms: N_24  and  C_25
REMARK    7  A    between atoms: N_24  and  C_26
REMARK    8  A    between atoms: C_26  and  C_27
REMARK    9  A    between atoms: C_27  and  C_28
REMARK                            x       y       z     vdW  Elec       q    Type
REMARK                         _______ _______ _______ _____ _____    ______ ____
ROOT
ATOM      1  C   UNL     1      -8.085   1.481 127.759  0.00  0.00    +0.000 C 
ATOM      2  N   UNL     1      -8.117   0.144 127.146  0.00  0.00    +0.000 NA
ATOM      3  C   UNL     1      -8.096   0.044 125.850  0.00  0.00    +0.000 C 
ATOM      4  C   UNL     1      -8.135   1.193 124.889  0.00  0.00    +0.000 A 
ATOM      5  C   UNL     1      -8.853   1.042 123.688  0.00  0.00    +0.000 A 
ATOM      6  C   UNL     1      -8.887   2.066 122.737  0.00  0.00    +0.000 A 
ATOM      7  C   UNL     1      -8.265   3.277 123.000  0.00  0.00    +0.000 A 
ATOM      8  C   UNL     1      -7.610   3.461 124.214  0.00  0.00    +0.000 A 
ATOM      9  C   UNL     1      -7.452   2.399 125.123  0.00  0.00    +0.000 A 
ATOM     10  N   UNL     1      -6.481   2.536 126.149  0.00  0.00    +0.000 N 
ATOM     11  C   UNL     1      -6.689   2.108 127.457  0.00  0.00    +0.000 C 
ATOM     12  O   UNL     1      -5.806   2.246 128.314  0.00  0.00    +0.000 OA
ENDROOT
BRANCH   3  13
ATOM     13  C   UNL     1      -8.032  -1.347 125.284  0.00  0.00    +0.000 A 
ATOM     14  C   UNL     1      -9.107  -2.217 125.486  0.00  0.00    +0.000 A 
ATOM     15  C   UNL     1      -8.956  -3.582 125.225  0.00  0.00    +0.000 A 
ATOM     16  C   UNL     1      -7.773  -4.061 124.666  0.00  0.00    +0.000 A 
ATOM     17  C   UNL     1      -6.756  -3.168 124.321  0.00  0.00    +0.000 A 
ATOM     18  C   UNL     1      -6.865  -1.815 124.666  0.00  0.00    +0.000 A 
ENDBRANCH   3  13
BRANCH   1  22
ATOM     19  C   UNL     1      -8.973   2.081 131.406  0.00  0.00    +0.000 C 
ATOM     20  C   UNL     1      -8.950   2.273 129.911  0.00  0.00    +0.000 C 
ATOM     21  O   UNL     1      -9.536   3.217 129.381  0.00  0.00    +0.000 OA
ATOM     22  N   UNL     1      -8.239   1.334 129.195  0.00  0.00    +0.000 N 
ATOM     23  H   UNL     1      -7.797   0.539 129.629  0.00  0.00    +0.000 HD
ENDBRANCH   1  22
BRANCH  10  24
ATOM     24  C   UNL     1      -5.171   3.139 125.864  0.00  0.00    +0.000 C 
BRANCH  24  25
ATOM     25  C   UNL     1      -4.839   4.544 126.416  0.00  0.00    +0.000 C 
ATOM     26  O   UNL     1      -5.554   5.535 126.203  0.00  0.00    +0.000 OA
ATOM     27  N   UNL     1      -3.687   4.701 127.166  0.00  0.00    +0.000 N 
ATOM     28  C   UNL     1      -2.526   3.841 126.996  0.00  0.00    +0.000 C 
BRANCH  27  29
ATOM     29  C   UNL     1      -3.547   5.989 127.858  0.00  0.00    +0.000 C 
BRANCH  29  30
ATOM     30  C   UNL     1      -2.222   6.191 128.584  0.00  0.00    +0.000 C 
BRANCH  30  31
ATOM     31  C   UNL     1      -2.420   6.538 130.029  0.00  0.00    +0.000 A 
ATOM     32  C   UNL     1      -3.678   6.951 130.485  0.00  0.00    +0.000 A 
ATOM     33  C   UNL     1      -3.851   7.320 131.816  0.00  0.00    +0.000 A 
ATOM     34  C   UNL     1      -2.748   7.385 132.667  0.00  0.00    +0.000 A 
ATOM     35  C   UNL     1      -1.495   6.976 132.214  0.00  0.00    +0.000 A 
ATOM     36 CL   UNL     1      -0.123   7.104 133.243  0.00  0.00    +0.000 Cl
ATOM     37  C   UNL     1      -1.339   6.496 130.918  0.00  0.00    +0.000 A 
ENDBRANCH  30  31
ENDBRANCH  29  30
ENDBRANCH  27  29
ENDBRANCH  24  25
ENDBRANCH  10  24
TORSDOF 7
ENDMDL
MODEL 6
REMARK VINA RESULT:      -8.5      2.495      5.580
REMARK  Name = CHEMBL428694
REMARK  9 active torsions:
REMARK  status: ('A' for Active; 'I' for Inactive)
REMARK    1  A    between atoms: C_1  and  C_2
REMARK    2  A    between atoms: N_4  and  C_5
REMARK    3  A    between atoms: C_7  and  C_8
REMARK    4  A    between atoms: N_20  and  C_21
REMARK    5  A    between atoms: C_21  and  C_22
REMARK    6  A    between atoms: N_24  and  C_25
REMARK    7  A    between atoms: N_24  and  C_26
REMARK    8  A    between atoms: C_26  and  C_27
REMARK    9  A    between atoms: C_27  and  C_28
REMARK                            x       y       z     vdW  Elec       q    Type
REMARK                         _______ _______ _______ _____ _____    ______ ____
ROOT
ATOM      1  C   UNL     1      -7.931   4.363 129.021  0.00  0.00    +0.000 C 
ATOM      2  N   UNL     1      -8.333   3.739 127.752  0.00  0.00    +0.000 NA
ATOM      3  C   UNL     1      -7.435   3.128 127.037  0.00  0.00    +0.000 C 
ATOM      4  C   UNL     1      -5.969   3.074 127.345  0.00  0.00    +0.000 A 
ATOM      5  C   UNL     1      -5.055   3.120 126.277  0.00  0.00    +0.000 A 
ATOM      6  C   UNL     1      -3.678   3.030 126.503  0.00  0.00    +0.000 A 
ATOM      7  C   UNL     1      -3.193   2.964 127.800  0.00  0.00    +0.000 A 
ATOM      8  C   UNL     1      -4.085   2.987 128.868  0.00  0.00    +0.000 A 
ATOM      9  C   UNL     1      -5.474   2.941 128.654  0.00  0.00    +0.000 A 
ATOM     10  N   UNL     1      -6.309   2.599 129.752  0.00  0.00    +0.000 N 
ATOM     11  C   UNL     1      -7.527   3.222 130.005  0.00  0.00    +0.000 C 
ATOM     12  O   UNL     1      -8.220   2.883 130.973  0.00  0.00    +0.000 OA
ENDROOT
BRANCH   3  13
ATOM     13  C   UNL     1      -7.922   2.425 125.801  0.00  0.00    +0.000 A 
ATOM     14  C   UNL     1      -8.229   3.178 124.664  0.00  0.00    +0.000 A 
ATOM     15  C   UNL     1      -8.945   2.593 123.616  0.00  0.00    +0.000 A 
ATOM     16  C   UNL     1      -9.261   1.236 123.655  0.00  0.00    +0.000 A 
ATOM     17  C   UNL     1      -8.819   0.450 124.721  0.00  0.00    +0.000 A 
ATOM     18  C   UNL     1      -8.184   1.049 125.816  0.00  0.00    +0.000 A 
ENDBRANCH   3  13
BRANCH   1  22
ATOM     19  C   UNL     1     -10.118   6.852 130.885  0.00  0.00    +0.000 C 
ATOM     20  C   UNL     1      -8.879   6.238 130.284  0.00  0.00    +0.000 C 
ATOM     21  O   UNL     1      -7.774   6.756 130.436  0.00  0.00    +0.000 OA
ATOM     22  N   UNL     1      -9.072   5.077 129.565  0.00  0.00    +0.000 N 
ATOM     23  H   UNL     1      -9.985   4.681 129.407  0.00  0.00    +0.000 HD
ENDBRANCH   1  22
BRANCH  10  24
ATOM     24  C   UNL     1      -5.919   1.532 130.684  0.00  0.00    +0.000 C 
BRANCH  24  25
ATOM     25  C   UNL     1      -5.802   0.078 130.176  0.00  0.00    +0.000 C 
ATOM     26  O   UNL     1      -4.871  -0.308 129.452  0.00  0.00    +0.000 OA
ATOM     27  N   UNL     1      -6.787  -0.826 130.533  0.00  0.00    +0.000 N 
ATOM     28  C   UNL     1      -8.148  -0.410 130.835  0.00  0.00    +0.000 C 
BRANCH  27  29
ATOM     29  C   UNL     1      -6.504  -2.234 130.226  0.00  0.00    +0.000 C 
BRANCH  29  30
ATOM     30  C   UNL     1      -7.692  -3.030 129.698  0.00  0.00    +0.000 C 
BRANCH  30  31
ATOM     31  C   UNL     1      -7.795  -2.960 128.204  0.00  0.00    +0.000 A 
ATOM     32  C   UNL     1      -8.854  -3.595 127.543  0.00  0.00    +0.000 A 
ATOM     33  C   UNL     1      -8.923  -3.571 126.153  0.00  0.00    +0.000 A 
ATOM     34  C   UNL     1      -7.879  -3.013 125.416  0.00  0.00    +0.000 A 
ATOM     35  C   UNL     1      -6.824  -2.383 126.072  0.00  0.00    +0.000 A 
ATOM     36 CL   UNL     1      -5.509  -1.739 125.169  0.00  0.00    +0.000 Cl
ATOM     37  C   UNL     1      -6.808  -2.301 127.460  0.00  0.00    +0.000 A 
ENDBRANCH  30  31
ENDBRANCH  29  30
ENDBRANCH  27  29
ENDBRANCH  24  25
ENDBRANCH  10  24
TORSDOF 7
ENDMDL
MODEL 7
REMARK VINA RESULT:      -8.5      3.797      7.703
REMARK  Name = CHEMBL428694
REMARK  9 active torsions:
REMARK  status: ('A' for Active; 'I' for Inactive)
REMARK    1  A    between atoms: C_1  and  C_2
REMARK    2  A    between atoms: N_4  and  C_5
REMARK    3  A    between atoms: C_7  and  C_8
REMARK    4  A    between atoms: N_20  and  C_21
REMARK    5  A    between atoms: C_21  and  C_22
REMARK    6  A    between atoms: N_24  and  C_25
REMARK    7  A    between atoms: N_24  and  C_26
REMARK    8  A    between atoms: C_26  and  C_27
REMARK    9  A    between atoms: C_27  and  C_28
REMARK                            x       y       z     vdW  Elec       q    Type
REMARK                         _______ _______ _______ _____ _____    ______ ____
ROOT
ATOM      1  C   UNL     1      -7.846   2.270 128.037  0.00  0.00    +0.000 C 
ATOM      2  N   UNL     1      -7.655   0.983 127.352  0.00  0.00    +0.000 NA
ATOM      3  C   UNL     1      -7.072   0.967 126.190  0.00  0.00    +0.000 C 
ATOM      4  C   UNL     1      -6.645   2.177 125.416  0.00  0.00    +0.000 A 
ATOM      5  C   UNL     1      -6.769   2.159 124.015  0.00  0.00    +0.000 A 
ATOM      6  C   UNL     1      -6.347   3.244 123.240  0.00  0.00    +0.000 A 
ATOM      7  C   UNL     1      -5.861   4.386 123.857  0.00  0.00    +0.000 A 
ATOM      8  C   UNL     1      -5.797   4.442 125.245  0.00  0.00    +0.000 A 
ATOM      9  C   UNL     1      -6.091   3.314 126.032  0.00  0.00    +0.000 A 
ATOM     10  N   UNL     1      -5.663   3.312 127.386  0.00  0.00    +0.000 N 
ATOM     11  C   UNL     1      -6.437   2.813 128.429  0.00  0.00    +0.000 C 
ATOM     12  O   UNL     1      -6.015   2.831 129.593  0.00  0.00    +0.000 OA
ENDROOT
BRANCH   3  13
ATOM     13  C   UNL     1      -6.816  -0.384 125.584  0.00  0.00    +0.000 A 
ATOM     14  C   UNL     1      -5.501  -0.848 125.480  0.00  0.00    +0.000 A 
ATOM     15  C   UNL     1      -5.216  -1.953 124.674  0.00  0.00    +0.000 A 
ATOM     16  C   UNL     1      -6.249  -2.656 124.058  0.00  0.00    +0.000 A 
ATOM     17  C   UNL     1      -7.575  -2.285 124.287  0.00  0.00    +0.000 A 
ATOM     18  C   UNL     1      -7.862  -1.124 125.017  0.00  0.00    +0.000 A 
ENDBRANCH   3  13
BRANCH   1  22
ATOM     19  C   UNL     1     -10.045   2.751 131.101  0.00  0.00    +0.000 C 
ATOM     20  C   UNL     1      -9.354   3.066 129.798  0.00  0.00    +0.000 C 
ATOM     21  O   UNL     1      -9.453   4.176 129.277  0.00  0.00    +0.000 OA
ATOM     22  N   UNL     1      -8.618   2.039 129.245  0.00  0.00    +0.000 N 
ATOM     23  H   UNL     1      -8.576   1.119 129.654  0.00  0.00    +0.000 HD
ENDBRANCH   1  22
BRANCH  10  24
ATOM     24  C   UNL     1      -4.340   3.837 127.753  0.00  0.00    +0.000 C 
BRANCH  24  25
ATOM     25  C   UNL     1      -4.218   5.260 128.343  0.00  0.00    +0.000 C 
ATOM     26  O   UNL     1      -4.400   6.284 127.667  0.00  0.00    +0.000 OA
ATOM     27  N   UNL     1      -3.877   5.392 129.677  0.00  0.00    +0.000 N 
ATOM     28  C   UNL     1      -3.093   4.389 130.381  0.00  0.00    +0.000 C 
BRANCH  27  29
ATOM     29  C   UNL     1      -4.007   6.743 130.238  0.00  0.00    +0.000 C 
BRANCH  29  30
ATOM     30  C   UNL     1      -4.468   6.797 131.690  0.00  0.00    +0.000 C 
BRANCH  30  31
ATOM     31  C   UNL     1      -5.927   6.482 131.828  0.00  0.00    +0.000 A 
ATOM     32  C   UNL     1      -6.858   7.078 130.969  0.00  0.00    +0.000 A 
ATOM     33  C   UNL     1      -8.217   6.823 131.129  0.00  0.00    +0.000 A 
ATOM     34  C   UNL     1      -8.658   6.064 132.212  0.00  0.00    +0.000 A 
ATOM     35  C   UNL     1      -7.733   5.472 133.070  0.00  0.00    +0.000 A 
ATOM     36 CL   UNL     1      -8.273   4.579 134.437  0.00  0.00    +0.000 Cl
ATOM     37  C   UNL     1      -6.369   5.628 132.846  0.00  0.00    +0.000 A 
ENDBRANCH  30  31
ENDBRANCH  29  30
ENDBRANCH  27  29
ENDBRANCH  24  25
ENDBRANCH  10  24
TORSDOF 7
ENDMDL
MODEL 8
REMARK VINA RESULT:      -8.3      4.295      7.501
REMARK  Name = CHEMBL428694
REMARK  9 active torsions:
REMARK  status: ('A' for Active; 'I' for Inactive)
REMARK    1  A    between atoms: C_1  and  C_2
REMARK    2  A    between atoms: N_4  and  C_5
REMARK    3  A    between atoms: C_7  and  C_8
REMARK    4  A    between atoms: N_20  and  C_21
REMARK    5  A    between atoms: C_21  and  C_22
REMARK    6  A    between atoms: N_24  and  C_25
REMARK    7  A    between atoms: N_24  and  C_26
REMARK    8  A    between atoms: C_26  and  C_27
REMARK    9  A    between atoms: C_27  and  C_28
REMARK                            x       y       z     vdW  Elec       q    Type
REMARK                         _______ _______ _______ _____ _____    ______ ____
ROOT
ATOM      1  C   UNL     1      -9.365   6.541 130.503  0.00  0.00    +0.000 C 
ATOM      2  N   UNL     1      -7.927   6.708 130.242  0.00  0.00    +0.000 NA
ATOM      3  C   UNL     1      -7.072   6.258 131.111  0.00  0.00    +0.000 C 
ATOM      4  C   UNL     1      -7.418   5.647 132.435  0.00  0.00    +0.000 A 
ATOM      5  C   UNL     1      -6.580   5.906 133.535  0.00  0.00    +0.000 A 
ATOM      6  C   UNL     1      -6.832   5.328 134.784  0.00  0.00    +0.000 A 
ATOM      7  C   UNL     1      -7.959   4.543 134.967  0.00  0.00    +0.000 A 
ATOM      8  C   UNL     1      -8.831   4.335 133.904  0.00  0.00    +0.000 A 
ATOM      9  C   UNL     1      -8.523   4.797 132.612  0.00  0.00    +0.000 A 
ATOM     10  N   UNL     1      -9.246   4.252 131.517  0.00  0.00    +0.000 N 
ATOM     11  C   UNL     1      -9.684   5.015 130.439  0.00  0.00    +0.000 C 
ATOM     12  O   UNL     1     -10.307   4.490 129.506  0.00  0.00    +0.000 OA
ENDROOT
BRANCH   3  13
ATOM     13  C   UNL     1      -5.618   6.369 130.744  0.00  0.00    +0.000 A 
ATOM     14  C   UNL     1      -5.044   7.636 130.606  0.00  0.00    +0.000 A 
ATOM     15  C   UNL     1      -3.794   7.770 129.996  0.00  0.00    +0.000 A 
ATOM     16  C   UNL     1      -3.073   6.638 129.620  0.00  0.00    +0.000 A 
ATOM     17  C   UNL     1      -3.580   5.367 129.899  0.00  0.00    +0.000 A 
ATOM     18  C   UNL     1      -4.871   5.228 130.425  0.00  0.00    +0.000 A 
ENDBRANCH   3  13
BRANCH   1  22
ATOM     19  C   UNL     1     -12.111   8.269 128.523  0.00  0.00    +0.000 C 
ATOM     20  C   UNL     1     -11.394   7.653 129.698  0.00  0.00    +0.000 C 
ATOM     21  O   UNL     1     -11.943   7.548 130.794  0.00  0.00    +0.000 OA
ATOM     22  N   UNL     1     -10.106   7.226 129.459  0.00  0.00    +0.000 N 
ATOM     23  H   UNL     1      -9.646   7.353 128.572  0.00  0.00    +0.000 HD
ENDBRANCH   1  22
BRANCH  10  24
ATOM     24  C   UNL     1      -9.557   2.816 131.466  0.00  0.00    +0.000 C 
BRANCH  24  25
ATOM     25  C   UNL     1      -8.408   1.784 131.478  0.00  0.00    +0.000 C 
ATOM     26  O   UNL     1      -7.762   1.509 132.501  0.00  0.00    +0.000 OA
ATOM     27  N   UNL     1      -8.076   1.154 130.292  0.00  0.00    +0.000 N 
ATOM     28  C   UNL     1      -8.306   1.771 128.994  0.00  0.00    +0.000 C 
BRANCH  27  29
ATOM     29  C   UNL     1      -7.148   0.022 130.408  0.00  0.00    +0.000 C 
BRANCH  29  30
ATOM     30  C   UNL     1      -7.501  -1.193 129.557  0.00  0.00    +0.000 C 
BRANCH  30  31
ATOM     31  C   UNL     1      -6.661  -2.385 129.904  0.00  0.00    +0.000 A 
ATOM     32  C   UNL     1      -7.034  -3.222 130.962  0.00  0.00    +0.000 A 
ATOM     33  C   UNL     1      -6.228  -4.301 131.316  0.00  0.00    +0.000 A 
ATOM     34  C   UNL     1      -4.995  -4.480 130.689  0.00  0.00    +0.000 A 
ATOM     35  C   UNL     1      -4.621  -3.646 129.638  0.00  0.00    +0.000 A 
ATOM     36 CL   UNL     1      -3.080  -3.831 128.898  0.00  0.00    +0.000 Cl
ATOM     37  C   UNL     1      -5.475  -2.638 129.203  0.00  0.00    +0.000 A 
ENDBRANCH  30  31
ENDBRANCH  29  30
ENDBRANCH  27  29
ENDBRANCH  24  25
ENDBRANCH  10  24
TORSDOF 7
ENDMDL
MODEL 9
REMARK VINA RESULT:      -8.3      2.450      5.492
REMARK  Name = CHEMBL428694
REMARK  9 active torsions:
REMARK  status: ('A' for Active; 'I' for Inactive)
REMARK    1  A    between atoms: C_1  and  C_2
REMARK    2  A    between atoms: N_4  and  C_5
REMARK    3  A    between atoms: C_7  and  C_8
REMARK    4  A    between atoms: N_20  and  C_21
REMARK    5  A    between atoms: C_21  and  C_22
REMARK    6  A    between atoms: N_24  and  C_25
REMARK    7  A    between atoms: N_24  and  C_26
REMARK    8  A    between atoms: C_26  and  C_27
REMARK    9  A    between atoms: C_27  and  C_28
REMARK                            x       y       z     vdW  Elec       q    Type
REMARK                         _______ _______ _______ _____ _____    ______ ____
ROOT
ATOM      1  C   UNL     1      -7.789   4.390 128.821  0.00  0.00    +0.000 C 
ATOM      2  N   UNL     1      -8.119   3.849 127.494  0.00  0.00    +0.000 NA
ATOM      3  C   UNL     1      -7.184   3.280 126.794  0.00  0.00    +0.000 C 
ATOM      4  C   UNL     1      -5.738   3.200 127.178  0.00  0.00    +0.000 A 
ATOM      5  C   UNL     1      -4.766   3.308 126.167  0.00  0.00    +0.000 A 
ATOM      6  C   UNL     1      -3.403   3.198 126.464  0.00  0.00    +0.000 A 
ATOM      7  C   UNL     1      -2.992   3.047 127.779  0.00  0.00    +0.000 A 
ATOM      8  C   UNL     1      -3.942   3.007 128.795  0.00  0.00    +0.000 A 
ATOM      9  C   UNL     1      -5.317   2.982 128.502  0.00  0.00    +0.000 A 
ATOM     10  N   UNL     1      -6.212   2.575 129.527  0.00  0.00    +0.000 N 
ATOM     11  C   UNL     1      -7.442   3.187 129.751  0.00  0.00    +0.000 C 
ATOM     12  O   UNL     1      -8.188   2.791 130.656  0.00  0.00    +0.000 OA
ENDROOT
BRANCH   3  13
ATOM     13  C   UNL     1      -7.603   2.660 125.490  0.00  0.00    +0.000 A 
ATOM     14  C   UNL     1      -8.000   3.487 124.436  0.00  0.00    +0.000 A 
ATOM     15  C   UNL     1      -8.657   2.939 123.331  0.00  0.00    +0.000 A 
ATOM     16  C   UNL     1      -8.822   1.559 123.229  0.00  0.00    +0.000 A 
ATOM     17  C   UNL     1      -8.288   0.720 124.209  0.00  0.00    +0.000 A 
ATOM     18  C   UNL     1      -7.712   1.269 125.362  0.00  0.00    +0.000 A 
ENDBRANCH   3  13
BRANCH   1  22
ATOM     19  C   UNL     1     -10.072   6.762 130.720  0.00  0.00    +0.000 C 
ATOM     20  C   UNL     1      -8.803   6.181 130.152  0.00  0.00    +0.000 C 
ATOM     21  O   UNL     1      -7.706   6.678 130.404  0.00  0.00    +0.000 OA
ATOM     22  N   UNL     1      -8.957   5.074 129.345  0.00  0.00    +0.000 N 
ATOM     23  H   UNL     1      -9.861   4.696 129.106  0.00  0.00    +0.000 HD
ENDBRANCH   1  22
BRANCH  10  24
ATOM     24  C   UNL     1      -5.876   1.449 130.411  0.00  0.00    +0.000 C 
BRANCH  24  25
ATOM     25  C   UNL     1      -5.619   0.052 129.804  0.00  0.00    +0.000 C 
ATOM     26  O   UNL     1      -4.488  -0.455 129.741  0.00  0.00    +0.000 OA
ATOM     27  N   UNL     1      -6.695  -0.654 129.296  0.00  0.00    +0.000 N 
ATOM     28  C   UNL     1      -7.883   0.007 128.779  0.00  0.00    +0.000 C 
BRANCH  27  29
ATOM     29  C   UNL     1      -6.433  -2.058 128.954  0.00  0.00    +0.000 C 
BRANCH  29  30
ATOM     30  C   UNL     1      -7.567  -2.766 128.222  0.00  0.00    +0.000 C 
BRANCH  30  31
ATOM     31  C   UNL     1      -7.359  -2.775 126.737  0.00  0.00    +0.000 A 
ATOM     32  C   UNL     1      -6.152  -2.317 126.196  0.00  0.00    +0.000 A 
ATOM     33  C   UNL     1      -5.976  -2.280 124.816  0.00  0.00    +0.000 A 
ATOM     34  C   UNL     1      -7.042  -2.593 123.972  0.00  0.00    +0.000 A 
ATOM     35  C   UNL     1      -8.245  -3.046 124.510  0.00  0.00    +0.000 A 
ATOM     36 CL   UNL     1      -9.578  -3.383 123.477  0.00  0.00    +0.000 Cl
ATOM     37  C   UNL     1      -8.387  -3.197 125.885  0.00  0.00    +0.000 A 
ENDBRANCH  30  31
ENDBRANCH  29  30
ENDBRANCH  27  29
ENDBRANCH  24  25
ENDBRANCH  10  24
TORSDOF 7
ENDMDL
