MODEL 1
REMARK VINA RESULT:     -12.0      0.000      0.000
REMARK  Name = CHEMBL281044
REMARK  6 active torsions:
REMARK  status: ('A' for Active; 'I' for Inactive)
REMARK    1  A    between atoms: C_2  and  C_3
REMARK    2  A    between atoms: C_3  and  N_4
REMARK    3  A    between atoms: N_15  and  C_16
REMARK    4  A    between atoms: C_16  and  C_17
REMARK    5  A    between atoms: C_21  and  C_22
REMARK    6  A    between atoms: C_27  and  N_28
REMARK                            x       y       z     vdW  Elec       q    Type
REMARK                         _______ _______ _______ _____ _____    ______ ____
ROOT
ATOM      1  C   UNL     1      -5.454   4.881 133.483  0.00  0.00    +0.000 A 
ATOM      2  C   UNL     1      -4.814   6.058 133.865  0.00  0.00    +0.000 A 
ATOM      3  C   UNL     1      -3.931   6.343 132.794  0.00  0.00    +0.000 A 
ATOM      4  C   UNL     1      -4.165   6.675 131.426  0.00  0.00    +0.000 A 
ATOM      5  C   UNL     1      -3.245   6.446 130.382  0.00  0.00    +0.000 A 
ATOM      6  C   UNL     1      -2.003   5.948 130.756  0.00  0.00    +0.000 A 
ATOM      7  C   UNL     1      -1.902   5.337 132.037  0.00  0.00    +0.000 A 
ATOM      8  C   UNL     1      -3.114   5.219 132.818  0.00  0.00    +0.000 A 
ATOM      9  O   UNL     1      -4.352   4.217 132.738  0.00  0.00    +0.000 OA
ENDROOT
BRANCH   5  10
ATOM     10  C   UNL     1      -3.655   6.544 128.925  0.00  0.00    +0.000 C 
ATOM     11  O   UNL     1      -3.359   7.566 128.304  0.00  0.00    +0.000 OA
ATOM     12  N   UNL     1      -4.261   5.408 128.317  0.00  0.00    +0.000 N 
ATOM     13  C   UNL     1      -3.682   4.723 127.151  0.00  0.00    +0.000 C 
ATOM     14  C   UNL     1      -4.759   4.331 126.110  0.00  0.00    +0.000 C 
ATOM     15  C   UNL     1      -5.993   3.182 126.756  0.00  0.00    +0.000 C 
ATOM     16  C   UNL     1      -6.507   4.335 127.925  0.00  0.00    +0.000 C 
ATOM     17  C   UNL     1      -5.393   4.705 128.916  0.00  0.00    +0.000 C 
BRANCH  15  18
ATOM     18  N   UNL     1      -6.177   1.344 126.442  0.00  0.00    +0.000 N 
ATOM     19  C   UNL     1      -7.106   1.793 125.463  0.00  0.00    +0.000 C 
ATOM     20  O   UNL     1      -8.090   2.565 125.597  0.00  0.00    +0.000 OA
ATOM     21  O   UNL     1      -6.679   1.575 124.231  0.00  0.00    +0.000 OA
ATOM     22  C   UNL     1      -7.418   0.448 123.969  0.00  0.00    +0.000 C 
ATOM     23  C   UNL     1      -6.341  -0.488 124.290  0.00  0.00    +0.000 A 
ATOM     24  C   UNL     1      -6.280  -1.573 123.190  0.00  0.00    +0.000 A 
ATOM     25  C   UNL     1      -5.907  -2.878 123.319  0.00  0.00    +0.000 A 
ATOM     26  C   UNL     1      -5.638  -3.094 124.647  0.00  0.00    +0.000 A 
ATOM     27  C   UNL     1      -5.603  -1.869 125.796  0.00  0.00    +0.000 A 
ATOM     28  C   UNL     1      -5.842  -0.302 125.621  0.00  0.00    +0.000 A 
ENDBRANCH  15  18
ENDBRANCH   5  10
BRANCH   1  29
ATOM     29  C   UNL     1      -6.648   4.255 134.286  0.00  0.00    +0.000 C 
BRANCH  29  32
ATOM     30  O   UNL     1      -9.748   3.589 132.502  0.00  0.00    +0.000 OA
ATOM     31  C   UNL     1      -8.851   4.286 132.985  0.00  0.00    +0.000 C 
ATOM     32  N   UNL     1      -7.834   3.639 133.700  0.00  0.00    +0.000 N 
ATOM     33  H   UNL     1      -8.001   2.644 133.777  0.00  0.00    +0.000 HD
BRANCH  31  34
ATOM     34  C   UNL     1      -8.802   5.834 132.768  0.00  0.00    +0.000 C 
BRANCH  34  35
ATOM     35  N   UNL     1      -9.854   6.378 131.888  0.00  0.00    +0.000 N 
ATOM     36  C   UNL     1     -11.183   6.347 132.291  0.00  0.00    +0.000 A 
ATOM     37  C   UNL     1     -12.189   6.750 131.506  0.00  0.00    +0.000 A 
ATOM     38  C   UNL     1     -11.885   7.279 130.184  0.00  0.00    +0.000 A 
ATOM     39  C   UNL     1     -12.883   7.848 129.397  0.00  0.00    +0.000 A 
ATOM     40  C   UNL     1     -12.519   8.601 128.283  0.00  0.00    +0.000 A 
ATOM     41  C   UNL     1     -11.227   8.503 127.768  0.00  0.00    +0.000 A 
ATOM     42  C   UNL     1     -10.253   7.803 128.468  0.00  0.00    +0.000 A 
ATOM     43  C   UNL     1     -10.564   7.282 129.723  0.00  0.00    +0.000 A 
ATOM     44  C   UNL     1      -9.487   6.745 130.585  0.00  0.00    +0.000 A 
ATOM     45  O   UNL     1      -8.350   6.652 130.134  0.00  0.00    +0.000 OA
ENDBRANCH  34  35
ENDBRANCH  31  34
ENDBRANCH  29  32
ENDBRANCH   1  29
TORSDOF 6
ENDMDL
MODEL 2
REMARK VINA RESULT:     -11.7      3.950      9.127
REMARK  Name = CHEMBL281044
REMARK  6 active torsions:
REMARK  status: ('A' for Active; 'I' for Inactive)
REMARK    1  A    between atoms: C_2  and  C_3
REMARK    2  A    between atoms: C_3  and  N_4
REMARK    3  A    between atoms: N_15  and  C_16
REMARK    4  A    between atoms: C_16  and  C_17
REMARK    5  A    between atoms: C_21  and  C_22
REMARK    6  A    between atoms: C_27  and  N_28
REMARK                            x       y       z     vdW  Elec       q    Type
REMARK                         _______ _______ _______ _____ _____    ______ ____
ROOT
ATOM      1  C   UNL     1      -5.748   4.122 130.483  0.00  0.00    +0.000 A 
ATOM      2  C   UNL     1      -4.711   3.346 129.971  0.00  0.00    +0.000 A 
ATOM      3  C   UNL     1      -3.544   4.116 130.207  0.00  0.00    +0.000 A 
ATOM      4  C   UNL     1      -2.907   4.537 131.412  0.00  0.00    +0.000 A 
ATOM      5  C   UNL     1      -2.079   5.674 131.520  0.00  0.00    +0.000 A 
ATOM      6  C   UNL     1      -1.814   6.356 130.338  0.00  0.00    +0.000 A 
ATOM      7  C   UNL     1      -2.689   6.124 129.240  0.00  0.00    +0.000 A 
ATOM      8  C   UNL     1      -3.823   5.255 129.461  0.00  0.00    +0.000 A 
ATOM      9  O   UNL     1      -5.228   5.482 130.181  0.00  0.00    +0.000 OA
ENDROOT
BRANCH   5  10
ATOM     10  C   UNL     1      -1.671   6.235 132.869  0.00  0.00    +0.000 C 
ATOM     11  O   UNL     1      -0.505   6.603 133.019  0.00  0.00    +0.000 OA
ATOM     12  N   UNL     1      -2.680   6.414 133.857  0.00  0.00    +0.000 N 
ATOM     13  C   UNL     1      -3.001   7.724 134.443  0.00  0.00    +0.000 C 
ATOM     14  C   UNL     1      -3.234   7.640 135.971  0.00  0.00    +0.000 C 
ATOM     15  C   UNL     1      -4.622   6.580 136.426  0.00  0.00    +0.000 C 
ATOM     16  C   UNL     1      -3.843   5.207 135.739  0.00  0.00    +0.000 C 
ATOM     17  C   UNL     1      -3.616   5.355 134.227  0.00  0.00    +0.000 C 
BRANCH  15  18
ATOM     18  N   UNL     1      -6.337   7.059 137.006  0.00  0.00    +0.000 N 
ATOM     19  C   UNL     1      -5.698   7.084 138.276  0.00  0.00    +0.000 C 
ATOM     20  O   UNL     1      -5.011   6.193 138.839  0.00  0.00    +0.000 OA
ATOM     21  O   UNL     1      -5.604   8.310 138.765  0.00  0.00    +0.000 OA
ATOM     22  C   UNL     1      -6.659   8.249 139.640  0.00  0.00    +0.000 C 
ATOM     23  C   UNL     1      -7.611   8.900 138.740  0.00  0.00    +0.000 A 
ATOM     24  C   UNL     1      -8.401   9.964 139.536  0.00  0.00    +0.000 A 
ATOM     25  C   UNL     1      -9.686  10.373 139.341  0.00  0.00    +0.000 A 
ATOM     26  C   UNL     1     -10.203   9.616 138.319  0.00  0.00    +0.000 A 
ATOM     27  C   UNL     1      -9.286   8.550 137.402  0.00  0.00    +0.000 A 
ATOM     28  C   UNL     1      -7.730   8.209 137.489  0.00  0.00    +0.000 A 
ENDBRANCH  15  18
ENDBRANCH   5  10
BRANCH   1  29
ATOM     29  C   UNL     1      -7.227   3.610 130.593  0.00  0.00    +0.000 C 
BRANCH  29  32
ATOM     30  O   UNL     1      -9.077   3.648 133.726  0.00  0.00    +0.000 OA
ATOM     31  C   UNL     1      -8.476   4.135 132.763  0.00  0.00    +0.000 C 
ATOM     32  N   UNL     1      -7.911   3.253 131.833  0.00  0.00    +0.000 N 
ATOM     33  H   UNL     1      -8.027   2.287 132.109  0.00  0.00    +0.000 HD
BRANCH  31  34
ATOM     34  C   UNL     1      -8.390   5.681 132.542  0.00  0.00    +0.000 C 
BRANCH  34  35
ATOM     35  N   UNL     1      -9.532   6.278 131.826  0.00  0.00    +0.000 N 
ATOM     36  C   UNL     1     -10.813   6.182 132.355  0.00  0.00    +0.000 A 
ATOM     37  C   UNL     1     -11.898   6.631 131.713  0.00  0.00    +0.000 A 
ATOM     38  C   UNL     1     -11.736   7.284 130.422  0.00  0.00    +0.000 A 
ATOM     39  C   UNL     1     -12.816   7.899 129.793  0.00  0.00    +0.000 A 
ATOM     40  C   UNL     1     -12.576   8.757 128.724  0.00  0.00    +0.000 A 
ATOM     41  C   UNL     1     -11.343   8.735 128.075  0.00  0.00    +0.000 A 
ATOM     42  C   UNL     1     -10.293   7.997 128.608  0.00  0.00    +0.000 A 
ATOM     43  C   UNL     1     -10.469   7.358 129.834  0.00  0.00    +0.000 A 
ATOM     44  C   UNL     1      -9.304   6.770 130.532  0.00  0.00    +0.000 A 
ATOM     45  O   UNL     1      -8.216   6.743 129.963  0.00  0.00    +0.000 OA
ENDBRANCH  34  35
ENDBRANCH  31  34
ENDBRANCH  29  32
ENDBRANCH   1  29
TORSDOF 6
ENDMDL
MODEL 3
REMARK VINA RESULT:     -11.5      3.021      9.163
REMARK  Name = CHEMBL281044
REMARK  6 active torsions:
REMARK  status: ('A' for Active; 'I' for Inactive)
REMARK    1  A    between atoms: C_2  and  C_3
REMARK    2  A    between atoms: C_3  and  N_4
REMARK    3  A    between atoms: N_15  and  C_16
REMARK    4  A    between atoms: C_16  and  C_17
REMARK    5  A    between atoms: C_21  and  C_22
REMARK    6  A    between atoms: C_27  and  N_28
REMARK                            x       y       z     vdW  Elec       q    Type
REMARK                         _______ _______ _______ _____ _____    ______ ____
ROOT
ATOM      1  C   UNL     1      -8.186  -3.157 127.719  0.00  0.00    +0.000 A 
ATOM      2  C   UNL     1      -8.720  -3.287 129.000  0.00  0.00    +0.000 A 
ATOM      3  C   UNL     1      -7.759  -2.679 129.846  0.00  0.00    +0.000 A 
ATOM      4  C   UNL     1      -7.298  -1.332 129.952  0.00  0.00    +0.000 A 
ATOM      5  C   UNL     1      -6.033  -0.961 130.454  0.00  0.00    +0.000 A 
ATOM      6  C   UNL     1      -5.244  -1.990 130.954  0.00  0.00    +0.000 A 
ATOM      7  C   UNL     1      -5.570  -3.316 130.555  0.00  0.00    +0.000 A 
ATOM      8  C   UNL     1      -6.650  -3.483 129.608  0.00  0.00    +0.000 A 
ATOM      9  O   UNL     1      -6.737  -3.277 128.029  0.00  0.00    +0.000 OA
ENDROOT
BRANCH   5  10
ATOM     10  C   UNL     1      -5.488   0.443 130.275  0.00  0.00    +0.000 C 
ATOM     11  O   UNL     1      -4.310   0.572 129.940  0.00  0.00    +0.000 OA
ATOM     12  N   UNL     1      -6.392   1.537 130.391  0.00  0.00    +0.000 N 
ATOM     13  C   UNL     1      -6.641   2.487 129.296  0.00  0.00    +0.000 C 
ATOM     14  C   UNL     1      -6.721   3.949 129.798  0.00  0.00    +0.000 C 
ATOM     15  C   UNL     1      -8.066   4.231 130.969  0.00  0.00    +0.000 C 
ATOM     16  C   UNL     1      -7.371   3.122 132.087  0.00  0.00    +0.000 C 
ATOM     17  C   UNL     1      -7.295   1.693 131.529  0.00  0.00    +0.000 C 
BRANCH  15  18
ATOM     18  N   UNL     1      -9.711   5.085 130.699  0.00  0.00    +0.000 N 
ATOM     19  C   UNL     1      -8.901   6.253 130.746  0.00  0.00    +0.000 C 
ATOM     20  O   UNL     1      -8.080   6.616 131.628  0.00  0.00    +0.000 OA
ATOM     21  O   UNL     1      -8.826   6.858 129.572  0.00  0.00    +0.000 OA
ATOM     22  C   UNL     1      -9.739   7.855 129.811  0.00  0.00    +0.000 C 
ATOM     23  C   UNL     1     -10.852   7.168 129.156  0.00  0.00    +0.000 A 
ATOM     24  C   UNL     1     -11.594   8.176 128.249  0.00  0.00    +0.000 A 
ATOM     25  C   UNL     1     -12.920   8.202 127.934  0.00  0.00    +0.000 A 
ATOM     26  C   UNL     1     -13.522   7.181 128.626  0.00  0.00    +0.000 A 
ATOM     27  C   UNL     1     -12.671   6.036 129.512  0.00  0.00    +0.000 A 
ATOM     28  C   UNL     1     -11.098   5.876 129.725  0.00  0.00    +0.000 A 
ENDBRANCH  15  18
ENDBRANCH   5  10
BRANCH   1  29
ATOM     29  C   UNL     1      -8.975  -3.546 126.420  0.00  0.00    +0.000 C 
BRANCH  29  32
ATOM     30  O   UNL     1      -7.727  -2.501 123.166  0.00  0.00    +0.000 OA
ATOM     31  C   UNL     1      -8.251  -2.355 124.275  0.00  0.00    +0.000 C 
ATOM     32  N   UNL     1      -8.446  -3.499 125.060  0.00  0.00    +0.000 N 
ATOM     33  H   UNL     1      -8.168  -4.342 124.575  0.00  0.00    +0.000 HD
BRANCH  31  34
ATOM     34  C   UNL     1      -8.638  -0.943 124.824  0.00  0.00    +0.000 C 
BRANCH  34  35
ATOM     35  N   UNL     1      -7.501  -0.089 125.216  0.00  0.00    +0.000 N 
ATOM     36  C   UNL     1      -6.378  -0.654 125.807  0.00  0.00    +0.000 A 
ATOM     37  C   UNL     1      -5.351   0.077 126.258  0.00  0.00    +0.000 A 
ATOM     38  C   UNL     1      -5.386   1.523 126.094  0.00  0.00    +0.000 A 
ATOM     39  C   UNL     1      -4.277   2.304 126.409  0.00  0.00    +0.000 A 
ATOM     40  C   UNL     1      -4.234   3.624 125.971  0.00  0.00    +0.000 A 
ATOM     41  C   UNL     1      -5.399   4.254 125.536  0.00  0.00    +0.000 A 
ATOM     42  C   UNL     1      -6.563   3.514 125.364  0.00  0.00    +0.000 A 
ATOM     43  C   UNL     1      -6.520   2.133 125.547  0.00  0.00    +0.000 A 
ATOM     44  C   UNL     1      -7.675   1.301 125.141  0.00  0.00    +0.000 A 
ATOM     45  O   UNL     1      -8.705   1.850 124.764  0.00  0.00    +0.000 OA
ENDBRANCH  34  35
ENDBRANCH  31  34
ENDBRANCH  29  32
ENDBRANCH   1  29
TORSDOF 6
ENDMDL
MODEL 4
REMARK VINA RESULT:     -11.5      2.936      4.720
REMARK  Name = CHEMBL281044
REMARK  6 active torsions:
REMARK  status: ('A' for Active; 'I' for Inactive)
REMARK    1  A    between atoms: C_2  and  C_3
REMARK    2  A    between atoms: C_3  and  N_4
REMARK    3  A    between atoms: N_15  and  C_16
REMARK    4  A    between atoms: C_16  and  C_17
REMARK    5  A    between atoms: C_21  and  C_22
REMARK    6  A    between atoms: C_27  and  N_28
REMARK                            x       y       z     vdW  Elec       q    Type
REMARK                         _______ _______ _______ _____ _____    ______ ____
ROOT
ATOM      1  C   UNL     1      -5.427   4.957 133.656  0.00  0.00    +0.000 A 
ATOM      2  C   UNL     1      -4.720   6.111 133.987  0.00  0.00    +0.000 A 
ATOM      3  C   UNL     1      -3.914   6.369 132.850  0.00  0.00    +0.000 A 
ATOM      4  C   UNL     1      -4.244   6.711 131.505  0.00  0.00    +0.000 A 
ATOM      5  C   UNL     1      -3.417   6.454 130.392  0.00  0.00    +0.000 A 
ATOM      6  C   UNL     1      -2.166   5.914 130.667  0.00  0.00    +0.000 A 
ATOM      7  C   UNL     1      -1.986   5.298 131.937  0.00  0.00    +0.000 A 
ATOM      8  C   UNL     1      -3.136   5.218 132.810  0.00  0.00    +0.000 A 
ATOM      9  O   UNL     1      -4.409   4.258 132.827  0.00  0.00    +0.000 OA
ENDROOT
BRANCH   5  10
ATOM     10  C   UNL     1      -3.936   6.570 128.971  0.00  0.00    +0.000 C 
ATOM     11  O   UNL     1      -3.776   7.637 128.377  0.00  0.00    +0.000 OA
ATOM     12  N   UNL     1      -4.481   5.407 128.356  0.00  0.00    +0.000 N 
ATOM     13  C   UNL     1      -3.929   4.822 127.125  0.00  0.00    +0.000 C 
ATOM     14  C   UNL     1      -5.038   4.373 126.143  0.00  0.00    +0.000 C 
ATOM     15  C   UNL     1      -6.117   3.093 126.819  0.00  0.00    +0.000 C 
ATOM     16  C   UNL     1      -6.646   4.151 128.069  0.00  0.00    +0.000 C 
ATOM     17  C   UNL     1      -5.502   4.583 128.998  0.00  0.00    +0.000 C 
BRANCH  15  18
ATOM     18  N   UNL     1      -6.161   1.260 126.439  0.00  0.00    +0.000 N 
ATOM     19  C   UNL     1      -7.226   1.653 125.582  0.00  0.00    +0.000 C 
ATOM     20  O   UNL     1      -8.259   2.319 125.851  0.00  0.00    +0.000 OA
ATOM     21  O   UNL     1      -6.914   1.524 124.303  0.00  0.00    +0.000 OA
ATOM     22  C   UNL     1      -7.567   0.341 124.064  0.00  0.00    +0.000 C 
ATOM     23  C   UNL     1      -6.380  -0.497 124.229  0.00  0.00    +0.000 A 
ATOM     24  C   UNL     1      -6.335  -1.528 123.078  0.00  0.00    +0.000 A 
ATOM     25  C   UNL     1      -5.830  -2.794 123.106  0.00  0.00    +0.000 A 
ATOM     26  C   UNL     1      -5.403  -3.033 124.388  0.00  0.00    +0.000 A 
ATOM     27  C   UNL     1      -5.362  -1.855 125.584  0.00  0.00    +0.000 A 
ATOM     28  C   UNL     1      -5.762  -0.313 125.509  0.00  0.00    +0.000 A 
ENDBRANCH  15  18
ENDBRANCH   5  10
BRANCH   1  29
ATOM     29  C   UNL     1      -6.575   4.369 134.551  0.00  0.00    +0.000 C 
BRANCH  29  32
ATOM     30  O   UNL     1      -9.498   2.624 133.269  0.00  0.00    +0.000 OA
ATOM     31  C   UNL     1      -8.304   2.775 133.546  0.00  0.00    +0.000 C 
ATOM     32  N   UNL     1      -7.909   4.005 134.087  0.00  0.00    +0.000 N 
ATOM     33  H   UNL     1      -8.679   4.661 134.133  0.00  0.00    +0.000 HD
BRANCH  31  34
ATOM     34  C   UNL     1      -7.264   1.622 133.362  0.00  0.00    +0.000 C 
BRANCH  34  35
ATOM     35  N   UNL     1      -7.364   0.883 132.089  0.00  0.00    +0.000 N 
ATOM     36  C   UNL     1      -7.369   1.572 130.883  0.00  0.00    +0.000 A 
ATOM     37  C   UNL     1      -7.538   0.966 129.702  0.00  0.00    +0.000 A 
ATOM     38  C   UNL     1      -7.687  -0.482 129.666  0.00  0.00    +0.000 A 
ATOM     39  C   UNL     1      -7.713  -1.166 128.453  0.00  0.00    +0.000 A 
ATOM     40  C   UNL     1      -7.559  -2.550 128.454  0.00  0.00    +0.000 A 
ATOM     41  C   UNL     1      -7.723  -3.269 129.637  0.00  0.00    +0.000 A 
ATOM     42  C   UNL     1      -7.856  -2.595 130.845  0.00  0.00    +0.000 A 
ATOM     43  C   UNL     1      -7.734  -1.206 130.862  0.00  0.00    +0.000 A 
ATOM     44  C   UNL     1      -7.634  -0.492 132.154  0.00  0.00    +0.000 A 
ATOM     45  O   UNL     1      -7.784  -1.119 133.198  0.00  0.00    +0.000 OA
ENDBRANCH  34  35
ENDBRANCH  31  34
ENDBRANCH  29  32
ENDBRANCH   1  29
TORSDOF 6
ENDMDL
MODEL 5
REMARK VINA RESULT:     -11.2      2.027      2.495
REMARK  Name = CHEMBL281044
REMARK  6 active torsions:
REMARK  status: ('A' for Active; 'I' for Inactive)
REMARK    1  A    between atoms: C_2  and  C_3
REMARK    2  A    between atoms: C_3  and  N_4
REMARK    3  A    between atoms: N_15  and  C_16
REMARK    4  A    between atoms: C_16  and  C_17
REMARK    5  A    between atoms: C_21  and  C_22
REMARK    6  A    between atoms: C_27  and  N_28
REMARK                            x       y       z     vdW  Elec       q    Type
REMARK                         _______ _______ _______ _____ _____    ______ ____
ROOT
ATOM      1  C   UNL     1      -4.970   5.332 133.151  0.00  0.00    +0.000 A 
ATOM      2  C   UNL     1      -4.477   6.615 133.381  0.00  0.00    +0.000 A 
ATOM      3  C   UNL     1      -3.459   6.782 132.409  0.00  0.00    +0.000 A 
ATOM      4  C   UNL     1      -3.500   6.832 130.984  0.00  0.00    +0.000 A 
ATOM      5  C   UNL     1      -2.416   6.504 130.143  0.00  0.00    +0.000 A 
ATOM      6  C   UNL     1      -1.216   6.204 130.777  0.00  0.00    +0.000 A 
ATOM      7  C   UNL     1      -1.275   5.851 132.155  0.00  0.00    +0.000 A 
ATOM      8  C   UNL     1      -2.582   5.764 132.766  0.00  0.00    +0.000 A 
ATOM      9  O   UNL     1      -3.723   4.651 132.712  0.00  0.00    +0.000 OA
ENDROOT
BRANCH   5  10
ATOM     10  C   UNL     1      -2.600   6.294 128.653  0.00  0.00    +0.000 C 
ATOM     11  O   UNL     1      -2.056   7.084 127.881  0.00  0.00    +0.000 OA
ATOM     12  N   UNL     1      -3.298   5.132 128.217  0.00  0.00    +0.000 N 
ATOM     13  C   UNL     1      -2.689   4.112 127.350  0.00  0.00    +0.000 C 
ATOM     14  C   UNL     1      -3.664   3.620 126.253  0.00  0.00    +0.000 C 
ATOM     15  C   UNL     1      -5.148   2.835 126.915  0.00  0.00    +0.000 C 
ATOM     16  C   UNL     1      -5.617   4.297 127.692  0.00  0.00    +0.000 C 
ATOM     17  C   UNL     1      -4.604   4.751 128.753  0.00  0.00    +0.000 C 
BRANCH  15  18
ATOM     18  N   UNL     1      -5.592   1.017 126.991  0.00  0.00    +0.000 N 
ATOM     19  C   UNL     1      -5.149   1.156 128.336  0.00  0.00    +0.000 C 
ATOM     20  O   UNL     1      -4.061   1.611 128.771  0.00  0.00    +0.000 OA
ATOM     21  O   UNL     1      -6.141   1.044 129.204  0.00  0.00    +0.000 OA
ATOM     22  C   UNL     1      -5.915  -0.254 129.588  0.00  0.00    +0.000 C 
ATOM     23  C   UNL     1      -6.911  -0.830 128.685  0.00  0.00    +0.000 A 
ATOM     24  C   UNL     1      -7.744  -1.874 129.464  0.00  0.00    +0.000 A 
ATOM     25  C   UNL     1      -8.323  -3.011 128.985  0.00  0.00    +0.000 A 
ATOM     26  C   UNL     1      -7.985  -3.111 127.658  0.00  0.00    +0.000 A 
ATOM     27  C   UNL     1      -7.176  -1.905 126.816  0.00  0.00    +0.000 A 
ATOM     28  C   UNL     1      -6.668  -0.478 127.317  0.00  0.00    +0.000 A 
ENDBRANCH  15  18
ENDBRANCH   5  10
BRANCH   1  29
ATOM     29  C   UNL     1      -6.230   4.754 133.887  0.00  0.00    +0.000 C 
BRANCH  29  32
ATOM     30  O   UNL     1      -9.447   6.450 133.777  0.00  0.00    +0.000 OA
ATOM     31  C   UNL     1      -8.456   5.876 133.314  0.00  0.00    +0.000 C 
ATOM     32  N   UNL     1      -7.442   5.501 134.205  0.00  0.00    +0.000 N 
ATOM     33  H   UNL     1      -7.637   5.810 135.149  0.00  0.00    +0.000 HD
BRANCH  31  34
ATOM     34  C   UNL     1      -8.346   5.519 131.795  0.00  0.00    +0.000 C 
BRANCH  34  35
ATOM     35  N   UNL     1      -9.553   5.800 130.995  0.00  0.00    +0.000 N 
ATOM     36  C   UNL     1     -10.580   4.867 130.934  0.00  0.00    +0.000 A 
ATOM     37  C   UNL     1     -11.662   5.028 130.162  0.00  0.00    +0.000 A 
ATOM     38  C   UNL     1     -11.794   6.247 129.377  0.00  0.00    +0.000 A 
ATOM     39  C   UNL     1     -12.968   6.524 128.682  0.00  0.00    +0.000 A 
ATOM     40  C   UNL     1     -13.177   7.810 128.191  0.00  0.00    +0.000 A 
ATOM     41  C   UNL     1     -12.109   8.699 128.089  0.00  0.00    +0.000 A 
ATOM     42  C   UNL     1     -10.878   8.370 128.645  0.00  0.00    +0.000 A 
ATOM     43  C   UNL     1     -10.760   7.188 129.374  0.00  0.00    +0.000 A 
ATOM     44  C   UNL     1      -9.538   6.935 130.171  0.00  0.00    +0.000 A 
ATOM     45  O   UNL     1      -8.592   7.711 130.079  0.00  0.00    +0.000 OA
ENDBRANCH  34  35
ENDBRANCH  31  34
ENDBRANCH  29  32
ENDBRANCH   1  29
TORSDOF 6
ENDMDL
MODEL 6
REMARK VINA RESULT:     -11.0      4.445      9.934
REMARK  Name = CHEMBL281044
REMARK  6 active torsions:
REMARK  status: ('A' for Active; 'I' for Inactive)
REMARK    1  A    between atoms: C_2  and  C_3
REMARK    2  A    between atoms: C_3  and  N_4
REMARK    3  A    between atoms: N_15  and  C_16
REMARK    4  A    between atoms: C_16  and  C_17
REMARK    5  A    between atoms: C_21  and  C_22
REMARK    6  A    between atoms: C_27  and  N_28
REMARK                            x       y       z     vdW  Elec       q    Type
REMARK                         _______ _______ _______ _____ _____    ______ ____
ROOT
ATOM      1  C   UNL     1      -7.478  -1.731 128.236  0.00  0.00    +0.000 A 
ATOM      2  C   UNL     1      -8.183  -2.904 128.495  0.00  0.00    +0.000 A 
ATOM      3  C   UNL     1      -7.773  -3.281 129.799  0.00  0.00    +0.000 A 
ATOM      4  C   UNL     1      -7.945  -2.656 131.070  0.00  0.00    +0.000 A 
ATOM      5  C   UNL     1      -7.093  -2.855 132.177  0.00  0.00    +0.000 A 
ATOM      6  C   UNL     1      -6.083  -3.796 132.014  0.00  0.00    +0.000 A 
ATOM      7  C   UNL     1      -5.736  -4.158 130.682  0.00  0.00    +0.000 A 
ATOM      8  C   UNL     1      -6.410  -3.468 129.605  0.00  0.00    +0.000 A 
ATOM      9  O   UNL     1      -6.218  -2.017 128.971  0.00  0.00    +0.000 OA
ENDROOT
BRANCH   5  10
ATOM     10  C   UNL     1      -7.149  -1.954 133.395  0.00  0.00    +0.000 C 
ATOM     11  O   UNL     1      -7.527  -2.438 134.462  0.00  0.00    +0.000 OA
ATOM     12  N   UNL     1      -6.655  -0.624 133.272  0.00  0.00    +0.000 N 
ATOM     13  C   UNL     1      -5.543  -0.106 134.085  0.00  0.00    +0.000 C 
ATOM     14  C   UNL     1      -5.804   1.337 134.580  0.00  0.00    +0.000 C 
ATOM     15  C   UNL     1      -5.989   2.531 133.238  0.00  0.00    +0.000 C 
ATOM     16  C   UNL     1      -7.382   1.708 132.652  0.00  0.00    +0.000 C 
ATOM     17  C   UNL     1      -7.071   0.274 132.197  0.00  0.00    +0.000 C 
BRANCH  15  18
ATOM     18  N   UNL     1      -4.778   3.821 132.627  0.00  0.00    +0.000 N 
ATOM     19  C   UNL     1      -5.236   4.527 133.774  0.00  0.00    +0.000 C 
ATOM     20  O   UNL     1      -6.414   4.804 134.118  0.00  0.00    +0.000 OA
ATOM     21  O   UNL     1      -4.300   4.637 134.701  0.00  0.00    +0.000 OA
ATOM     22  C   UNL     1      -3.921   5.930 134.439  0.00  0.00    +0.000 C 
ATOM     23  C   UNL     1      -2.772   5.561 133.612  0.00  0.00    +0.000 A 
ATOM     24  C   UNL     1      -1.560   6.424 134.031  0.00  0.00    +0.000 A 
ATOM     25  C   UNL     1      -0.533   6.862 133.250  0.00  0.00    +0.000 A 
ATOM     26  C   UNL     1      -0.789   6.443 131.968  0.00  0.00    +0.000 A 
ATOM     27  C   UNL     1      -2.053   5.412 131.568  0.00  0.00    +0.000 A 
ATOM     28  C   UNL     1      -3.147   4.729 132.507  0.00  0.00    +0.000 A 
ENDBRANCH  15  18
ENDBRANCH   5  10
BRANCH   1  29
ATOM     29  C   UNL     1      -7.725  -0.848 126.962  0.00  0.00    +0.000 C 
BRANCH  29  32
ATOM     30  O   UNL     1      -9.378  -1.070 123.728  0.00  0.00    +0.000 OA
ATOM     31  C   UNL     1      -8.979  -0.516 124.757  0.00  0.00    +0.000 C 
ATOM     32  N   UNL     1      -8.335  -1.306 125.718  0.00  0.00    +0.000 N 
ATOM     33  H   UNL     1      -8.326  -2.284 125.458  0.00  0.00    +0.000 HD
BRANCH  31  34
ATOM     34  C   UNL     1      -9.126   1.027 124.971  0.00  0.00    +0.000 C 
BRANCH  34  35
ATOM     35  N   UNL     1      -8.113   1.855 124.291  0.00  0.00    +0.000 N 
ATOM     36  C   UNL     1      -6.989   2.288 124.983  0.00  0.00    +0.000 A 
ATOM     37  C   UNL     1      -6.077   3.107 124.445  0.00  0.00    +0.000 A 
ATOM     38  C   UNL     1      -6.241   3.538 123.065  0.00  0.00    +0.000 A 
ATOM     39  C   UNL     1      -5.242   4.263 122.421  0.00  0.00    +0.000 A 
ATOM     40  C   UNL     1      -5.294   4.404 121.037  0.00  0.00    +0.000 A 
ATOM     41  C   UNL     1      -6.478   4.134 120.352  0.00  0.00    +0.000 A 
ATOM     42  C   UNL     1      -7.546   3.549 121.021  0.00  0.00    +0.000 A 
ATOM     43  C   UNL     1      -7.383   3.162 122.350  0.00  0.00    +0.000 A 
ATOM     44  C   UNL     1      -8.416   2.329 123.006  0.00  0.00    +0.000 A 
ATOM     45  O   UNL     1      -9.462   2.093 122.410  0.00  0.00    +0.000 OA
ENDBRANCH  34  35
ENDBRANCH  31  34
ENDBRANCH  29  32
ENDBRANCH   1  29
TORSDOF 6
ENDMDL
MODEL 7
REMARK VINA RESULT:     -11.0      3.092      5.328
REMARK  Name = CHEMBL281044
REMARK  6 active torsions:
REMARK  status: ('A' for Active; 'I' for Inactive)
REMARK    1  A    between atoms: C_2  and  C_3
REMARK    2  A    between atoms: C_3  and  N_4
REMARK    3  A    between atoms: N_15  and  C_16
REMARK    4  A    between atoms: C_16  and  C_17
REMARK    5  A    between atoms: C_21  and  C_22
REMARK    6  A    between atoms: C_27  and  N_28
REMARK                            x       y       z     vdW  Elec       q    Type
REMARK                         _______ _______ _______ _____ _____    ______ ____
ROOT
ATOM      1  C   UNL     1      -6.762   3.829 132.806  0.00  0.00    +0.000 A 
ATOM      2  C   UNL     1      -6.172   5.008 133.255  0.00  0.00    +0.000 A 
ATOM      3  C   UNL     1      -5.122   5.251 132.333  0.00  0.00    +0.000 A 
ATOM      4  C   UNL     1      -5.128   5.545 130.937  0.00  0.00    +0.000 A 
ATOM      5  C   UNL     1      -4.055   5.274 130.062  0.00  0.00    +0.000 A 
ATOM      6  C   UNL     1      -2.898   4.772 130.646  0.00  0.00    +0.000 A 
ATOM      7  C   UNL     1      -3.016   4.198 131.942  0.00  0.00    +0.000 A 
ATOM      8  C   UNL     1      -4.339   4.118 132.520  0.00  0.00    +0.000 A 
ATOM      9  O   UNL     1      -5.565   3.130 132.267  0.00  0.00    +0.000 OA
ENDROOT
BRANCH   5  10
ATOM     10  C   UNL     1      -4.223   5.335 128.556  0.00  0.00    +0.000 C 
ATOM     11  O   UNL     1      -3.468   6.068 127.915  0.00  0.00    +0.000 OA
ATOM     12  N   UNL     1      -5.167   4.460 127.947  0.00  0.00    +0.000 N 
ATOM     13  C   UNL     1      -4.791   3.457 126.939  0.00  0.00    +0.000 C 
ATOM     14  C   UNL     1      -5.810   3.388 125.776  0.00  0.00    +0.000 C 
ATOM     15  C   UNL     1      -7.469   2.911 126.305  0.00  0.00    +0.000 C 
ATOM     16  C   UNL     1      -7.595   4.316 127.292  0.00  0.00    +0.000 C 
ATOM     17  C   UNL     1      -6.546   4.344 128.413  0.00  0.00    +0.000 C 
BRANCH  15  18
ATOM     18  N   UNL     1      -8.350   1.271 126.104  0.00  0.00    +0.000 N 
ATOM     19  C   UNL     1      -8.784   1.865 124.887  0.00  0.00    +0.000 C 
ATOM     20  O   UNL     1      -9.352   2.972 124.701  0.00  0.00    +0.000 OA
ATOM     21  O   UNL     1      -8.255   1.279 123.826  0.00  0.00    +0.000 OA
ATOM     22  C   UNL     1      -9.334   0.506 123.476  0.00  0.00    +0.000 C 
ATOM     23  C   UNL     1      -8.844  -0.704 124.136  0.00  0.00    +0.000 A 
ATOM     24  C   UNL     1      -9.033  -1.904 123.179  0.00  0.00    +0.000 A 
ATOM     25  C   UNL     1      -9.284  -3.204 123.504  0.00  0.00    +0.000 A 
ATOM     26  C   UNL     1      -9.402  -3.266 124.870  0.00  0.00    +0.000 A 
ATOM     27  C   UNL     1      -9.080  -1.968 125.886  0.00  0.00    +0.000 A 
ATOM     28  C   UNL     1      -8.590  -0.493 125.530  0.00  0.00    +0.000 A 
ENDBRANCH  15  18
ENDBRANCH   5  10
BRANCH   1  29
ATOM     29  C   UNL     1      -8.081   3.242 133.422  0.00  0.00    +0.000 C 
BRANCH  29  32
ATOM     30  O   UNL     1      -9.947   0.640 131.695  0.00  0.00    +0.000 OA
ATOM     31  C   UNL     1      -8.962   1.156 132.233  0.00  0.00    +0.000 C 
ATOM     32  N   UNL     1      -9.086   2.472 132.697  0.00  0.00    +0.000 N 
ATOM     33  H   UNL     1      -9.991   2.867 132.474  0.00  0.00    +0.000 HD
BRANCH  31  34
ATOM     34  C   UNL     1      -7.632   0.363 132.449  0.00  0.00    +0.000 C 
BRANCH  34  35
ATOM     35  N   UNL     1      -7.185  -0.442 131.296  0.00  0.00    +0.000 N 
ATOM     36  C   UNL     1      -7.240  -1.829 131.353  0.00  0.00    +0.000 A 
ATOM     37  C   UNL     1      -6.775  -2.613 130.373  0.00  0.00    +0.000 A 
ATOM     38  C   UNL     1      -6.220  -1.996 129.177  0.00  0.00    +0.000 A 
ATOM     39  C   UNL     1      -5.867  -2.770 128.074  0.00  0.00    +0.000 A 
ATOM     40  C   UNL     1      -5.622  -2.140 126.857  0.00  0.00    +0.000 A 
ATOM     41  C   UNL     1      -5.394  -0.765 126.817  0.00  0.00    +0.000 A 
ATOM     42  C   UNL     1      -5.594   0.004 127.957  0.00  0.00    +0.000 A 
ATOM     43  C   UNL     1      -6.104  -0.604 129.102  0.00  0.00    +0.000 A 
ATOM     44  C   UNL     1      -6.546   0.229 130.243  0.00  0.00    +0.000 A 
ATOM     45  O   UNL     1      -6.343   1.439 130.215  0.00  0.00    +0.000 OA
ENDBRANCH  34  35
ENDBRANCH  31  34
ENDBRANCH  29  32
ENDBRANCH   1  29
TORSDOF 6
ENDMDL
MODEL 8
REMARK VINA RESULT:     -10.9      3.531      5.440
REMARK  Name = CHEMBL281044
REMARK  6 active torsions:
REMARK  status: ('A' for Active; 'I' for Inactive)
REMARK    1  A    between atoms: C_2  and  C_3
REMARK    2  A    between atoms: C_3  and  N_4
REMARK    3  A    between atoms: N_15  and  C_16
REMARK    4  A    between atoms: C_16  and  C_17
REMARK    5  A    between atoms: C_21  and  C_22
REMARK    6  A    between atoms: C_27  and  N_28
REMARK                            x       y       z     vdW  Elec       q    Type
REMARK                         _______ _______ _______ _____ _____    ______ ____
ROOT
ATOM      1  C   UNL     1      -3.759   3.301 133.394  0.00  0.00    +0.000 A 
ATOM      2  C   UNL     1      -3.625   4.507 134.078  0.00  0.00    +0.000 A 
ATOM      3  C   UNL     1      -3.229   5.435 133.082  0.00  0.00    +0.000 A 
ATOM      4  C   UNL     1      -3.895   5.932 131.922  0.00  0.00    +0.000 A 
ATOM      5  C   UNL     1      -3.237   6.438 130.782  0.00  0.00    +0.000 A 
ATOM      6  C   UNL     1      -1.853   6.531 130.861  0.00  0.00    +0.000 A 
ATOM      7  C   UNL     1      -1.202   5.756 131.862  0.00  0.00    +0.000 A 
ATOM      8  C   UNL     1      -2.024   4.880 132.668  0.00  0.00    +0.000 A 
ATOM      9  O   UNL     1      -2.685   3.458 132.379  0.00  0.00    +0.000 OA
ENDROOT
BRANCH   5  10
ATOM     10  C   UNL     1      -3.976   6.676 129.479  0.00  0.00    +0.000 C 
ATOM     11  O   UNL     1      -3.984   7.816 129.013  0.00  0.00    +0.000 OA
ATOM     12  N   UNL     1      -4.526   5.551 128.801  0.00  0.00    +0.000 N 
ATOM     13  C   UNL     1      -4.130   5.168 127.437  0.00  0.00    +0.000 C 
ATOM     14  C   UNL     1      -5.343   4.743 126.574  0.00  0.00    +0.000 C 
ATOM     15  C   UNL     1      -6.212   3.301 127.224  0.00  0.00    +0.000 C 
ATOM     16  C   UNL     1      -6.616   4.151 128.665  0.00  0.00    +0.000 C 
ATOM     17  C   UNL     1      -5.376   4.569 129.469  0.00  0.00    +0.000 C 
BRANCH  15  18
ATOM     18  N   UNL     1      -6.186   1.530 126.617  0.00  0.00    +0.000 N 
ATOM     19  C   UNL     1      -7.451   1.892 126.077  0.00  0.00    +0.000 C 
ATOM     20  O   UNL     1      -8.446   2.400 126.656  0.00  0.00    +0.000 OA
ATOM     21  O   UNL     1      -7.435   1.944 124.756  0.00  0.00    +0.000 OA
ATOM     22  C   UNL     1      -8.022   0.729 124.508  0.00  0.00    +0.000 C 
ATOM     23  C   UNL     1      -6.762   0.020 124.291  0.00  0.00    +0.000 A 
ATOM     24  C   UNL     1      -6.898  -0.863 123.030  0.00  0.00    +0.000 A 
ATOM     25  C   UNL     1      -6.293  -2.057 122.773  0.00  0.00    +0.000 A 
ATOM     26  C   UNL     1      -5.560  -2.389 123.884  0.00  0.00    +0.000 A 
ATOM     27  C   UNL     1      -5.342  -1.357 125.191  0.00  0.00    +0.000 A 
ATOM     28  C   UNL     1      -5.881   0.128 125.417  0.00  0.00    +0.000 A 
ENDBRANCH  15  18
ENDBRANCH   5  10
BRANCH   1  29
ATOM     29  C   UNL     1      -4.340   2.001 134.056  0.00  0.00    +0.000 C 
BRANCH  29  32
ATOM     30  O   UNL     1      -3.924  -1.542 133.346  0.00  0.00    +0.000 OA
ATOM     31  C   UNL     1      -4.549  -0.492 133.523  0.00  0.00    +0.000 C 
ATOM     32  N   UNL     1      -3.818   0.651 133.874  0.00  0.00    +0.000 N 
ATOM     33  H   UNL     1      -2.834   0.448 133.995  0.00  0.00    +0.000 HD
BRANCH  31  34
ATOM     34  C   UNL     1      -6.096  -0.407 133.310  0.00  0.00    +0.000 C 
BRANCH  34  35
ATOM     35  N   UNL     1      -6.552  -0.630 131.925  0.00  0.00    +0.000 N 
ATOM     36  C   UNL     1      -6.572   0.423 131.020  0.00  0.00    +0.000 A 
ATOM     37  C   UNL     1      -7.051   0.302 129.776  0.00  0.00    +0.000 A 
ATOM     38  C   UNL     1      -7.539  -0.995 129.330  0.00  0.00    +0.000 A 
ATOM     39  C   UNL     1      -7.903  -1.202 128.002  0.00  0.00    +0.000 A 
ATOM     40  C   UNL     1      -8.080  -2.505 127.545  0.00  0.00    +0.000 A 
ATOM     41  C   UNL     1      -8.234  -3.549 128.456  0.00  0.00    +0.000 A 
ATOM     42  C   UNL     1      -8.026  -3.322 129.811  0.00  0.00    +0.000 A 
ATOM     43  C   UNL     1      -7.580  -2.068 130.226  0.00  0.00    +0.000 A 
ATOM     44  C   UNL     1      -7.125  -1.874 131.622  0.00  0.00    +0.000 A 
ATOM     45  O   UNL     1      -7.264  -2.788 132.429  0.00  0.00    +0.000 OA
ENDBRANCH  34  35
ENDBRANCH  31  34
ENDBRANCH  29  32
ENDBRANCH   1  29
TORSDOF 6
ENDMDL
MODEL 9
REMARK VINA RESULT:     -10.9      2.677      8.034
REMARK  Name = CHEMBL281044
REMARK  6 active torsions:
REMARK  status: ('A' for Active; 'I' for Inactive)
REMARK    1  A    between atoms: C_2  and  C_3
REMARK    2  A    between atoms: C_3  and  N_4
REMARK    3  A    between atoms: N_15  and  C_16
REMARK    4  A    between atoms: C_16  and  C_17
REMARK    5  A    between atoms: C_21  and  C_22
REMARK    6  A    between atoms: C_27  and  N_28
REMARK                            x       y       z     vdW  Elec       q    Type
REMARK                         _______ _______ _______ _____ _____    ______ ____
ROOT
ATOM      1  C   UNL     1      -8.897   2.422 130.317  0.00  0.00    +0.000 A 
ATOM      2  C   UNL     1      -7.980   1.379 130.206  0.00  0.00    +0.000 A 
ATOM      3  C   UNL     1      -7.091   1.798 129.185  0.00  0.00    +0.000 A 
ATOM      4  C   UNL     1      -6.171   2.886 129.109  0.00  0.00    +0.000 A 
ATOM      5  C   UNL     1      -5.733   3.477 127.905  0.00  0.00    +0.000 A 
ATOM      6  C   UNL     1      -6.174   2.877 126.731  0.00  0.00    +0.000 A 
ATOM      7  C   UNL     1      -7.311   2.026 126.818  0.00  0.00    +0.000 A 
ATOM      8  C   UNL     1      -7.960   1.908 128.105  0.00  0.00    +0.000 A 
ATOM      9  O   UNL     1      -8.955   2.868 128.900  0.00  0.00    +0.000 OA
ENDROOT
BRANCH   5  10
ATOM     10  C   UNL     1      -4.995   4.801 127.891  0.00  0.00    +0.000 C 
ATOM     11  O   UNL     1      -4.966   5.442 126.840  0.00  0.00    +0.000 OA
ATOM     12  N   UNL     1      -4.469   5.292 129.120  0.00  0.00    +0.000 N 
ATOM     13  C   UNL     1      -4.877   6.577 129.707  0.00  0.00    +0.000 C 
ATOM     14  C   UNL     1      -3.676   7.363 130.287  0.00  0.00    +0.000 C 
ATOM     15  C   UNL     1      -2.833   6.492 131.625  0.00  0.00    +0.000 C 
ATOM     16  C   UNL     1      -2.407   5.204 130.566  0.00  0.00    +0.000 C 
ATOM     17  C   UNL     1      -3.637   4.477 130.001  0.00  0.00    +0.000 C 
BRANCH  15  18
ATOM     18  N   UNL     1      -2.896   6.811 133.470  0.00  0.00    +0.000 N 
ATOM     19  C   UNL     1      -1.899   7.773 133.150  0.00  0.00    +0.000 C 
ATOM     20  O   UNL     1      -0.820   7.621 132.520  0.00  0.00    +0.000 OA
ATOM     21  O   UNL     1      -2.331   9.013 133.305  0.00  0.00    +0.000 OA
ATOM     22  C   UNL     1      -1.749   9.268 134.522  0.00  0.00    +0.000 C 
ATOM     23  C   UNL     1      -2.949   8.969 135.303  0.00  0.00    +0.000 A 
ATOM     24  C   UNL     1      -3.139  10.074 136.366  0.00  0.00    +0.000 A 
ATOM     25  C   UNL     1      -3.689   9.957 137.608  0.00  0.00    +0.000 A 
ATOM     26  C   UNL     1      -4.007   8.634 137.789  0.00  0.00    +0.000 A 
ATOM     27  C   UNL     1      -3.893   7.481 136.573  0.00  0.00    +0.000 A 
ATOM     28  C   UNL     1      -3.440   7.645 135.053  0.00  0.00    +0.000 A 
ENDBRANCH  15  18
ENDBRANCH   5  10
BRANCH   1  29
ATOM     29  C   UNL     1      -9.993   2.483 131.439  0.00  0.00    +0.000 C 
BRANCH  29  32
ATOM     30  O   UNL     1      -9.090   4.130 134.555  0.00  0.00    +0.000 OA
ATOM     31  C   UNL     1      -9.147   3.984 133.330  0.00  0.00    +0.000 C 
ATOM     32  N   UNL     1      -9.754   2.821 132.839  0.00  0.00    +0.000 N 
ATOM     33  H   UNL     1     -10.034   2.197 133.585  0.00  0.00    +0.000 HD
BRANCH  31  34
ATOM     34  C   UNL     1      -8.616   5.076 132.344  0.00  0.00    +0.000 C 
BRANCH  34  35
ATOM     35  N   UNL     1      -9.658   5.888 131.686  0.00  0.00    +0.000 N 
ATOM     36  C   UNL     1     -10.876   6.102 132.319  0.00  0.00    +0.000 A 
ATOM     37  C   UNL     1     -11.888   6.760 131.739  0.00  0.00    +0.000 A 
ATOM     38  C   UNL     1     -11.701   7.310 130.404  0.00  0.00    +0.000 A 
ATOM     39  C   UNL     1     -12.669   8.128 129.829  0.00  0.00    +0.000 A 
ATOM     40  C   UNL     1     -12.342   8.869 128.696  0.00  0.00    +0.000 A 
ATOM     41  C   UNL     1     -11.206   8.546 127.956  0.00  0.00    +0.000 A 
ATOM     42  C   UNL     1     -10.303   7.611 128.446  0.00  0.00    +0.000 A 
ATOM     43  C   UNL     1     -10.506   7.075 129.716  0.00  0.00    +0.000 A 
ATOM     44  C   UNL     1      -9.442   6.266 130.353  0.00  0.00    +0.000 A 
ATOM     45  O   UNL     1      -8.442   5.974 129.704  0.00  0.00    +0.000 OA
ENDBRANCH  34  35
ENDBRANCH  31  34
ENDBRANCH  29  32
ENDBRANCH   1  29
TORSDOF 6
ENDMDL
