MODEL 1
REMARK VINA RESULT:      -8.3      0.000      0.000
REMARK  Name = CHEMBL474219
REMARK  8 active torsions:
REMARK  status: ('A' for Active; 'I' for Inactive)
REMARK    1  A    between atoms: C_1  and  S_2
REMARK    2  A    between atoms: S_2  and  C_5
REMARK    3  A    between atoms: C_10  and  C_11
REMARK    4  A    between atoms: C_14  and  C_15
REMARK    5  A    between atoms: N_17  and  C_18
REMARK    6  A    between atoms: N_17  and  C_22
REMARK    7  A    between atoms: C_18  and  C_19
REMARK    8  A    between atoms: C_22  and  C_23
REMARK                            x       y       z     vdW  Elec       q    Type
REMARK                         _______ _______ _______ _____ _____    ______ ____
ROOT
ATOM      1  C   UNL     1      -6.852  -2.945 129.157  0.00  0.00    +0.000 A 
ATOM      2  C   UNL     1      -6.085  -2.199 128.257  0.00  0.00    +0.000 A 
ATOM      3  C   UNL     1      -6.682  -1.700 127.058  0.00  0.00    +0.000 A 
ATOM      4  C   UNL     1      -7.927  -2.183 126.621  0.00  0.00    +0.000 A 
ATOM      5  C   UNL     1      -8.419  -3.207 127.386  0.00  0.00    +0.000 A 
ATOM      6  C   UNL     1      -8.100  -3.262 128.732  0.00  0.00    +0.000 A 
ENDROOT
BRANCH   1  12
ATOM      7  C   UNL     1      -6.774  -2.792 131.696  0.00  0.00    +0.000 A 
ATOM      8  C   UNL     1      -6.519  -3.458 132.902  0.00  0.00    +0.000 A 
ATOM      9  C   UNL     1      -5.829  -4.674 132.908  0.00  0.00    +0.000 A 
ATOM     10  C   UNL     1      -5.419  -5.264 131.717  0.00  0.00    +0.000 A 
ATOM     11  C   UNL     1      -5.738  -4.658 130.508  0.00  0.00    +0.000 A 
ATOM     12  C   UNL     1      -6.483  -3.461 130.468  0.00  0.00    +0.000 A 
BRANCH   7  14
ATOM     13  C   UNL     1      -5.987  -0.062 131.369  0.00  0.00    +0.000 C 
ATOM     14  S   UNL     1      -7.373  -1.064 131.926  0.00  0.00    +0.000 S 
ATOM     15  O   UNL     1      -7.545  -0.846 133.332  0.00  0.00    +0.000 OA
ATOM     16  O   UNL     1      -8.499  -0.731 131.051  0.00  0.00    +0.000 OA
ENDBRANCH   7  14
ENDBRANCH   1  12
BRANCH   4  17
ATOM     17  C   UNL     1      -8.755  -1.538 125.500  0.00  0.00    +0.000 C 
ATOM     18  O   UNL     1      -9.737  -0.889 125.872  0.00  0.00    +0.000 OA
ATOM     19  N   UNL     1      -8.509  -1.705 124.086  0.00  0.00    +0.000 N 
BRANCH  19  20
ATOM     20  C   UNL     1      -7.573  -2.614 123.403  0.00  0.00    +0.000 C 
BRANCH  20  21
ATOM     21  C   UNL     1      -6.140  -2.443 123.552  0.00  0.00    +0.000 C 
ATOM     22  C   UNL     1      -5.501  -3.689 124.199  0.00  0.00    +0.000 C 
ATOM     23  C   UNL     1      -4.794  -2.976 123.137  0.00  0.00    +0.000 C 
ENDBRANCH  20  21
ENDBRANCH  19  20
BRANCH  19  24
ATOM     24  C   UNL     1      -9.204  -0.763 123.140  0.00  0.00    +0.000 C 
BRANCH  24  25
ATOM     25  C   UNL     1      -8.687   0.726 123.142  0.00  0.00    +0.000 C 
ATOM     26  C   UNL     1      -7.318   0.911 123.800  0.00  0.00    +0.000 C 
ATOM     27  C   UNL     1      -7.303   2.334 124.238  0.00  0.00    +0.000 C 
ATOM     28  C   UNL     1      -8.747   2.576 124.578  0.00  0.00    +0.000 C 
ATOM     29  O   UNL     1      -9.555   1.643 123.832  0.00  0.00    +0.000 OA
ENDBRANCH  24  25
ENDBRANCH  19  24
ENDBRANCH   4  17
TORSDOF 7
ENDMDL
MODEL 2
REMARK VINA RESULT:      -8.0      2.136      2.940
REMARK  Name = CHEMBL474219
REMARK  8 active torsions:
REMARK  status: ('A' for Active; 'I' for Inactive)
REMARK    1  A    between atoms: C_1  and  S_2
REMARK    2  A    between atoms: S_2  and  C_5
REMARK    3  A    between atoms: C_10  and  C_11
REMARK    4  A    between atoms: C_14  and  C_15
REMARK    5  A    between atoms: N_17  and  C_18
REMARK    6  A    between atoms: N_17  and  C_22
REMARK    7  A    between atoms: C_18  and  C_19
REMARK    8  A    between atoms: C_22  and  C_23
REMARK                            x       y       z     vdW  Elec       q    Type
REMARK                         _______ _______ _______ _____ _____    ______ ____
ROOT
ATOM      1  C   UNL     1      -7.303  -2.179 129.849  0.00  0.00    +0.000 A 
ATOM      2  C   UNL     1      -8.133  -3.273 129.591  0.00  0.00    +0.000 A 
ATOM      3  C   UNL     1      -8.624  -3.496 128.267  0.00  0.00    +0.000 A 
ATOM      4  C   UNL     1      -8.537  -2.492 127.290  0.00  0.00    +0.000 A 
ATOM      5  C   UNL     1      -8.045  -1.304 127.765  0.00  0.00    +0.000 A 
ATOM      6  C   UNL     1      -7.145  -1.314 128.817  0.00  0.00    +0.000 A 
ENDROOT
BRANCH   1  12
ATOM      7  C   UNL     1      -5.323  -2.305 131.443  0.00  0.00    +0.000 A 
ATOM      8  C   UNL     1      -4.692  -1.765 132.571  0.00  0.00    +0.000 A 
ATOM      9  C   UNL     1      -5.384  -0.902 133.425  0.00  0.00    +0.000 A 
ATOM     10  C   UNL     1      -6.697  -0.533 133.151  0.00  0.00    +0.000 A 
ATOM     11  C   UNL     1      -7.309  -0.994 131.992  0.00  0.00    +0.000 A 
ATOM     12  C   UNL     1      -6.616  -1.818 131.081  0.00  0.00    +0.000 A 
BRANCH   7  14
ATOM     13  C   UNL     1      -5.363  -5.131 131.003  0.00  0.00    +0.000 C 
ATOM     14  S   UNL     1      -4.371  -3.672 130.655  0.00  0.00    +0.000 S 
ATOM     15  O   UNL     1      -3.128  -3.799 131.358  0.00  0.00    +0.000 OA
ATOM     16  O   UNL     1      -4.309  -3.555 129.196  0.00  0.00    +0.000 OA
ENDBRANCH   7  14
ENDBRANCH   1  12
BRANCH   4  17
ATOM     17  C   UNL     1      -8.801  -2.719 125.794  0.00  0.00    +0.000 C 
ATOM     18  O   UNL     1      -9.990  -2.822 125.475  0.00  0.00    +0.000 OA
ATOM     19  N   UNL     1      -7.779  -2.894 124.789  0.00  0.00    +0.000 N 
BRANCH  19  20
ATOM     20  C   UNL     1      -6.325  -3.061 124.955  0.00  0.00    +0.000 C 
BRANCH  20  21
ATOM     21  C   UNL     1      -5.574  -3.915 124.054  0.00  0.00    +0.000 C 
ATOM     22  C   UNL     1      -4.468  -3.116 123.332  0.00  0.00    +0.000 C 
ATOM     23  C   UNL     1      -4.213  -4.489 123.761  0.00  0.00    +0.000 C 
ENDBRANCH  20  21
ENDBRANCH  19  20
BRANCH  19  24
ATOM     24  C   UNL     1      -8.193  -2.788 123.346  0.00  0.00    +0.000 C 
BRANCH  24  25
ATOM     25  C   UNL     1      -8.390  -1.326 122.788  0.00  0.00    +0.000 C 
ATOM     26  C   UNL     1      -7.560  -0.264 123.512  0.00  0.00    +0.000 C 
ATOM     27  C   UNL     1      -8.303   1.007 123.289  0.00  0.00    +0.000 C 
ATOM     28  C   UNL     1      -9.731   0.537 123.255  0.00  0.00    +0.000 C 
ATOM     29  O   UNL     1      -9.746  -0.851 122.865  0.00  0.00    +0.000 OA
ENDBRANCH  24  25
ENDBRANCH  19  24
ENDBRANCH   4  17
TORSDOF 7
ENDMDL
MODEL 3
REMARK VINA RESULT:      -8.0      5.116      7.488
REMARK  Name = CHEMBL474219
REMARK  8 active torsions:
REMARK  status: ('A' for Active; 'I' for Inactive)
REMARK    1  A    between atoms: C_1  and  S_2
REMARK    2  A    between atoms: S_2  and  C_5
REMARK    3  A    between atoms: C_10  and  C_11
REMARK    4  A    between atoms: C_14  and  C_15
REMARK    5  A    between atoms: N_17  and  C_18
REMARK    6  A    between atoms: N_17  and  C_22
REMARK    7  A    between atoms: C_18  and  C_19
REMARK    8  A    between atoms: C_22  and  C_23
REMARK                            x       y       z     vdW  Elec       q    Type
REMARK                         _______ _______ _______ _____ _____    ______ ____
ROOT
ATOM      1  C   UNL     1      -8.425  -0.082 130.918  0.00  0.00    +0.000 A 
ATOM      2  C   UNL     1      -9.224   0.303 131.999  0.00  0.00    +0.000 A 
ATOM      3  C   UNL     1      -9.916   1.552 131.961  0.00  0.00    +0.000 A 
ATOM      4  C   UNL     1      -9.586   2.528 131.007  0.00  0.00    +0.000 A 
ATOM      5  C   UNL     1      -8.510   2.193 130.228  0.00  0.00    +0.000 A 
ATOM      6  C   UNL     1      -8.257   0.859 129.957  0.00  0.00    +0.000 A 
ENDROOT
BRANCH   1  12
ATOM      7  C   UNL     1      -6.739  -1.863 131.597  0.00  0.00    +0.000 A 
ATOM      8  C   UNL     1      -6.244  -3.154 131.370  0.00  0.00    +0.000 A 
ATOM      9  C   UNL     1      -6.565  -3.840 130.195  0.00  0.00    +0.000 A 
ATOM     10  C   UNL     1      -7.412  -3.271 129.249  0.00  0.00    +0.000 A 
ATOM     11  C   UNL     1      -7.977  -2.026 129.498  0.00  0.00    +0.000 A 
ATOM     12  C   UNL     1      -7.718  -1.336 130.701  0.00  0.00    +0.000 A 
BRANCH   7  14
ATOM     13  C   UNL     1      -4.510  -2.049 133.380  0.00  0.00    +0.000 C 
ATOM     14  S   UNL     1      -5.930  -1.007 133.015  0.00  0.00    +0.000 S 
ATOM     15  O   UNL     1      -6.827  -1.069 134.130  0.00  0.00    +0.000 OA
ATOM     16  O   UNL     1      -5.395   0.308 132.655  0.00  0.00    +0.000 OA
ENDBRANCH   7  14
ENDBRANCH   1  12
BRANCH   4  17
ATOM     17  C   UNL     1     -10.429   3.781 130.728  0.00  0.00    +0.000 C 
ATOM     18  O   UNL     1     -11.399   3.613 129.983  0.00  0.00    +0.000 OA
ATOM     19  N   UNL     1     -10.122   5.110 131.204  0.00  0.00    +0.000 N 
BRANCH  19  20
ATOM     20  C   UNL     1      -8.911   5.600 131.885  0.00  0.00    +0.000 C 
BRANCH  20  21
ATOM     21  C   UNL     1      -8.279   4.809 132.925  0.00  0.00    +0.000 C 
ATOM     22  C   UNL     1      -8.166   5.614 134.236  0.00  0.00    +0.000 C 
ATOM     23  C   UNL     1      -8.478   4.187 134.281  0.00  0.00    +0.000 C 
ENDBRANCH  20  21
ENDBRANCH  19  20
BRANCH  19  24
ATOM     24  C   UNL     1     -11.204   6.152 131.114  0.00  0.00    +0.000 C 
BRANCH  24  25
ATOM     25  C   UNL     1     -11.089   7.166 129.912  0.00  0.00    +0.000 C 
ATOM     26  C   UNL     1     -12.202   8.214 129.870  0.00  0.00    +0.000 C 
ATOM     27  C   UNL     1     -12.272   8.628 128.441  0.00  0.00    +0.000 C 
ATOM     28  C   UNL     1     -11.908   7.357 127.726  0.00  0.00    +0.000 C 
ATOM     29  O   UNL     1     -11.122   6.540 128.617  0.00  0.00    +0.000 OA
ENDBRANCH  24  25
ENDBRANCH  19  24
ENDBRANCH   4  17
TORSDOF 7
ENDMDL
MODEL 4
REMARK VINA RESULT:      -7.9      6.965      9.440
REMARK  Name = CHEMBL474219
REMARK  8 active torsions:
REMARK  status: ('A' for Active; 'I' for Inactive)
REMARK    1  A    between atoms: C_1  and  S_2
REMARK    2  A    between atoms: S_2  and  C_5
REMARK    3  A    between atoms: C_10  and  C_11
REMARK    4  A    between atoms: C_14  and  C_15
REMARK    5  A    between atoms: N_17  and  C_18
REMARK    6  A    between atoms: N_17  and  C_22
REMARK    7  A    between atoms: C_18  and  C_19
REMARK    8  A    between atoms: C_22  and  C_23
REMARK                            x       y       z     vdW  Elec       q    Type
REMARK                         _______ _______ _______ _____ _____    ______ ____
ROOT
ATOM      1  C   UNL     1      -5.231   5.948 132.531  0.00  0.00    +0.000 A 
ATOM      2  C   UNL     1      -6.093   5.706 133.605  0.00  0.00    +0.000 A 
ATOM      3  C   UNL     1      -7.506   5.706 133.395  0.00  0.00    +0.000 A 
ATOM      4  C   UNL     1      -8.057   6.229 132.213  0.00  0.00    +0.000 A 
ATOM      5  C   UNL     1      -7.132   6.799 131.381  0.00  0.00    +0.000 A 
ATOM      6  C   UNL     1      -5.834   6.315 131.374  0.00  0.00    +0.000 A 
ENDROOT
BRANCH   1  12
ATOM      7  C   UNL     1      -3.015   4.707 132.697  0.00  0.00    +0.000 A 
ATOM      8  C   UNL     1      -1.633   4.745 132.476  0.00  0.00    +0.000 A 
ATOM      9  C   UNL     1      -0.986   5.962 132.238  0.00  0.00    +0.000 A 
ATOM     10  C   UNL     1      -1.708   7.149 132.177  0.00  0.00    +0.000 A 
ATOM     11  C   UNL     1      -3.090   7.117 132.311  0.00  0.00    +0.000 A 
ATOM     12  C   UNL     1      -3.776   5.898 132.493  0.00  0.00    +0.000 A 
BRANCH   7  14
ATOM     13  C   UNL     1      -3.865   3.382 135.086  0.00  0.00    +0.000 C 
ATOM     14  S   UNL     1      -3.612   3.082 133.330  0.00  0.00    +0.000 S 
ATOM     15  O   UNL     1      -2.540   2.140 133.189  0.00  0.00    +0.000 OA
ATOM     16  O   UNL     1      -4.916   2.703 132.785  0.00  0.00    +0.000 OA
ENDBRANCH   7  14
ENDBRANCH   1  12
BRANCH   4  17
ATOM     17  C   UNL     1      -9.523   6.046 131.792  0.00  0.00    +0.000 C 
ATOM     18  O   UNL     1     -10.362   6.493 132.581  0.00  0.00    +0.000 OA
ATOM     19  N   UNL     1      -9.965   5.340 130.612  0.00  0.00    +0.000 N 
BRANCH  19  20
ATOM     20  C   UNL     1      -9.185   4.520 129.669  0.00  0.00    +0.000 C 
BRANCH  20  21
ATOM     21  C   UNL     1      -8.720   3.199 130.051  0.00  0.00    +0.000 C 
ATOM     22  C   UNL     1      -7.178   3.137 130.054  0.00  0.00    +0.000 C 
ATOM     23  C   UNL     1      -7.938   2.427 131.080  0.00  0.00    +0.000 C 
ENDBRANCH  20  21
ENDBRANCH  19  20
BRANCH  19  24
ATOM     24  C   UNL     1     -11.395   5.525 130.181  0.00  0.00    +0.000 C 
BRANCH  24  25
ATOM     25  C   UNL     1     -11.673   6.734 129.208  0.00  0.00    +0.000 C 
ATOM     26  C   UNL     1     -12.291   7.955 129.891  0.00  0.00    +0.000 C 
ATOM     27  C   UNL     1     -13.005   8.672 128.798  0.00  0.00    +0.000 C 
ATOM     28  C   UNL     1     -13.452   7.539 127.916  0.00  0.00    +0.000 C 
ATOM     29  O   UNL     1     -12.571   6.419 128.129  0.00  0.00    +0.000 OA
ENDBRANCH  24  25
ENDBRANCH  19  24
ENDBRANCH   4  17
TORSDOF 7
ENDMDL
MODEL 5
REMARK VINA RESULT:      -7.6      2.708      8.331
REMARK  Name = CHEMBL474219
REMARK  8 active torsions:
REMARK  status: ('A' for Active; 'I' for Inactive)
REMARK    1  A    between atoms: C_1  and  S_2
REMARK    2  A    between atoms: S_2  and  C_5
REMARK    3  A    between atoms: C_10  and  C_11
REMARK    4  A    between atoms: C_14  and  C_15
REMARK    5  A    between atoms: N_17  and  C_18
REMARK    6  A    between atoms: N_17  and  C_22
REMARK    7  A    between atoms: C_18  and  C_19
REMARK    8  A    between atoms: C_22  and  C_23
REMARK                            x       y       z     vdW  Elec       q    Type
REMARK                         _______ _______ _______ _____ _____    ______ ____
ROOT
ATOM      1  C   UNL     1      -6.634  -1.690 126.752  0.00  0.00    +0.000 A 
ATOM      2  C   UNL     1      -6.270  -0.624 127.579  0.00  0.00    +0.000 A 
ATOM      3  C   UNL     1      -6.397  -0.750 128.997  0.00  0.00    +0.000 A 
ATOM      4  C   UNL     1      -7.146  -1.795 129.561  0.00  0.00    +0.000 A 
ATOM      5  C   UNL     1      -7.789  -2.573 128.635  0.00  0.00    +0.000 A 
ATOM      6  C   UNL     1      -7.230  -2.734 127.379  0.00  0.00    +0.000 A 
ENDROOT
BRANCH   1  12
ATOM      7  C   UNL     1      -7.273  -1.075 124.366  0.00  0.00    +0.000 A 
ATOM      8  C   UNL     1      -6.944  -1.160 123.007  0.00  0.00    +0.000 A 
ATOM      9  C   UNL     1      -5.998  -2.088 122.564  0.00  0.00    +0.000 A 
ATOM     10  C   UNL     1      -5.338  -2.916 123.466  0.00  0.00    +0.000 A 
ATOM     11  C   UNL     1      -5.592  -2.787 124.825  0.00  0.00    +0.000 A 
ATOM     12  C   UNL     1      -6.498  -1.819 125.307  0.00  0.00    +0.000 A 
BRANCH   7  14
ATOM     13  C   UNL     1      -9.481   0.191 123.061  0.00  0.00    +0.000 C 
ATOM     14  S   UNL     1      -8.771  -0.052 124.696  0.00  0.00    +0.000 S 
ATOM     15  O   UNL     1      -8.329   1.221 125.184  0.00  0.00    +0.000 OA
ATOM     16  O   UNL     1      -9.782  -0.761 125.483  0.00  0.00    +0.000 OA
ENDBRANCH   7  14
ENDBRANCH   1  12
BRANCH   4  17
ATOM     17  C   UNL     1      -7.133  -2.156 131.054  0.00  0.00    +0.000 C 
ATOM     18  O   UNL     1      -7.777  -1.401 131.789  0.00  0.00    +0.000 OA
ATOM     19  N   UNL     1      -6.375  -3.238 131.638  0.00  0.00    +0.000 N 
BRANCH  19  20
ATOM     20  C   UNL     1      -5.355  -4.102 131.021  0.00  0.00    +0.000 C 
BRANCH  20  21
ATOM     21  C   UNL     1      -4.055  -3.566 130.660  0.00  0.00    +0.000 C 
ATOM     22  C   UNL     1      -3.869  -3.558 129.128  0.00  0.00    +0.000 C 
ATOM     23  C   UNL     1      -3.349  -2.454 129.932  0.00  0.00    +0.000 C 
ENDBRANCH  20  21
ENDBRANCH  19  20
BRANCH  19  24
ATOM     24  C   UNL     1      -6.716  -3.651 133.045  0.00  0.00    +0.000 C 
BRANCH  24  25
ATOM     25  C   UNL     1      -5.784  -4.747 133.690  0.00  0.00    +0.000 C 
ATOM     26  C   UNL     1      -6.490  -5.650 134.702  0.00  0.00    +0.000 C 
ATOM     27  C   UNL     1      -5.399  -6.143 135.587  0.00  0.00    +0.000 C 
ATOM     28  C   UNL     1      -4.451  -4.975 135.602  0.00  0.00    +0.000 C 
ATOM     29  O   UNL     1      -4.656  -4.207 134.400  0.00  0.00    +0.000 OA
ENDBRANCH  24  25
ENDBRANCH  19  24
ENDBRANCH   4  17
TORSDOF 7
ENDMDL
MODEL 6
REMARK VINA RESULT:      -7.5      2.625      8.283
REMARK  Name = CHEMBL474219
REMARK  8 active torsions:
REMARK  status: ('A' for Active; 'I' for Inactive)
REMARK    1  A    between atoms: C_1  and  S_2
REMARK    2  A    between atoms: S_2  and  C_5
REMARK    3  A    between atoms: C_10  and  C_11
REMARK    4  A    between atoms: C_14  and  C_15
REMARK    5  A    between atoms: N_17  and  C_18
REMARK    6  A    between atoms: N_17  and  C_22
REMARK    7  A    between atoms: C_18  and  C_19
REMARK    8  A    between atoms: C_22  and  C_23
REMARK                            x       y       z     vdW  Elec       q    Type
REMARK                         _______ _______ _______ _____ _____    ______ ____
ROOT
ATOM      1  C   UNL     1      -6.890  -2.178 126.625  0.00  0.00    +0.000 A 
ATOM      2  C   UNL     1      -7.704  -3.041 127.364  0.00  0.00    +0.000 A 
ATOM      3  C   UNL     1      -7.881  -2.825 128.765  0.00  0.00    +0.000 A 
ATOM      4  C   UNL     1      -7.035  -1.954 129.470  0.00  0.00    +0.000 A 
ATOM      5  C   UNL     1      -6.013  -1.447 128.712  0.00  0.00    +0.000 A 
ATOM      6  C   UNL     1      -6.202  -1.264 127.352  0.00  0.00    +0.000 A 
ENDROOT
BRANCH   1  12
ATOM      7  C   UNL     1      -7.423  -1.380 124.267  0.00  0.00    +0.000 A 
ATOM      8  C   UNL     1      -7.000  -1.301 122.935  0.00  0.00    +0.000 A 
ATOM      9  C   UNL     1      -5.948  -2.099 122.476  0.00  0.00    +0.000 A 
ATOM     10  C   UNL     1      -5.277  -2.957 123.342  0.00  0.00    +0.000 A 
ATOM     11  C   UNL     1      -5.631  -2.987 124.686  0.00  0.00    +0.000 A 
ATOM     12  C   UNL     1      -6.649  -2.149 125.189  0.00  0.00    +0.000 A 
BRANCH   7  14
ATOM     13  C   UNL     1      -8.533   0.983 125.435  0.00  0.00    +0.000 C 
ATOM     14  S   UNL     1      -9.023  -0.522 124.580  0.00  0.00    +0.000 S 
ATOM     15  O   UNL     1      -9.779  -1.328 125.494  0.00  0.00    +0.000 OA
ATOM     16  O   UNL     1      -9.691  -0.097 123.348  0.00  0.00    +0.000 OA
ENDBRANCH   7  14
ENDBRANCH   1  12
BRANCH   4  17
ATOM     17  C   UNL     1      -7.298  -1.469 130.903  0.00  0.00    +0.000 C 
ATOM     18  O   UNL     1      -8.221  -0.658 131.028  0.00  0.00    +0.000 OA
ATOM     19  N   UNL     1      -6.510  -1.830 132.059  0.00  0.00    +0.000 N 
BRANCH  19  20
ATOM     20  C   UNL     1      -5.235  -2.564 132.126  0.00  0.00    +0.000 C 
BRANCH  20  21
ATOM     21  C   UNL     1      -5.046  -3.783 131.361  0.00  0.00    +0.000 C 
ATOM     22  C   UNL     1      -5.051  -5.019 132.285  0.00  0.00    +0.000 C 
ATOM     23  C   UNL     1      -5.678  -5.092 130.968  0.00  0.00    +0.000 C 
ENDBRANCH  20  21
ENDBRANCH  19  20
BRANCH  19  24
ATOM     24  C   UNL     1      -7.084  -1.530 133.417  0.00  0.00    +0.000 C 
BRANCH  24  25
ATOM     25  C   UNL     1      -7.146  -2.742 134.424  0.00  0.00    +0.000 C 
ATOM     26  C   UNL     1      -8.213  -3.784 134.082  0.00  0.00    +0.000 C 
ATOM     27  C   UNL     1      -8.519  -4.446 135.381  0.00  0.00    +0.000 C 
ATOM     28  C   UNL     1      -8.329  -3.322 136.361  0.00  0.00    +0.000 C 
ATOM     29  O   UNL     1      -7.427  -2.358 135.782  0.00  0.00    +0.000 OA
ENDBRANCH  24  25
ENDBRANCH  19  24
ENDBRANCH   4  17
TORSDOF 7
ENDMDL
MODEL 7
REMARK VINA RESULT:      -7.5      4.909      8.471
REMARK  Name = CHEMBL474219
REMARK  8 active torsions:
REMARK  status: ('A' for Active; 'I' for Inactive)
REMARK    1  A    between atoms: C_1  and  S_2
REMARK    2  A    between atoms: S_2  and  C_5
REMARK    3  A    between atoms: C_10  and  C_11
REMARK    4  A    between atoms: C_14  and  C_15
REMARK    5  A    between atoms: N_17  and  C_18
REMARK    6  A    between atoms: N_17  and  C_22
REMARK    7  A    between atoms: C_18  and  C_19
REMARK    8  A    between atoms: C_22  and  C_23
REMARK                            x       y       z     vdW  Elec       q    Type
REMARK                         _______ _______ _______ _____ _____    ______ ____
ROOT
ATOM      1  C   UNL     1      -7.408   0.866 126.244  0.00  0.00    +0.000 A 
ATOM      2  C   UNL     1      -8.167   0.705 127.407  0.00  0.00    +0.000 A 
ATOM      3  C   UNL     1      -8.480   1.842 128.213  0.00  0.00    +0.000 A 
ATOM      4  C   UNL     1      -7.806   3.060 128.031  0.00  0.00    +0.000 A 
ATOM      5  C   UNL     1      -6.796   2.997 127.107  0.00  0.00    +0.000 A 
ATOM      6  C   UNL     1      -6.898   2.107 126.051  0.00  0.00    +0.000 A 
ENDROOT
BRANCH   1  12
ATOM      7  C   UNL     1      -7.787  -0.310 124.019  0.00  0.00    +0.000 A 
ATOM      8  C   UNL     1      -7.266  -1.175 123.048  0.00  0.00    +0.000 A 
ATOM      9  C   UNL     1      -6.153  -1.972 123.333  0.00  0.00    +0.000 A 
ATOM     10  C   UNL     1      -5.520  -1.893 124.569  0.00  0.00    +0.000 A 
ATOM     11  C   UNL     1      -5.975  -0.981 125.513  0.00  0.00    +0.000 A 
ATOM     12  C   UNL     1      -7.058  -0.122 125.233  0.00  0.00    +0.000 A 
BRANCH   7  14
ATOM     13  C   UNL     1      -9.054   2.029 122.969  0.00  0.00    +0.000 C 
ATOM     14  S   UNL     1      -9.437   0.380 123.576  0.00  0.00    +0.000 S 
ATOM     15  O   UNL     1     -10.193   0.514 124.786  0.00  0.00    +0.000 OA
ATOM     16  O   UNL     1     -10.071  -0.331 122.463  0.00  0.00    +0.000 OA
ENDBRANCH   7  14
ENDBRANCH   1  12
BRANCH   4  17
ATOM     17  C   UNL     1      -8.240   4.389 128.666  0.00  0.00    +0.000 C 
ATOM     18  O   UNL     1      -8.540   5.285 127.871  0.00  0.00    +0.000 OA
ATOM     19  N   UNL     1      -8.243   4.669 130.083  0.00  0.00    +0.000 N 
BRANCH  19  20
ATOM     20  C   UNL     1      -7.702   3.867 131.194  0.00  0.00    +0.000 C 
BRANCH  20  21
ATOM     21  C   UNL     1      -8.594   3.204 132.127  0.00  0.00    +0.000 C 
ATOM     22  C   UNL     1      -7.863   2.871 133.445  0.00  0.00    +0.000 C 
ATOM     23  C   UNL     1      -9.255   3.313 133.475  0.00  0.00    +0.000 C 
ENDBRANCH  20  21
ENDBRANCH  19  20
BRANCH  19  24
ATOM     24  C   UNL     1      -8.989   5.888 130.554  0.00  0.00    +0.000 C 
BRANCH  24  25
ATOM     25  C   UNL     1     -10.563   5.783 130.544  0.00  0.00    +0.000 C 
ATOM     26  C   UNL     1     -11.240   6.651 129.482  0.00  0.00    +0.000 C 
ATOM     27  C   UNL     1     -12.612   6.886 130.011  0.00  0.00    +0.000 C 
ATOM     28  C   UNL     1     -12.378   6.917 131.496  0.00  0.00    +0.000 C 
ATOM     29  O   UNL     1     -11.180   6.169 131.785  0.00  0.00    +0.000 OA
ENDBRANCH  24  25
ENDBRANCH  19  24
ENDBRANCH   4  17
TORSDOF 7
ENDMDL
MODEL 8
REMARK VINA RESULT:      -7.4      4.495      7.059
REMARK  Name = CHEMBL474219
REMARK  8 active torsions:
REMARK  status: ('A' for Active; 'I' for Inactive)
REMARK    1  A    between atoms: C_1  and  S_2
REMARK    2  A    between atoms: S_2  and  C_5
REMARK    3  A    between atoms: C_10  and  C_11
REMARK    4  A    between atoms: C_14  and  C_15
REMARK    5  A    between atoms: N_17  and  C_18
REMARK    6  A    between atoms: N_17  and  C_22
REMARK    7  A    between atoms: C_18  and  C_19
REMARK    8  A    between atoms: C_22  and  C_23
REMARK                            x       y       z     vdW  Elec       q    Type
REMARK                         _______ _______ _______ _____ _____    ______ ____
ROOT
ATOM      1  C   UNL     1      -6.752  -0.446 126.713  0.00  0.00    +0.000 A 
ATOM      2  C   UNL     1      -5.387  -0.373 126.420  0.00  0.00    +0.000 A 
ATOM      3  C   UNL     1      -4.766   0.901 126.240  0.00  0.00    +0.000 A 
ATOM      4  C   UNL     1      -5.541   2.059 126.061  0.00  0.00    +0.000 A 
ATOM      5  C   UNL     1      -6.886   1.813 125.980  0.00  0.00    +0.000 A 
ATOM      6  C   UNL     1      -7.421   0.732 126.660  0.00  0.00    +0.000 A 
ENDROOT
BRANCH   1  12
ATOM      7  C   UNL     1      -8.280  -2.372 126.054  0.00  0.00    +0.000 A 
ATOM      8  C   UNL     1      -8.890  -3.569 126.448  0.00  0.00    +0.000 A 
ATOM      9  C   UNL     1      -8.949  -3.924 127.799  0.00  0.00    +0.000 A 
ATOM     10  C   UNL     1      -8.369  -3.116 128.772  0.00  0.00    +0.000 A 
ATOM     11  C   UNL     1      -7.688  -1.967 128.389  0.00  0.00    +0.000 A 
ATOM     12  C   UNL     1      -7.561  -1.615 127.029  0.00  0.00    +0.000 A 
BRANCH   7  14
ATOM     13  C   UNL     1      -9.483  -3.360 123.655  0.00  0.00    +0.000 C 
ATOM     14  S   UNL     1      -8.611  -1.924 124.298  0.00  0.00    +0.000 S 
ATOM     15  O   UNL     1      -7.348  -1.831 123.626  0.00  0.00    +0.000 OA
ATOM     16  O   UNL     1      -9.529  -0.791 124.163  0.00  0.00    +0.000 OA
ENDBRANCH   7  14
ENDBRANCH   1  12
BRANCH   4  17
ATOM     17  C   UNL     1      -4.980   3.488 126.113  0.00  0.00    +0.000 C 
ATOM     18  O   UNL     1      -4.254   3.808 125.167  0.00  0.00    +0.000 OA
ATOM     19  N   UNL     1      -5.178   4.417 127.201  0.00  0.00    +0.000 N 
BRANCH  19  20
ATOM     20  C   UNL     1      -5.780   4.188 128.525  0.00  0.00    +0.000 C 
BRANCH  20  21
ATOM     21  C   UNL     1      -5.115   3.345 129.501  0.00  0.00    +0.000 C 
ATOM     22  C   UNL     1      -5.924   2.057 129.758  0.00  0.00    +0.000 C 
ATOM     23  C   UNL     1      -4.465   2.005 129.720  0.00  0.00    +0.000 C 
ENDBRANCH  20  21
ENDBRANCH  19  20
BRANCH  19  24
ATOM     24  C   UNL     1      -4.836   5.862 126.956  0.00  0.00    +0.000 C 
BRANCH  24  25
ATOM     25  C   UNL     1      -3.710   6.472 127.876  0.00  0.00    +0.000 C 
ATOM     26  C   UNL     1      -2.602   5.484 128.244  0.00  0.00    +0.000 C 
ATOM     27  C   UNL     1      -2.037   6.013 129.516  0.00  0.00    +0.000 C 
ATOM     28  C   UNL     1      -3.244   6.631 130.166  0.00  0.00    +0.000 C 
ATOM     29  O   UNL     1      -4.193   6.972 129.135  0.00  0.00    +0.000 OA
ENDBRANCH  24  25
ENDBRANCH  19  24
ENDBRANCH   4  17
TORSDOF 7
ENDMDL
MODEL 9
REMARK VINA RESULT:      -7.2      3.027      8.706
REMARK  Name = CHEMBL474219
REMARK  8 active torsions:
REMARK  status: ('A' for Active; 'I' for Inactive)
REMARK    1  A    between atoms: C_1  and  S_2
REMARK    2  A    between atoms: S_2  and  C_5
REMARK    3  A    between atoms: C_10  and  C_11
REMARK    4  A    between atoms: C_14  and  C_15
REMARK    5  A    between atoms: N_17  and  C_18
REMARK    6  A    between atoms: N_17  and  C_22
REMARK    7  A    between atoms: C_18  and  C_19
REMARK    8  A    between atoms: C_22  and  C_23
REMARK                            x       y       z     vdW  Elec       q    Type
REMARK                         _______ _______ _______ _____ _____    ______ ____
ROOT
ATOM      1  C   UNL     1      -8.197  -1.542 127.044  0.00  0.00    +0.000 A 
ATOM      2  C   UNL     1      -8.497  -2.836 127.478  0.00  0.00    +0.000 A 
ATOM      3  C   UNL     1      -8.183  -3.228 128.816  0.00  0.00    +0.000 A 
ATOM      4  C   UNL     1      -7.323  -2.450 129.609  0.00  0.00    +0.000 A 
ATOM      5  C   UNL     1      -6.772  -1.388 128.943  0.00  0.00    +0.000 A 
ATOM      6  C   UNL     1      -7.481  -0.789 127.915  0.00  0.00    +0.000 A 
ENDROOT
BRANCH   1  12
ATOM      7  C   UNL     1      -7.973  -1.322 124.519  0.00  0.00    +0.000 A 
ATOM      8  C   UNL     1      -8.472  -0.741 123.345  0.00  0.00    +0.000 A 
ATOM      9  C   UNL     1      -9.346   0.348 123.409  0.00  0.00    +0.000 A 
ATOM     10  C   UNL     1      -9.767   0.850 124.636  0.00  0.00    +0.000 A 
ATOM     11  C   UNL     1      -9.347   0.233 125.808  0.00  0.00    +0.000 A 
ATOM     12  C   UNL     1      -8.512  -0.904 125.773  0.00  0.00    +0.000 A 
BRANCH   7  14
ATOM     13  C   UNL     1      -6.063  -2.116 122.543  0.00  0.00    +0.000 C 
ATOM     14  S   UNL     1      -6.585  -2.497 124.222  0.00  0.00    +0.000 S 
ATOM     15  O   UNL     1      -7.129  -3.824 124.230  0.00  0.00    +0.000 OA
ATOM     16  O   UNL     1      -5.428  -2.240 125.082  0.00  0.00    +0.000 OA
ENDBRANCH   7  14
ENDBRANCH   1  12
BRANCH   4  17
ATOM     17  C   UNL     1      -7.129  -2.649 131.119  0.00  0.00    +0.000 C 
ATOM     18  O   UNL     1      -7.816  -1.922 131.843  0.00  0.00    +0.000 OA
ATOM     19  N   UNL     1      -6.171  -3.547 131.721  0.00  0.00    +0.000 N 
BRANCH  19  20
ATOM     20  C   UNL     1      -5.089  -4.318 131.086  0.00  0.00    +0.000 C 
BRANCH  20  21
ATOM     21  C   UNL     1      -3.863  -3.662 130.670  0.00  0.00    +0.000 C 
ATOM     22  C   UNL     1      -3.726  -3.674 129.133  0.00  0.00    +0.000 C 
ATOM     23  C   UNL     1      -3.298  -2.503 129.893  0.00  0.00    +0.000 C 
ENDBRANCH  20  21
ENDBRANCH  19  20
BRANCH  19  24
ATOM     24  C   UNL     1      -6.326  -3.856 133.186  0.00  0.00    +0.000 C 
BRANCH  24  25
ATOM     25  C   UNL     1      -5.430  -5.028 133.744  0.00  0.00    +0.000 C 
ATOM     26  C   UNL     1      -6.107  -5.869 134.827  0.00  0.00    +0.000 C 
ATOM     27  C   UNL     1      -4.980  -6.453 135.605  0.00  0.00    +0.000 C 
ATOM     28  C   UNL     1      -3.941  -5.370 135.519  0.00  0.00    +0.000 C 
ATOM     29  O   UNL     1      -4.196  -4.585 134.337  0.00  0.00    +0.000 OA
ENDBRANCH  24  25
ENDBRANCH  19  24
ENDBRANCH   4  17
TORSDOF 7
ENDMDL
