MODEL 1
REMARK VINA RESULT:     -10.8      0.000      0.000
REMARK  Name = CHEMBL65950
REMARK  8 active torsions:
REMARK  status: ('A' for Active; 'I' for Inactive)
REMARK    1  A    between atoms: C_1  and  O_2
REMARK    2  A    between atoms: O_2  and  C_3
REMARK    3  A    between atoms: C_5  and  O_6
REMARK    4  A    between atoms: O_6  and  C_7
REMARK    5  A    between atoms: C_11  and  C_13
REMARK    6  A    between atoms: C_19  and  C_20
REMARK    7  A    between atoms: C_25  and  C_26
REMARK    8  A    between atoms: C_31  and  N_32
REMARK                            x       y       z     vdW  Elec       q    Type
REMARK                         _______ _______ _______ _____ _____    ______ ____
ROOT
ATOM      1  C   UNL     1      -5.075   3.528 130.605  0.00  0.00    +0.000 A 
ATOM      2  C   UNL     1      -5.390   3.550 132.013  0.00  0.00    +0.000 A 
ATOM      3  C   UNL     1      -5.950   4.648 132.557  0.00  0.00    +0.000 A 
ATOM      4  C   UNL     1      -5.926   5.651 131.644  0.00  0.00    +0.000 A 
ATOM      5  C   UNL     1      -5.690   5.742 130.288  0.00  0.00    +0.000 A 
ATOM      6  C   UNL     1      -5.246   4.615 129.684  0.00  0.00    +0.000 A 
ENDROOT
BRANCH   6   7
ATOM      7  C   UNL     1      -4.945   4.833 128.202  0.00  0.00    +0.000 C 
ATOM      8  O   UNL     1      -3.926   5.480 127.916  0.00  0.00    +0.000 OA
ATOM      9  N   UNL     1      -5.720   4.211 127.178  0.00  0.00    +0.000 N 
ATOM     10  C   UNL     1      -5.102   3.045 126.479  0.00  0.00    +0.000 C 
ATOM     11  C   UNL     1      -5.691   2.835 125.073  0.00  0.00    +0.000 C 
ATOM     12  C   UNL     1      -7.462   2.391 124.906  0.00  0.00    +0.000 C 
ATOM     13  C   UNL     1      -7.863   3.872 125.814  0.00  0.00    +0.000 C 
ATOM     14  C   UNL     1      -7.203   4.226 127.187  0.00  0.00    +0.000 C 
BRANCH  12  15
ATOM     15  N   UNL     1      -7.851   0.604 124.734  0.00  0.00    +0.000 N 
ATOM     16  C   UNL     1      -8.926   0.975 123.934  0.00  0.00    +0.000 C 
ATOM     17  O   UNL     1      -9.795   1.857 124.204  0.00  0.00    +0.000 OA
ATOM     18  O   UNL     1      -8.882   0.341 122.780  0.00  0.00    +0.000 OA
ATOM     19  C   UNL     1      -9.345  -0.911 123.193  0.00  0.00    +0.000 C 
ATOM     20  C   UNL     1      -8.179  -1.449 124.040  0.00  0.00    +0.000 A 
ATOM     21  C   UNL     1      -6.990  -2.307 124.183  0.00  0.00    +0.000 A 
ATOM     22  C   UNL     1      -7.072  -3.698 124.408  0.00  0.00    +0.000 A 
ATOM     23  C   UNL     1      -8.335  -3.993 124.707  0.00  0.00    +0.000 A 
ATOM     24  C   UNL     1      -9.048  -2.682 125.151  0.00  0.00    +0.000 A 
ATOM     25  C   UNL     1      -8.592  -1.027 125.225  0.00  0.00    +0.000 A 
ENDBRANCH  12  15
ENDBRANCH   6   7
BRANCH   1  27
ATOM     26  C   UNL     1      -5.729   1.455 129.994  0.00  0.00    +0.000 C 
ATOM     27  O   UNL     1      -4.637   2.266 130.318  0.00  0.00    +0.000 OA
ENDBRANCH   1  27
BRANCH   3  28
ATOM     28  O   UNL     1      -6.495   4.737 133.800  0.00  0.00    +0.000 OA
BRANCH  28  29
ATOM     29  C   UNL     1      -7.924   4.488 134.106  0.00  0.00    +0.000 C 
ATOM     30  C   UNL     1      -8.560   3.204 133.506  0.00  0.00    +0.000 C 
ATOM     31  C   UNL     1      -8.880   3.351 132.040  0.00  0.00    +0.000 C 
ATOM     32  N   UNL     1      -9.595   4.713 131.791  0.00  0.00    +0.000 N 
ATOM     33  C   UNL     1     -10.519   4.731 130.751  0.00  0.00    +0.000 C 
ATOM     34  O   UNL     1     -10.873   3.733 130.135  0.00  0.00    +0.000 OA
ATOM     35  C   UNL     1      -9.146   6.024 132.524  0.00  0.00    +0.000 C 
ATOM     36  C   UNL     1      -8.832   5.727 133.954  0.00  0.00    +0.000 C 
BRANCH  33  37
ATOM     37  C   UNL     1     -11.202   6.007 130.463  0.00  0.00    +0.000 A 
ATOM     38  C   UNL     1     -12.200   6.378 131.369  0.00  0.00    +0.000 A 
ATOM     39  C   UNL     1     -12.855   7.587 131.207  0.00  0.00    +0.000 A 
ATOM     40  C   UNL     1     -12.492   8.414 130.151  0.00  0.00    +0.000 A 
ATOM     41  N   UNL     1     -11.502   8.062 129.242  0.00  0.00    +0.000 N 
ATOM     42  O   UNL     1     -11.203   8.885 128.320  0.00  0.00    +0.000 OA
ATOM     43  C   UNL     1     -10.857   6.838 129.378  0.00  0.00    +0.000 A 
ATOM     44  C   UNL     1      -9.821   6.497 128.359  0.00  0.00    +0.000 C 
ENDBRANCH  33  37
ENDBRANCH  28  29
ENDBRANCH   3  28
TORSDOF 6
ENDMDL
MODEL 2
REMARK VINA RESULT:     -10.4      2.606      8.913
REMARK  Name = CHEMBL65950
REMARK  8 active torsions:
REMARK  status: ('A' for Active; 'I' for Inactive)
REMARK    1  A    between atoms: C_1  and  O_2
REMARK    2  A    between atoms: O_2  and  C_3
REMARK    3  A    between atoms: C_5  and  O_6
REMARK    4  A    between atoms: O_6  and  C_7
REMARK    5  A    between atoms: C_11  and  C_13
REMARK    6  A    between atoms: C_19  and  C_20
REMARK    7  A    between atoms: C_25  and  C_26
REMARK    8  A    between atoms: C_31  and  N_32
REMARK                            x       y       z     vdW  Elec       q    Type
REMARK                         _______ _______ _______ _____ _____    ______ ____
ROOT
ATOM      1  C   UNL     1      -5.792   0.406 132.271  0.00  0.00    +0.000 A 
ATOM      2  C   UNL     1      -6.453  -0.876 132.213  0.00  0.00    +0.000 A 
ATOM      3  C   UNL     1      -7.304  -1.146 131.204  0.00  0.00    +0.000 A 
ATOM      4  C   UNL     1      -7.528  -0.007 130.503  0.00  0.00    +0.000 A 
ATOM      5  C   UNL     1      -6.943   1.241 130.439  0.00  0.00    +0.000 A 
ATOM      6  C   UNL     1      -5.990   1.499 131.363  0.00  0.00    +0.000 A 
ENDROOT
BRANCH   6   7
ATOM      7  C   UNL     1      -5.454   2.926 131.259  0.00  0.00    +0.000 C 
ATOM      8  O   UNL     1      -4.269   3.067 130.920  0.00  0.00    +0.000 OA
ATOM      9  N   UNL     1      -6.303   4.063 131.412  0.00  0.00    +0.000 N 
ATOM     10  C   UNL     1      -6.684   4.793 130.167  0.00  0.00    +0.000 C 
ATOM     11  C   UNL     1      -7.058   6.259 130.447  0.00  0.00    +0.000 C 
ATOM     12  C   UNL     1      -8.532   6.620 131.478  0.00  0.00    +0.000 C 
ATOM     13  C   UNL     1      -7.799   5.637 132.773  0.00  0.00    +0.000 C 
ATOM     14  C   UNL     1      -7.266   4.186 132.535  0.00  0.00    +0.000 C 
BRANCH  12  15
ATOM     15  N   UNL     1     -10.097   6.968 130.584  0.00  0.00    +0.000 N 
ATOM     16  C   UNL     1     -10.683   5.954 131.333  0.00  0.00    +0.000 C 
ATOM     17  O   UNL     1     -10.222   4.787 131.510  0.00  0.00    +0.000 OA
ATOM     18  O   UNL     1     -11.768   6.395 131.936  0.00  0.00    +0.000 OA
ATOM     19  C   UNL     1     -12.647   6.390 130.849  0.00  0.00    +0.000 C 
ATOM     20  C   UNL     1     -12.123   7.544 129.976  0.00  0.00    +0.000 A 
ATOM     21  C   UNL     1     -12.215   8.938 129.508  0.00  0.00    +0.000 A 
ATOM     22  C   UNL     1     -13.150   9.360 128.539  0.00  0.00    +0.000 A 
ATOM     23  C   UNL     1     -13.696   8.276 127.994  0.00  0.00    +0.000 A 
ATOM     24  C   UNL     1     -12.762   7.064 128.282  0.00  0.00    +0.000 A 
ATOM     25  C   UNL     1     -11.321   6.842 129.191  0.00  0.00    +0.000 A 
ENDBRANCH  12  15
ENDBRANCH   6   7
BRANCH   1  27
ATOM     26  C   UNL     1      -3.623   0.121 132.830  0.00  0.00    +0.000 C 
ATOM     27  O   UNL     1      -4.914   0.350 133.316  0.00  0.00    +0.000 OA
ENDBRANCH   1  27
BRANCH   3  28
ATOM     28  O   UNL     1      -7.824  -2.366 130.900  0.00  0.00    +0.000 OA
BRANCH  28  29
ATOM     29  C   UNL     1      -7.232  -3.305 129.918  0.00  0.00    +0.000 C 
ATOM     30  C   UNL     1      -5.758  -3.052 129.500  0.00  0.00    +0.000 C 
ATOM     31  C   UNL     1      -5.625  -1.914 128.519  0.00  0.00    +0.000 C 
ATOM     32  N   UNL     1      -6.695  -2.059 127.396  0.00  0.00    +0.000 N 
ATOM     33  C   UNL     1      -6.327  -1.580 126.142  0.00  0.00    +0.000 C 
ATOM     34  O   UNL     1      -5.200  -1.185 125.867  0.00  0.00    +0.000 OA
ATOM     35  C   UNL     1      -8.161  -2.519 127.709  0.00  0.00    +0.000 C 
ATOM     36  C   UNL     1      -8.144  -3.625 128.715  0.00  0.00    +0.000 C 
BRANCH  33  37
ATOM     37  C   UNL     1      -7.318  -1.674 125.054  0.00  0.00    +0.000 A 
ATOM     38  C   UNL     1      -7.443  -2.931 124.455  0.00  0.00    +0.000 A 
ATOM     39  C   UNL     1      -8.388  -3.125 123.462  0.00  0.00    +0.000 A 
ATOM     40  C   UNL     1      -9.206  -2.063 123.095  0.00  0.00    +0.000 A 
ATOM     41  N   UNL     1      -9.097  -0.808 123.680  0.00  0.00    +0.000 N 
ATOM     42  O   UNL     1      -9.902   0.106 123.313  0.00  0.00    +0.000 OA
ATOM     43  C   UNL     1      -8.132  -0.594 124.657  0.00  0.00    +0.000 A 
ATOM     44  C   UNL     1      -8.039   0.779 125.234  0.00  0.00    +0.000 C 
ENDBRANCH  33  37
ENDBRANCH  28  29
ENDBRANCH   3  28
TORSDOF 6
ENDMDL
MODEL 3
REMARK VINA RESULT:     -10.4      1.690      2.508
REMARK  Name = CHEMBL65950
REMARK  8 active torsions:
REMARK  status: ('A' for Active; 'I' for Inactive)
REMARK    1  A    between atoms: C_1  and  O_2
REMARK    2  A    between atoms: O_2  and  C_3
REMARK    3  A    between atoms: C_5  and  O_6
REMARK    4  A    between atoms: O_6  and  C_7
REMARK    5  A    between atoms: C_11  and  C_13
REMARK    6  A    between atoms: C_19  and  C_20
REMARK    7  A    between atoms: C_25  and  C_26
REMARK    8  A    between atoms: C_31  and  N_32
REMARK                            x       y       z     vdW  Elec       q    Type
REMARK                         _______ _______ _______ _____ _____    ______ ____
ROOT
ATOM      1  C   UNL     1      -3.785   3.032 130.377  0.00  0.00    +0.000 A 
ATOM      2  C   UNL     1      -3.593   2.839 131.793  0.00  0.00    +0.000 A 
ATOM      3  C   UNL     1      -3.200   3.872 132.563  0.00  0.00    +0.000 A 
ATOM      4  C   UNL     1      -2.856   4.910 131.761  0.00  0.00    +0.000 A 
ATOM      5  C   UNL     1      -3.025   5.222 130.428  0.00  0.00    +0.000 A 
ATOM      6  C   UNL     1      -3.539   4.244 129.648  0.00  0.00    +0.000 A 
ENDROOT
BRANCH   6   7
ATOM      7  C   UNL     1      -3.621   4.656 128.180  0.00  0.00    +0.000 C 
ATOM      8  O   UNL     1      -2.676   5.314 127.718  0.00  0.00    +0.000 OA
ATOM      9  N   UNL     1      -4.671   4.199 127.327  0.00  0.00    +0.000 N 
ATOM     10  C   UNL     1      -4.325   3.127 126.348  0.00  0.00    +0.000 C 
ATOM     11  C   UNL     1      -5.270   3.126 125.133  0.00  0.00    +0.000 C 
ATOM     12  C   UNL     1      -7.047   2.750 125.388  0.00  0.00    +0.000 C 
ATOM     13  C   UNL     1      -7.111   4.101 126.551  0.00  0.00    +0.000 C 
ATOM     14  C   UNL     1      -6.098   4.247 127.733  0.00  0.00    +0.000 C 
BRANCH  12  15
ATOM     15  N   UNL     1      -7.570   1.013 125.099  0.00  0.00    +0.000 N 
ATOM     16  C   UNL     1      -8.641   1.518 124.370  0.00  0.00    +0.000 C 
ATOM     17  O   UNL     1      -9.434   2.436 124.736  0.00  0.00    +0.000 OA
ATOM     18  O   UNL     1      -8.680   0.972 123.172  0.00  0.00    +0.000 OA
ATOM     19  C   UNL     1      -9.220  -0.272 123.508  0.00  0.00    +0.000 C 
ATOM     20  C   UNL     1      -8.069  -0.953 124.270  0.00  0.00    +0.000 A 
ATOM     21  C   UNL     1      -6.943  -1.901 124.304  0.00  0.00    +0.000 A 
ATOM     22  C   UNL     1      -7.119  -3.296 124.429  0.00  0.00    +0.000 A 
ATOM     23  C   UNL     1      -8.389  -3.523 124.753  0.00  0.00    +0.000 A 
ATOM     24  C   UNL     1      -8.990  -2.202 125.318  0.00  0.00    +0.000 A 
ATOM     25  C   UNL     1      -8.413  -0.595 125.497  0.00  0.00    +0.000 A 
ENDBRANCH  12  15
ENDBRANCH   6   7
BRANCH   1  27
ATOM     26  C   UNL     1      -5.225   1.342 130.783  0.00  0.00    +0.000 C 
ATOM     27  O   UNL     1      -4.291   1.862 129.884  0.00  0.00    +0.000 OA
ENDBRANCH   1  27
BRANCH   3  28
ATOM     28  O   UNL     1      -3.189   3.899 133.924  0.00  0.00    +0.000 OA
BRANCH  28  29
ATOM     29  C   UNL     1      -4.368   4.220 134.763  0.00  0.00    +0.000 C 
ATOM     30  C   UNL     1      -5.170   3.022 135.338  0.00  0.00    +0.000 C 
ATOM     31  C   UNL     1      -6.059   2.374 134.306  0.00  0.00    +0.000 C 
ATOM     32  N   UNL     1      -6.835   3.470 133.517  0.00  0.00    +0.000 N 
ATOM     33  C   UNL     1      -8.101   3.110 133.066  0.00  0.00    +0.000 C 
ATOM     34  O   UNL     1      -8.658   2.058 133.362  0.00  0.00    +0.000 OA
ATOM     35  C   UNL     1      -6.150   4.811 133.080  0.00  0.00    +0.000 C 
ATOM     36  C   UNL     1      -5.279   5.322 134.182  0.00  0.00    +0.000 C 
BRANCH  33  37
ATOM     37  C   UNL     1      -8.864   4.109 132.292  0.00  0.00    +0.000 A 
ATOM     38  C   UNL     1      -9.429   5.148 133.036  0.00  0.00    +0.000 A 
ATOM     39  C   UNL     1     -10.115   6.159 132.386  0.00  0.00    +0.000 A 
ATOM     40  C   UNL     1     -10.211   6.125 131.000  0.00  0.00    +0.000 A 
ATOM     41  N   UNL     1      -9.654   5.102 130.245  0.00  0.00    +0.000 N 
ATOM     42  O   UNL     1      -9.756   5.155 128.979  0.00  0.00    +0.000 OA
ATOM     43  C   UNL     1      -8.988   4.065 130.889  0.00  0.00    +0.000 A 
ATOM     44  C   UNL     1      -8.431   2.976 130.033  0.00  0.00    +0.000 C 
ENDBRANCH  33  37
ENDBRANCH  28  29
ENDBRANCH   3  28
TORSDOF 6
ENDMDL
MODEL 4
REMARK VINA RESULT:     -10.3      3.537      6.326
REMARK  Name = CHEMBL65950
REMARK  8 active torsions:
REMARK  status: ('A' for Active; 'I' for Inactive)
REMARK    1  A    between atoms: C_1  and  O_2
REMARK    2  A    between atoms: O_2  and  C_3
REMARK    3  A    between atoms: C_5  and  O_6
REMARK    4  A    between atoms: O_6  and  C_7
REMARK    5  A    between atoms: C_11  and  C_13
REMARK    6  A    between atoms: C_19  and  C_20
REMARK    7  A    between atoms: C_25  and  C_26
REMARK    8  A    between atoms: C_31  and  N_32
REMARK                            x       y       z     vdW  Elec       q    Type
REMARK                         _______ _______ _______ _____ _____    ______ ____
ROOT
ATOM      1  C   UNL     1      -7.394   2.000 132.386  0.00  0.00    +0.000 A 
ATOM      2  C   UNL     1      -7.046   3.382 132.606  0.00  0.00    +0.000 A 
ATOM      3  C   UNL     1      -5.966   3.691 133.350  0.00  0.00    +0.000 A 
ATOM      4  C   UNL     1      -5.503   2.561 133.940  0.00  0.00    +0.000 A 
ATOM      5  C   UNL     1      -5.722   1.208 133.784  0.00  0.00    +0.000 A 
ATOM      6  C   UNL     1      -6.722   0.860 132.942  0.00  0.00    +0.000 A 
ENDROOT
BRANCH   6   7
ATOM      7  C   UNL     1      -6.936  -0.651 132.889  0.00  0.00    +0.000 C 
ATOM      8  O   UNL     1      -7.431  -1.192 133.890  0.00  0.00    +0.000 OA
ATOM      9  N   UNL     1      -6.705  -1.404 131.698  0.00  0.00    +0.000 N 
ATOM     10  C   UNL     1      -7.910  -1.846 130.937  0.00  0.00    +0.000 C 
ATOM     11  C   UNL     1      -7.625  -3.088 130.073  0.00  0.00    +0.000 C 
ATOM     12  C   UNL     1      -6.420  -2.958 128.696  0.00  0.00    +0.000 C 
ATOM     13  C   UNL     1      -5.205  -2.414 129.882  0.00  0.00    +0.000 C 
ATOM     14  C   UNL     1      -5.470  -1.247 130.890  0.00  0.00    +0.000 C 
BRANCH  12  15
ATOM     15  N   UNL     1      -7.112  -2.637 127.026  0.00  0.00    +0.000 N 
ATOM     16  C   UNL     1      -5.897  -2.045 126.700  0.00  0.00    +0.000 C 
ATOM     17  O   UNL     1      -5.278  -1.174 127.381  0.00  0.00    +0.000 OA
ATOM     18  O   UNL     1      -5.401  -2.584 125.605  0.00  0.00    +0.000 OA
ATOM     19  C   UNL     1      -6.207  -1.949 124.656  0.00  0.00    +0.000 C 
ATOM     20  C   UNL     1      -7.585  -2.596 124.886  0.00  0.00    +0.000 A 
ATOM     21  C   UNL     1      -8.621  -3.569 124.501  0.00  0.00    +0.000 A 
ATOM     22  C   UNL     1      -9.513  -3.355 123.427  0.00  0.00    +0.000 A 
ATOM     23  C   UNL     1      -9.402  -2.084 123.048  0.00  0.00    +0.000 A 
ATOM     24  C   UNL     1      -8.741  -1.285 124.210  0.00  0.00    +0.000 A 
ATOM     25  C   UNL     1      -8.074  -1.707 125.736  0.00  0.00    +0.000 A 
ENDBRANCH  12  15
ENDBRANCH   6   7
BRANCH   1  27
ATOM     26  C   UNL     1      -9.646   1.951 132.225  0.00  0.00    +0.000 C 
ATOM     27  O   UNL     1      -8.445   1.991 131.512  0.00  0.00    +0.000 OA
ENDBRANCH   1  27
BRANCH   3  28
ATOM     28  O   UNL     1      -5.395   4.921 133.462  0.00  0.00    +0.000 OA
BRANCH  28  29
ATOM     29  C   UNL     1      -4.084   5.290 132.877  0.00  0.00    +0.000 C 
ATOM     30  C   UNL     1      -3.959   6.714 132.270  0.00  0.00    +0.000 C 
ATOM     31  C   UNL     1      -4.614   6.824 130.917  0.00  0.00    +0.000 C 
ATOM     32  N   UNL     1      -4.204   5.608 130.033  0.00  0.00    +0.000 N 
ATOM     33  C   UNL     1      -4.122   5.853 128.666  0.00  0.00    +0.000 C 
ATOM     34  O   UNL     1      -4.227   6.966 128.164  0.00  0.00    +0.000 OA
ATOM     35  C   UNL     1      -4.099   4.159 130.624  0.00  0.00    +0.000 C 
ATOM     36  C   UNL     1      -3.462   4.204 131.975  0.00  0.00    +0.000 C 
BRANCH  33  37
ATOM     37  C   UNL     1      -3.760   4.723 127.788  0.00  0.00    +0.000 A 
ATOM     38  C   UNL     1      -2.391   4.482 127.643  0.00  0.00    +0.000 A 
ATOM     39  C   UNL     1      -1.962   3.409 126.882  0.00  0.00    +0.000 A 
ATOM     40  C   UNL     1      -2.909   2.582 126.289  0.00  0.00    +0.000 A 
ATOM     41  N   UNL     1      -4.273   2.806 126.423  0.00  0.00    +0.000 N 
ATOM     42  O   UNL     1      -5.080   1.988 125.878  0.00  0.00    +0.000 OA
ATOM     43  C   UNL     1      -4.715   3.898 127.162  0.00  0.00    +0.000 A 
ATOM     44  C   UNL     1      -6.190   4.108 127.252  0.00  0.00    +0.000 C 
ENDBRANCH  33  37
ENDBRANCH  28  29
ENDBRANCH   3  28
TORSDOF 6
ENDMDL
MODEL 5
REMARK VINA RESULT:      -9.9      3.101      9.282
REMARK  Name = CHEMBL65950
REMARK  8 active torsions:
REMARK  status: ('A' for Active; 'I' for Inactive)
REMARK    1  A    between atoms: C_1  and  O_2
REMARK    2  A    between atoms: O_2  and  C_3
REMARK    3  A    between atoms: C_5  and  O_6
REMARK    4  A    between atoms: O_6  and  C_7
REMARK    5  A    between atoms: C_11  and  C_13
REMARK    6  A    between atoms: C_19  and  C_20
REMARK    7  A    between atoms: C_25  and  C_26
REMARK    8  A    between atoms: C_31  and  N_32
REMARK                            x       y       z     vdW  Elec       q    Type
REMARK                         _______ _______ _______ _____ _____    ______ ____
ROOT
ATOM      1  C   UNL     1      -6.442  -2.457 128.392  0.00  0.00    +0.000 A 
ATOM      2  C   UNL     1      -6.708  -2.769 127.009  0.00  0.00    +0.000 A 
ATOM      3  C   UNL     1      -7.921  -3.232 126.648  0.00  0.00    +0.000 A 
ATOM      4  C   UNL     1      -8.634  -3.511 127.767  0.00  0.00    +0.000 A 
ATOM      5  C   UNL     1      -8.507  -3.229 129.111  0.00  0.00    +0.000 A 
ATOM      6  C   UNL     1      -7.347  -2.645 129.490  0.00  0.00    +0.000 A 
ENDROOT
BRANCH   6   7
ATOM      7  C   UNL     1      -7.268  -2.439 131.002  0.00  0.00    +0.000 C 
ATOM      8  O   UNL     1      -6.859  -3.389 131.686  0.00  0.00    +0.000 OA
ATOM      9  N   UNL     1      -7.524  -1.169 131.602  0.00  0.00    +0.000 N 
ATOM     10  C   UNL     1      -6.339  -0.396 132.075  0.00  0.00    +0.000 C 
ATOM     11  C   UNL     1      -6.705   0.601 133.189  0.00  0.00    +0.000 C 
ATOM     12  C   UNL     1      -7.844   1.986 132.806  0.00  0.00    +0.000 C 
ATOM     13  C   UNL     1      -9.046   0.780 132.276  0.00  0.00    +0.000 C 
ATOM     14  C   UNL     1      -8.711  -0.352 131.249  0.00  0.00    +0.000 C 
BRANCH  12  15
ATOM     15  N   UNL     1      -7.068   3.595 132.381  0.00  0.00    +0.000 N 
ATOM     16  C   UNL     1      -7.388   4.023 133.665  0.00  0.00    +0.000 C 
ATOM     17  O   UNL     1      -8.516   3.918 134.233  0.00  0.00    +0.000 OA
ATOM     18  O   UNL     1      -6.317   4.485 134.276  0.00  0.00    +0.000 OA
ATOM     19  C   UNL     1      -6.223   5.732 133.655  0.00  0.00    +0.000 C 
ATOM     20  C   UNL     1      -5.795   5.373 132.221  0.00  0.00    +0.000 A 
ATOM     21  C   UNL     1      -4.749   5.247 131.191  0.00  0.00    +0.000 A 
ATOM     22  C   UNL     1      -4.241   6.353 130.477  0.00  0.00    +0.000 A 
ATOM     23  C   UNL     1      -5.030   7.397 130.719  0.00  0.00    +0.000 A 
ATOM     24  C   UNL     1      -6.391   6.864 131.257  0.00  0.00    +0.000 A 
ATOM     25  C   UNL     1      -6.998   5.312 131.672  0.00  0.00    +0.000 A 
ENDBRANCH  12  15
ENDBRANCH   6   7
BRANCH   1  27
ATOM     26  C   UNL     1      -4.278  -2.856 128.895  0.00  0.00    +0.000 C 
ATOM     27  O   UNL     1      -5.194  -1.904 128.439  0.00  0.00    +0.000 OA
ENDBRANCH   1  27
BRANCH   3  28
ATOM     28  O   UNL     1      -8.383  -3.360 125.375  0.00  0.00    +0.000 OA
BRANCH  28  29
ATOM     29  C   UNL     1      -9.168  -2.324 124.662  0.00  0.00    +0.000 C 
ATOM     30  C   UNL     1      -8.742  -1.994 123.206  0.00  0.00    +0.000 C 
ATOM     31  C   UNL     1      -7.510  -1.126 123.148  0.00  0.00    +0.000 C 
ATOM     32  N   UNL     1      -7.647   0.050 124.161  0.00  0.00    +0.000 N 
ATOM     33  C   UNL     1      -7.021   1.239 123.797  0.00  0.00    +0.000 C 
ATOM     34  O   UNL     1      -6.500   1.429 122.704  0.00  0.00    +0.000 OA
ATOM     35  C   UNL     1      -8.268  -0.157 125.586  0.00  0.00    +0.000 C 
ATOM     36  C   UNL     1      -9.456  -1.059 125.498  0.00  0.00    +0.000 C 
BRANCH  33  37
ATOM     37  C   UNL     1      -7.104   2.373 124.738  0.00  0.00    +0.000 A 
ATOM     38  C   UNL     1      -8.164   3.259 124.527  0.00  0.00    +0.000 A 
ATOM     39  C   UNL     1      -8.351   4.321 125.395  0.00  0.00    +0.000 A 
ATOM     40  C   UNL     1      -7.484   4.472 126.470  0.00  0.00    +0.000 A 
ATOM     41  N   UNL     1      -6.427   3.601 126.696  0.00  0.00    +0.000 N 
ATOM     42  O   UNL     1      -5.695   3.785 127.720  0.00  0.00    +0.000 OA
ATOM     43  C   UNL     1      -6.212   2.547 125.815  0.00  0.00    +0.000 A 
ATOM     44  C   UNL     1      -5.046   1.657 126.088  0.00  0.00    +0.000 C 
ENDBRANCH  33  37
ENDBRANCH  28  29
ENDBRANCH   3  28
TORSDOF 6
ENDMDL
MODEL 6
REMARK VINA RESULT:      -9.7      3.701      6.177
REMARK  Name = CHEMBL65950
REMARK  8 active torsions:
REMARK  status: ('A' for Active; 'I' for Inactive)
REMARK    1  A    between atoms: C_1  and  O_2
REMARK    2  A    between atoms: O_2  and  C_3
REMARK    3  A    between atoms: C_5  and  O_6
REMARK    4  A    between atoms: O_6  and  C_7
REMARK    5  A    between atoms: C_11  and  C_13
REMARK    6  A    between atoms: C_19  and  C_20
REMARK    7  A    between atoms: C_25  and  C_26
REMARK    8  A    between atoms: C_31  and  N_32
REMARK                            x       y       z     vdW  Elec       q    Type
REMARK                         _______ _______ _______ _____ _____    ______ ____
ROOT
ATOM      1  C   UNL     1      -6.659   0.891 133.187  0.00  0.00    +0.000 A 
ATOM      2  C   UNL     1      -6.184   2.087 133.840  0.00  0.00    +0.000 A 
ATOM      3  C   UNL     1      -4.895   2.175 134.223  0.00  0.00    +0.000 A 
ATOM      4  C   UNL     1      -4.311   0.959 134.077  0.00  0.00    +0.000 A 
ATOM      5  C   UNL     1      -4.641  -0.222 133.447  0.00  0.00    +0.000 A 
ATOM      6  C   UNL     1      -5.892  -0.296 132.937  0.00  0.00    +0.000 A 
ENDROOT
BRANCH   6   7
ATOM      7  C   UNL     1      -6.189  -1.663 132.324  0.00  0.00    +0.000 C 
ATOM      8  O   UNL     1      -6.607  -2.550 133.083  0.00  0.00    +0.000 OA
ATOM      9  N   UNL     1      -6.120  -1.888 130.916  0.00  0.00    +0.000 N 
ATOM     10  C   UNL     1      -7.418  -1.986 130.185  0.00  0.00    +0.000 C 
ATOM     11  C   UNL     1      -7.287  -2.790 128.879  0.00  0.00    +0.000 C 
ATOM     12  C   UNL     1      -6.224  -2.138 127.534  0.00  0.00    +0.000 C 
ATOM     13  C   UNL     1      -4.867  -2.114 128.691  0.00  0.00    +0.000 C 
ATOM     14  C   UNL     1      -4.968  -1.436 130.097  0.00  0.00    +0.000 C 
BRANCH  12  15
ATOM     15  N   UNL     1      -7.065  -1.180 126.212  0.00  0.00    +0.000 N 
ATOM     16  C   UNL     1      -6.751  -2.217 125.341  0.00  0.00    +0.000 C 
ATOM     17  O   UNL     1      -5.615  -2.761 125.197  0.00  0.00    +0.000 OA
ATOM     18  O   UNL     1      -7.834  -2.645 124.726  0.00  0.00    +0.000 OA
ATOM     19  C   UNL     1      -7.982  -1.619 123.789  0.00  0.00    +0.000 C 
ATOM     20  C   UNL     1      -8.407  -0.420 124.654  0.00  0.00    +0.000 A 
ATOM     21  C   UNL     1      -9.456   0.474 125.176  0.00  0.00    +0.000 A 
ATOM     22  C   UNL     1     -10.012   1.526 124.418  0.00  0.00    +0.000 A 
ATOM     23  C   UNL     1      -9.262   1.692 123.332  0.00  0.00    +0.000 A 
ATOM     24  C   UNL     1      -7.877   1.028 123.591  0.00  0.00    +0.000 A 
ATOM     25  C   UNL     1      -7.207   0.097 124.869  0.00  0.00    +0.000 A 
ENDBRANCH  12  15
ENDBRANCH   6   7
BRANCH   1  27
ATOM     26  C   UNL     1      -7.963   1.893 131.641  0.00  0.00    +0.000 C 
ATOM     27  O   UNL     1      -7.950   1.132 132.813  0.00  0.00    +0.000 OA
ENDBRANCH   1  27
BRANCH   3  28
ATOM     28  O   UNL     1      -4.259   3.301 134.644  0.00  0.00    +0.000 OA
BRANCH  28  29
ATOM     29  C   UNL     1      -3.560   4.251 133.746  0.00  0.00    +0.000 C 
ATOM     30  C   UNL     1      -4.324   5.544 133.355  0.00  0.00    +0.000 C 
ATOM     31  C   UNL     1      -5.376   5.297 132.303  0.00  0.00    +0.000 C 
ATOM     32  N   UNL     1      -4.782   4.418 131.161  0.00  0.00    +0.000 N 
ATOM     33  C   UNL     1      -5.298   4.647 129.889  0.00  0.00    +0.000 C 
ATOM     34  O   UNL     1      -6.071   5.559 129.620  0.00  0.00    +0.000 OA
ATOM     35  C   UNL     1      -3.823   3.214 131.463  0.00  0.00    +0.000 C 
ATOM     36  C   UNL     1      -2.859   3.588 132.542  0.00  0.00    +0.000 C 
BRANCH  33  37
ATOM     37  C   UNL     1      -4.781   3.820 128.781  0.00  0.00    +0.000 A 
ATOM     38  C   UNL     1      -5.573   2.726 128.422  0.00  0.00    +0.000 A 
ATOM     39  C   UNL     1      -5.193   1.928 127.356  0.00  0.00    +0.000 A 
ATOM     40  C   UNL     1      -4.035   2.246 126.656  0.00  0.00    +0.000 A 
ATOM     41  N   UNL     1      -3.238   3.330 126.998  0.00  0.00    +0.000 N 
ATOM     42  O   UNL     1      -2.210   3.576 126.291  0.00  0.00    +0.000 OA
ATOM     43  C   UNL     1      -3.594   4.121 128.085  0.00  0.00    +0.000 A 
ATOM     44  C   UNL     1      -2.688   5.257 128.427  0.00  0.00    +0.000 C 
ENDBRANCH  33  37
ENDBRANCH  28  29
ENDBRANCH   3  28
TORSDOF 6
ENDMDL
MODEL 7
REMARK VINA RESULT:      -9.7      2.844      5.565
REMARK  Name = CHEMBL65950
REMARK  8 active torsions:
REMARK  status: ('A' for Active; 'I' for Inactive)
REMARK    1  A    between atoms: C_1  and  O_2
REMARK    2  A    between atoms: O_2  and  C_3
REMARK    3  A    between atoms: C_5  and  O_6
REMARK    4  A    between atoms: O_6  and  C_7
REMARK    5  A    between atoms: C_11  and  C_13
REMARK    6  A    between atoms: C_19  and  C_20
REMARK    7  A    between atoms: C_25  and  C_26
REMARK    8  A    between atoms: C_31  and  N_32
REMARK                            x       y       z     vdW  Elec       q    Type
REMARK                         _______ _______ _______ _____ _____    ______ ____
ROOT
ATOM      1  C   UNL     1      -8.294   1.378 132.439  0.00  0.00    +0.000 A 
ATOM      2  C   UNL     1      -8.693   2.698 132.863  0.00  0.00    +0.000 A 
ATOM      3  C   UNL     1      -7.928   3.382 133.737  0.00  0.00    +0.000 A 
ATOM      4  C   UNL     1      -6.970   2.554 134.221  0.00  0.00    +0.000 A 
ATOM      5  C   UNL     1      -6.475   1.313 133.877  0.00  0.00    +0.000 A 
ATOM      6  C   UNL     1      -7.149   0.651 132.908  0.00  0.00    +0.000 A 
ENDROOT
BRANCH   6   7
ATOM      7  C   UNL     1      -6.572  -0.739 132.647  0.00  0.00    +0.000 C 
ATOM      8  O   UNL     1      -6.558  -1.538 133.596  0.00  0.00    +0.000 OA
ATOM      9  N   UNL     1      -6.184  -1.160 131.340  0.00  0.00    +0.000 N 
ATOM     10  C   UNL     1      -7.100  -2.104 130.635  0.00  0.00    +0.000 C 
ATOM     11  C   UNL     1      -6.366  -2.938 129.571  0.00  0.00    +0.000 C 
ATOM     12  C   UNL     1      -5.630  -2.086 128.123  0.00  0.00    +0.000 C 
ATOM     13  C   UNL     1      -4.688  -1.084 129.260  0.00  0.00    +0.000 C 
ATOM     14  C   UNL     1      -5.345  -0.316 130.453  0.00  0.00    +0.000 C 
BRANCH  12  15
ATOM     15  N   UNL     1      -6.644  -2.039 126.593  0.00  0.00    +0.000 N 
ATOM     16  C   UNL     1      -5.625  -1.293 126.010  0.00  0.00    +0.000 C 
ATOM     17  O   UNL     1      -5.061  -0.274 126.507  0.00  0.00    +0.000 OA
ATOM     18  O   UNL     1      -5.238  -1.847 124.879  0.00  0.00    +0.000 OA
ATOM     19  C   UNL     1      -6.294  -1.443 124.058  0.00  0.00    +0.000 C 
ATOM     20  C   UNL     1      -7.477  -2.277 124.579  0.00  0.00    +0.000 A 
ATOM     21  C   UNL     1      -8.378  -3.436 124.456  0.00  0.00    +0.000 A 
ATOM     22  C   UNL     1      -9.463  -3.471 123.555  0.00  0.00    +0.000 A 
ATOM     23  C   UNL     1      -9.644  -2.240 123.081  0.00  0.00    +0.000 A 
ATOM     24  C   UNL     1      -8.943  -1.240 124.047  0.00  0.00    +0.000 A 
ATOM     25  C   UNL     1      -7.961  -1.402 125.447  0.00  0.00    +0.000 A 
ENDBRANCH  12  15
ENDBRANCH   6   7
BRANCH   1  27
ATOM     26  C   UNL     1      -8.741   1.430 130.227  0.00  0.00    +0.000 C 
ATOM     27  O   UNL     1      -9.181   0.987 131.477  0.00  0.00    +0.000 OA
ENDBRANCH   1  27
BRANCH   3  28
ATOM     28  O   UNL     1      -8.057   4.698 134.055  0.00  0.00    +0.000 OA
BRANCH  28  29
ATOM     29  C   UNL     1      -7.607   5.815 133.189  0.00  0.00    +0.000 C 
ATOM     30  C   UNL     1      -8.542   6.218 132.017  0.00  0.00    +0.000 C 
ATOM     31  C   UNL     1      -8.458   5.261 130.856  0.00  0.00    +0.000 C 
ATOM     32  N   UNL     1      -6.964   4.953 130.535  0.00  0.00    +0.000 N 
ATOM     33  C   UNL     1      -6.672   4.695 129.199  0.00  0.00    +0.000 C 
ATOM     34  O   UNL     1      -7.481   4.821 128.287  0.00  0.00    +0.000 OA
ATOM     35  C   UNL     1      -5.904   4.741 131.671  0.00  0.00    +0.000 C 
ATOM     36  C   UNL     1      -6.125   5.734 132.766  0.00  0.00    +0.000 C 
BRANCH  33  37
ATOM     37  C   UNL     1      -5.274   4.374 128.853  0.00  0.00    +0.000 A 
ATOM     38  C   UNL     1      -5.014   3.033 128.557  0.00  0.00    +0.000 A 
ATOM     39  C   UNL     1      -3.742   2.653 128.169  0.00  0.00    +0.000 A 
ATOM     40  C   UNL     1      -2.751   3.622 128.065  0.00  0.00    +0.000 A 
ATOM     41  N   UNL     1      -2.991   4.959 128.353  0.00  0.00    +0.000 N 
ATOM     42  O   UNL     1      -2.043   5.793 128.204  0.00  0.00    +0.000 OA
ATOM     43  C   UNL     1      -4.259   5.348 128.772  0.00  0.00    +0.000 A 
ATOM     44  C   UNL     1      -4.456   6.792 129.095  0.00  0.00    +0.000 C 
ENDBRANCH  33  37
ENDBRANCH  28  29
ENDBRANCH   3  28
TORSDOF 6
ENDMDL
MODEL 8
REMARK VINA RESULT:      -9.6      3.774      6.638
REMARK  Name = CHEMBL65950
REMARK  8 active torsions:
REMARK  status: ('A' for Active; 'I' for Inactive)
REMARK    1  A    between atoms: C_1  and  O_2
REMARK    2  A    between atoms: O_2  and  C_3
REMARK    3  A    between atoms: C_5  and  O_6
REMARK    4  A    between atoms: O_6  and  C_7
REMARK    5  A    between atoms: C_11  and  C_13
REMARK    6  A    between atoms: C_19  and  C_20
REMARK    7  A    between atoms: C_25  and  C_26
REMARK    8  A    between atoms: C_31  and  N_32
REMARK                            x       y       z     vdW  Elec       q    Type
REMARK                         _______ _______ _______ _____ _____    ______ ____
ROOT
ATOM      1  C   UNL     1      -5.333   3.682 134.467  0.00  0.00    +0.000 A 
ATOM      2  C   UNL     1      -4.191   4.557 134.364  0.00  0.00    +0.000 A 
ATOM      3  C   UNL     1      -4.289   5.708 133.671  0.00  0.00    +0.000 A 
ATOM      4  C   UNL     1      -5.470   5.719 133.005  0.00  0.00    +0.000 A 
ATOM      5  C   UNL     1      -6.632   4.978 133.049  0.00  0.00    +0.000 A 
ATOM      6  C   UNL     1      -6.608   3.880 133.839  0.00  0.00    +0.000 A 
ENDROOT
BRANCH   6   7
ATOM      7  C   UNL     1      -7.911   3.086 133.768  0.00  0.00    +0.000 C 
ATOM      8  O   UNL     1      -8.928   3.615 134.243  0.00  0.00    +0.000 OA
ATOM      9  N   UNL     1      -8.000   1.845 133.068  0.00  0.00    +0.000 N 
ATOM     10  C   UNL     1      -8.682   1.866 131.741  0.00  0.00    +0.000 C 
ATOM     11  C   UNL     1      -9.249   0.487 131.360  0.00  0.00    +0.000 C 
ATOM     12  C   UNL     1      -8.091  -0.909 131.089  0.00  0.00    +0.000 C 
ATOM     13  C   UNL     1      -7.466  -0.640 132.738  0.00  0.00    +0.000 C 
ATOM     14  C   UNL     1      -6.999   0.763 133.246  0.00  0.00    +0.000 C 
BRANCH  12  15
ATOM     15  N   UNL     1      -7.600  -1.245 129.352  0.00  0.00    +0.000 N 
ATOM     16  C   UNL     1      -7.881  -2.585 129.592  0.00  0.00    +0.000 C 
ATOM     17  O   UNL     1      -7.480  -3.272 130.579  0.00  0.00    +0.000 OA
ATOM     18  O   UNL     1      -8.720  -3.049 128.689  0.00  0.00    +0.000 OA
ATOM     19  C   UNL     1      -7.835  -3.207 127.620  0.00  0.00    +0.000 C 
ATOM     20  C   UNL     1      -7.511  -1.756 127.222  0.00  0.00    +0.000 A 
ATOM     21  C   UNL     1      -7.715  -0.596 126.337  0.00  0.00    +0.000 A 
ATOM     22  C   UNL     1      -7.128  -0.496 125.057  0.00  0.00    +0.000 A 
ATOM     23  C   UNL     1      -6.218  -1.461 124.946  0.00  0.00    +0.000 A 
ATOM     24  C   UNL     1      -5.851  -1.950 126.377  0.00  0.00    +0.000 A 
ATOM     25  C   UNL     1      -6.422  -1.594 127.957  0.00  0.00    +0.000 A 
ENDBRANCH  12  15
ENDBRANCH   6   7
BRANCH   1  27
ATOM     26  C   UNL     1      -3.830   2.037 134.833  0.00  0.00    +0.000 C 
ATOM     27  O   UNL     1      -4.980   2.670 135.314  0.00  0.00    +0.000 OA
ENDBRANCH   1  27
BRANCH   3  28
ATOM     28  O   UNL     1      -3.381   6.722 133.669  0.00  0.00    +0.000 OA
BRANCH  28  29
ATOM     29  C   UNL     1      -2.385   6.949 132.595  0.00  0.00    +0.000 C 
ATOM     30  C   UNL     1      -2.650   8.135 131.628  0.00  0.00    +0.000 C 
ATOM     31  C   UNL     1      -3.709   7.818 130.603  0.00  0.00    +0.000 C 
ATOM     32  N   UNL     1      -3.443   6.411 129.988  0.00  0.00    +0.000 N 
ATOM     33  C   UNL     1      -3.832   6.245 128.663  0.00  0.00    +0.000 C 
ATOM     34  O   UNL     1      -4.238   7.157 127.952  0.00  0.00    +0.000 OA
ATOM     35  C   UNL     1      -2.964   5.205 130.869  0.00  0.00    +0.000 C 
ATOM     36  C   UNL     1      -1.943   5.668 131.857  0.00  0.00    +0.000 C 
BRANCH  33  37
ATOM     37  C   UNL     1      -3.621   4.921 128.047  0.00  0.00    +0.000 A 
ATOM     38  C   UNL     1      -2.339   4.685 127.542  0.00  0.00    +0.000 A 
ATOM     39  C   UNL     1      -2.036   3.449 126.996  0.00  0.00    +0.000 A 
ATOM     40  C   UNL     1      -3.015   2.463 126.978  0.00  0.00    +0.000 A 
ATOM     41  N   UNL     1      -4.293   2.680 127.476  0.00  0.00    +0.000 N 
ATOM     42  O   UNL     1      -5.126   1.719 127.453  0.00  0.00    +0.000 OA
ATOM     43  C   UNL     1      -4.617   3.926 128.000  0.00  0.00    +0.000 A 
ATOM     44  C   UNL     1      -6.012   4.114 128.497  0.00  0.00    +0.000 C 
ENDBRANCH  33  37
ENDBRANCH  28  29
ENDBRANCH   3  28
TORSDOF 6
ENDMDL
MODEL 9
REMARK VINA RESULT:      -9.5      3.155      5.848
REMARK  Name = CHEMBL65950
REMARK  8 active torsions:
REMARK  status: ('A' for Active; 'I' for Inactive)
REMARK    1  A    between atoms: C_1  and  O_2
REMARK    2  A    between atoms: O_2  and  C_3
REMARK    3  A    between atoms: C_5  and  O_6
REMARK    4  A    between atoms: O_6  and  C_7
REMARK    5  A    between atoms: C_11  and  C_13
REMARK    6  A    between atoms: C_19  and  C_20
REMARK    7  A    between atoms: C_25  and  C_26
REMARK    8  A    between atoms: C_31  and  N_32
REMARK                            x       y       z     vdW  Elec       q    Type
REMARK                         _______ _______ _______ _____ _____    ______ ____
ROOT
ATOM      1  C   UNL     1      -5.414  -0.123 133.293  0.00  0.00    +0.000 A 
ATOM      2  C   UNL     1      -5.384   1.184 133.903  0.00  0.00    +0.000 A 
ATOM      3  C   UNL     1      -6.474   1.974 133.850  0.00  0.00    +0.000 A 
ATOM      4  C   UNL     1      -7.379   1.415 133.008  0.00  0.00    +0.000 A 
ATOM      5  C   UNL     1      -7.536   0.183 132.408  0.00  0.00    +0.000 A 
ATOM      6  C   UNL     1      -6.507  -0.683 132.551  0.00  0.00    +0.000 A 
ENDROOT
BRANCH   6   7
ATOM      7  C   UNL     1      -6.740  -1.990 131.794  0.00  0.00    +0.000 C 
ATOM      8  O   UNL     1      -7.231  -2.936 132.428  0.00  0.00    +0.000 OA
ATOM      9  N   UNL     1      -6.532  -2.092 130.386  0.00  0.00    +0.000 N 
ATOM     10  C   UNL     1      -7.750  -2.115 129.524  0.00  0.00    +0.000 C 
ATOM     11  C   UNL     1      -7.489  -2.804 128.172  0.00  0.00    +0.000 C 
ATOM     12  C   UNL     1      -6.297  -2.046 127.002  0.00  0.00    +0.000 C 
ATOM     13  C   UNL     1      -5.063  -2.134 128.286  0.00  0.00    +0.000 C 
ATOM     14  C   UNL     1      -5.303  -1.580 129.729  0.00  0.00    +0.000 C 
BRANCH  12  15
ATOM     15  N   UNL     1      -7.002  -0.970 125.692  0.00  0.00    +0.000 N 
ATOM     16  C   UNL     1      -6.438  -1.834 124.759  0.00  0.00    +0.000 C 
ATOM     17  O   UNL     1      -5.243  -2.255 124.752  0.00  0.00    +0.000 OA
ATOM     18  O   UNL     1      -7.351  -2.250 123.906  0.00  0.00    +0.000 OA
ATOM     19  C   UNL     1      -7.449  -1.109 123.106  0.00  0.00    +0.000 C 
ATOM     20  C   UNL     1      -8.139  -0.094 124.034  0.00  0.00    +0.000 A 
ATOM     21  C   UNL     1      -9.349   0.621 124.474  0.00  0.00    +0.000 A 
ATOM     22  C   UNL     1      -9.881   1.728 123.777  0.00  0.00    +0.000 A 
ATOM     23  C   UNL     1      -8.981   2.117 122.877  0.00  0.00    +0.000 A 
ATOM     24  C   UNL     1      -7.597   1.537 123.290  0.00  0.00    +0.000 A 
ATOM     25  C   UNL     1      -7.054   0.480 124.530  0.00  0.00    +0.000 A 
ENDBRANCH  12  15
ENDBRANCH   6   7
BRANCH   1  27
ATOM     26  C   UNL     1      -3.178   0.168 133.412  0.00  0.00    +0.000 C 
ATOM     27  O   UNL     1      -4.231  -0.731 133.604  0.00  0.00    +0.000 OA
ENDBRANCH   1  27
BRANCH   3  28
ATOM     28  O   UNL     1      -6.668   3.122 134.555  0.00  0.00    +0.000 OA
BRANCH  28  29
ATOM     29  C   UNL     1      -6.428   4.483 134.018  0.00  0.00    +0.000 C 
ATOM     30  C   UNL     1      -7.580   5.131 133.204  0.00  0.00    +0.000 C 
ATOM     31  C   UNL     1      -7.680   4.578 131.805  0.00  0.00    +0.000 C 
ATOM     32  N   UNL     1      -6.263   4.519 131.159  0.00  0.00    +0.000 N 
ATOM     33  C   UNL     1      -6.217   4.702 129.781  0.00  0.00    +0.000 C 
ATOM     34  O   UNL     1      -7.186   5.021 129.102  0.00  0.00    +0.000 OA
ATOM     35  C   UNL     1      -5.002   4.075 131.979  0.00  0.00    +0.000 C 
ATOM     36  C   UNL     1      -5.050   4.668 133.350  0.00  0.00    +0.000 C 
BRANCH  33  37
ATOM     37  C   UNL     1      -4.898   4.630 129.123  0.00  0.00    +0.000 A 
ATOM     38  C   UNL     1      -4.596   3.416 128.501  0.00  0.00    +0.000 A 
ATOM     39  C   UNL     1      -3.403   3.278 127.813  0.00  0.00    +0.000 A 
ATOM     40  C   UNL     1      -2.536   4.363 127.744  0.00  0.00    +0.000 A 
ATOM     41  N   UNL     1      -2.820   5.577 128.355  0.00  0.00    +0.000 N 
ATOM     42  O   UNL     1      -1.993   6.533 128.221  0.00  0.00    +0.000 OA
ATOM     43  C   UNL     1      -4.003   5.717 129.073  0.00  0.00    +0.000 A 
ATOM     44  C   UNL     1      -4.247   7.033 129.733  0.00  0.00    +0.000 C 
ENDBRANCH  33  37
ENDBRANCH  28  29
ENDBRANCH   3  28
TORSDOF 6
ENDMDL
