MODEL 1
REMARK VINA RESULT:      -9.3      0.000      0.000
REMARK  Name = CHEMBL2035013
REMARK  13 active torsions:
REMARK  status: ('A' for Active; 'I' for Inactive)
REMARK    1  A    between atoms: C_1  and  O_2
REMARK    2  A    between atoms: O_2  and  C_3
REMARK    3  A    between atoms: C_8  and  C_9
REMARK    4  A    between atoms: C_9  and  C_10
REMARK    5  A    between atoms: C_9  and  N_16
REMARK    6  A    between atoms: N_12  and  C_13
REMARK    7  A    between atoms: C_13  and  C_14
REMARK    8  A    between atoms: C_13  and  C_15
REMARK    9  A    between atoms: C_19  and  C_20
REMARK   10  A    between atoms: CA_32  and  CB_33
REMARK   11  A    between atoms: CB_33  and  CG_34
REMARK   12  A    between atoms: CG_34  and  CD1_35
REMARK   13  A    between atoms: CG_34  and  CD2_36
REMARK                            x       y       z     vdW  Elec       q    Type
REMARK                         _______ _______ _______ _____ _____    ______ ____
ROOT
ATOM      1  N   LEU A   1      -7.199   4.158 131.107  0.00  0.00    +0.000 N 
ATOM      2  C   UNK A   2      -8.089   4.876 130.380  0.00  0.00    +0.000 C 
ATOM      3  O   UNK A   2      -7.978   4.930 129.139  0.00  0.00    +0.000 OA
ATOM      4  C   UNK A   2      -9.143   5.693 131.169  0.00  0.00    +0.000 C 
ATOM      5  N   UNK A   2      -9.786   4.787 132.092  0.00  0.00    +0.000 N 
ATOM      6  C   LEU A   1      -9.041   4.067 132.947  0.00  0.00    +0.000 C 
ATOM      7  O   LEU A   1      -9.539   3.661 134.020  0.00  0.00    +0.000 OA
ATOM      8  CA  LEU A   1      -7.616   3.785 132.541  0.00  0.00    +0.000 C 
ATOM      9  H   UNK A   2     -10.736   4.910 132.412  0.00  0.00    +0.000 HD
ENDROOT
BRANCH   4  10
ATOM     10  C   UNK A   2     -10.037   6.151 130.052  0.00  0.00    +0.000 C 
ATOM     11  C   UNK A   2      -9.788   7.678 129.774  0.00  0.00    +0.000 C 
ATOM     12  C   UNK A   2     -11.010   8.026 128.966  0.00  0.00    +0.000 A 
ATOM     13  C   UNK A   2     -12.199   8.642 129.368  0.00  0.00    +0.000 A 
ATOM     14  C   UNK A   2     -13.354   8.469 128.569  0.00  0.00    +0.000 A 
ATOM     15  C   UNK A   2     -13.180   7.925 127.324  0.00  0.00    +0.000 A 
ATOM     16  C   UNK A   2     -12.092   7.083 127.247  0.00  0.00    +0.000 A 
ATOM     17  C   UNK A   2     -11.364   6.842 128.407  0.00  0.00    +0.000 A 
ATOM     18  C   UNK A   2     -11.533   6.105 129.901  0.00  0.00    +0.000 C 
ENDBRANCH   4  10
BRANCH   1  19
ATOM     19  C   UNK A   0      -5.960   3.596 130.398  0.00  0.00    +0.000 C 
BRANCH  19  25
ATOM     20  C   UNK A   0      -4.083   5.686 129.992  0.00  0.00    +0.000 A 
ATOM     21  C   UNK A   0      -2.658   6.049 130.344  0.00  0.00    +0.000 A 
ATOM     22  C   UNK A   0      -1.887   5.406 131.285  0.00  0.00    +0.000 A 
ATOM     23  C   UNK A   0      -2.668   4.654 132.035  0.00  0.00    +0.000 A 
ATOM     24  C   UNK A   0      -3.968   4.296 131.512  0.00  0.00    +0.000 A 
ATOM     25  C   UNK A   0      -4.785   4.658 130.541  0.00  0.00    +0.000 A 
BRANCH  20  27
ATOM     26  C   UNK A   0      -3.527   6.905 128.210  0.00  0.00    +0.000 C 
ATOM     27  O   UNK A   0      -4.599   6.398 128.972  0.00  0.00    +0.000 OA
ENDBRANCH  20  27
ENDBRANCH  19  25
BRANCH  19  28
ATOM     28  C   UNK A   0      -5.730   2.761 129.104  0.00  0.00    +0.000 C 
ATOM     29  O   UNK A   0      -5.715   1.581 129.165  0.00  0.00    +0.000 OA
ATOM     30  N   UNK A   0      -5.383   3.485 127.973  0.00  0.00    +0.000 N 
ATOM     31  H   UNK A   0      -5.888   4.352 127.811  0.00  0.00    +0.000 HD
BRANCH  30  32
ATOM     32  C   UNK A   0      -4.321   3.074 127.084  0.00  0.00    +0.000 C 
ATOM     33  C   UNK A   0      -4.298   3.870 125.788  0.00  0.00    +0.000 C 
ATOM     34  C   UNK A   0      -3.014   3.191 127.833  0.00  0.00    +0.000 C 
ENDBRANCH  30  32
ENDBRANCH  19  28
ENDBRANCH   1  19
BRANCH   8  35
ATOM     35  CB  LEU A   1      -7.463   2.137 133.210  0.00  0.00    +0.000 C 
BRANCH  35  36
ATOM     36  CG  LEU A   1      -7.852   0.482 132.287  0.00  0.00    +0.000 C 
ATOM     37  CD1 LEU A   1      -7.643  -1.263 132.833  0.00  0.00    +0.000 C 
ATOM     38  CD2 LEU A   1      -9.286   0.504 131.729  0.00  0.00    +0.000 C 
ENDBRANCH  35  36
ENDBRANCH   8  35
TORSDOF 8
ENDMDL
MODEL 2
REMARK VINA RESULT:      -9.2      4.205      7.863
REMARK  Name = CHEMBL2035013
REMARK  13 active torsions:
REMARK  status: ('A' for Active; 'I' for Inactive)
REMARK    1  A    between atoms: C_1  and  O_2
REMARK    2  A    between atoms: O_2  and  C_3
REMARK    3  A    between atoms: C_8  and  C_9
REMARK    4  A    between atoms: C_9  and  C_10
REMARK    5  A    between atoms: C_9  and  N_16
REMARK    6  A    between atoms: N_12  and  C_13
REMARK    7  A    between atoms: C_13  and  C_14
REMARK    8  A    between atoms: C_13  and  C_15
REMARK    9  A    between atoms: C_19  and  C_20
REMARK   10  A    between atoms: CA_32  and  CB_33
REMARK   11  A    between atoms: CB_33  and  CG_34
REMARK   12  A    between atoms: CG_34  and  CD1_35
REMARK   13  A    between atoms: CG_34  and  CD2_36
REMARK                            x       y       z     vdW  Elec       q    Type
REMARK                         _______ _______ _______ _____ _____    ______ ____
ROOT
ATOM      1  N   LEU A   1      -7.354   1.669 126.836  0.00  0.00    +0.000 N 
ATOM      2  C   UNK A   2      -7.664   1.919 128.131  0.00  0.00    +0.000 C 
ATOM      3  O   UNK A   2      -7.454   1.049 128.999  0.00  0.00    +0.000 OA
ATOM      4  C   UNK A   2      -8.382   3.258 128.436  0.00  0.00    +0.000 C 
ATOM      5  N   UNK A   2      -7.593   4.312 127.844  0.00  0.00    +0.000 N 
ATOM      6  C   LEU A   1      -7.278   4.257 126.539  0.00  0.00    +0.000 C 
ATOM      7  O   LEU A   1      -7.029   5.309 125.911  0.00  0.00    +0.000 OA
ATOM      8  CA  LEU A   1      -7.239   2.889 125.903  0.00  0.00    +0.000 C 
ATOM      9  H   UNK A   2      -7.568   5.253 128.210  0.00  0.00    +0.000 HD
ENDROOT
BRANCH   4  10
ATOM     10  C   UNK A   2      -8.355   3.255 129.939  0.00  0.00    +0.000 C 
ATOM     11  C   UNK A   2      -9.779   3.629 130.489  0.00  0.00    +0.000 C 
ATOM     12  C   UNK A   2      -9.453   3.973 131.918  0.00  0.00    +0.000 A 
ATOM     13  C   UNK A   2      -9.268   5.224 132.513  0.00  0.00    +0.000 A 
ATOM     14  C   UNK A   2      -8.548   5.295 133.730  0.00  0.00    +0.000 A 
ATOM     15  C   UNK A   2      -8.298   4.116 134.379  0.00  0.00    +0.000 A 
ATOM     16  C   UNK A   2      -8.212   3.035 133.528  0.00  0.00    +0.000 A 
ATOM     17  C   UNK A   2      -8.323   3.265 132.162  0.00  0.00    +0.000 A 
ATOM     18  C   UNK A   2      -7.497   4.014 130.913  0.00  0.00    +0.000 C 
ENDBRANCH   4  10
BRANCH   1  19
ATOM     19  C   UNK A   0      -6.939   0.245 126.444  0.00  0.00    +0.000 C 
BRANCH  19  25
ATOM     20  C   UNK A   0      -8.731  -0.267 124.303  0.00  0.00    +0.000 A 
ATOM     21  C   UNK A   0      -8.834  -1.115 123.056  0.00  0.00    +0.000 A 
ATOM     22  C   UNK A   0      -7.791  -1.803 122.478  0.00  0.00    +0.000 A 
ATOM     23  C   UNK A   0      -6.657  -1.362 122.984  0.00  0.00    +0.000 A 
ATOM     24  C   UNK A   0      -6.707  -0.660 124.248  0.00  0.00    +0.000 A 
ATOM     25  C   UNK A   0      -7.599  -0.092 125.037  0.00  0.00    +0.000 A 
BRANCH  20  27
ATOM     26  C   UNK A   0     -10.154   1.426 124.028  0.00  0.00    +0.000 C 
ATOM     27  O   UNK A   0      -9.907   0.231 124.733  0.00  0.00    +0.000 OA
ENDBRANCH  20  27
ENDBRANCH  19  25
BRANCH  19  28
ATOM     28  C   UNK A   0      -6.721  -1.080 127.231  0.00  0.00    +0.000 C 
ATOM     29  O   UNK A   0      -5.634  -1.536 127.318  0.00  0.00    +0.000 OA
ATOM     30  N   UNK A   0      -7.874  -1.736 127.639  0.00  0.00    +0.000 N 
ATOM     31  H   UNK A   0      -8.620  -1.158 128.018  0.00  0.00    +0.000 HD
BRANCH  30  32
ATOM     32  C   UNK A   0      -8.049  -3.162 127.492  0.00  0.00    +0.000 C 
ATOM     33  C   UNK A   0      -8.772  -3.791 128.673  0.00  0.00    +0.000 C 
ATOM     34  C   UNK A   0      -8.783  -3.411 126.194  0.00  0.00    +0.000 C 
ENDBRANCH  30  32
ENDBRANCH  19  28
ENDBRANCH   1  19
BRANCH   8  35
ATOM     35  CB  LEU A   1      -5.869   3.146 124.789  0.00  0.00    +0.000 C 
BRANCH  35  36
ATOM     36  CG  LEU A   1      -5.977   3.769 122.960  0.00  0.00    +0.000 C 
ATOM     37  CD1 LEU A   1      -4.704   4.563 121.896  0.00  0.00    +0.000 C 
ATOM     38  CD2 LEU A   1      -6.553   2.667 122.052  0.00  0.00    +0.000 C 
ENDBRANCH  35  36
ENDBRANCH   8  35
TORSDOF 8
ENDMDL
MODEL 3
REMARK VINA RESULT:      -9.1      1.686      2.452
REMARK  Name = CHEMBL2035013
REMARK  13 active torsions:
REMARK  status: ('A' for Active; 'I' for Inactive)
REMARK    1  A    between atoms: C_1  and  O_2
REMARK    2  A    between atoms: O_2  and  C_3
REMARK    3  A    between atoms: C_8  and  C_9
REMARK    4  A    between atoms: C_9  and  C_10
REMARK    5  A    between atoms: C_9  and  N_16
REMARK    6  A    between atoms: N_12  and  C_13
REMARK    7  A    between atoms: C_13  and  C_14
REMARK    8  A    between atoms: C_13  and  C_15
REMARK    9  A    between atoms: C_19  and  C_20
REMARK   10  A    between atoms: CA_32  and  CB_33
REMARK   11  A    between atoms: CB_33  and  CG_34
REMARK   12  A    between atoms: CG_34  and  CD1_35
REMARK   13  A    between atoms: CG_34  and  CD2_36
REMARK                            x       y       z     vdW  Elec       q    Type
REMARK                         _______ _______ _______ _____ _____    ______ ____
ROOT
ATOM      1  N   LEU A   1      -8.358   3.977 130.543  0.00  0.00    +0.000 N 
ATOM      2  C   UNK A   2      -9.126   5.054 130.252  0.00  0.00    +0.000 C 
ATOM      3  O   UNK A   2      -9.471   5.270 129.073  0.00  0.00    +0.000 OA
ATOM      4  C   UNK A   2      -9.437   6.030 131.414  0.00  0.00    +0.000 C 
ATOM      5  N   UNK A   2      -9.974   5.246 132.501  0.00  0.00    +0.000 N 
ATOM      6  C   LEU A   1      -9.282   4.194 132.969  0.00  0.00    +0.000 C 
ATOM      7  O   LEU A   1      -9.459   3.803 134.144  0.00  0.00    +0.000 OA
ATOM      8  CA  LEU A   1      -8.318   3.532 132.017  0.00  0.00    +0.000 C 
ATOM      9  H   UNK A   2     -10.623   5.619 133.180  0.00  0.00    +0.000 HD
ENDROOT
BRANCH   4  10
ATOM     10  C   UNK A   2     -10.448   6.931 130.762  0.00  0.00    +0.000 C 
ATOM     11  C   UNK A   2     -11.895   6.390 131.052  0.00  0.00    +0.000 C 
ATOM     12  C   UNK A   2     -12.693   7.138 130.017  0.00  0.00    +0.000 A 
ATOM     13  C   UNK A   2     -13.152   6.713 128.766  0.00  0.00    +0.000 A 
ATOM     14  C   UNK A   2     -13.483   7.691 127.798  0.00  0.00    +0.000 A 
ATOM     15  C   UNK A   2     -13.577   8.989 128.226  0.00  0.00    +0.000 A 
ATOM     16  C   UNK A   2     -12.775   9.262 129.313  0.00  0.00    +0.000 A 
ATOM     17  C   UNK A   2     -11.951   8.251 129.792  0.00  0.00    +0.000 A 
ATOM     18  C   UNK A   2     -10.615   7.354 129.329  0.00  0.00    +0.000 C 
ENDBRANCH   4  10
BRANCH   1  19
ATOM     19  C   UNK A   0      -7.766   3.165 129.384  0.00  0.00    +0.000 C 
BRANCH  19  25
ATOM     20  C   UNK A   0      -5.233   4.415 129.104  0.00  0.00    +0.000 A 
ATOM     21  C   UNK A   0      -3.842   4.113 128.596  0.00  0.00    +0.000 A 
ATOM     22  C   UNK A   0      -3.368   2.859 128.283  0.00  0.00    +0.000 A 
ATOM     23  C   UNK A   0      -4.186   1.956 128.785  0.00  0.00    +0.000 A 
ATOM     24  C   UNK A   0      -5.530   2.373 129.123  0.00  0.00    +0.000 A 
ATOM     25  C   UNK A   0      -6.212   3.489 129.296  0.00  0.00    +0.000 A 
BRANCH  20  27
ATOM     26  C   UNK A   0      -5.373   6.046 130.617  0.00  0.00    +0.000 C 
ATOM     27  O   UNK A   0      -5.497   5.728 129.249  0.00  0.00    +0.000 OA
ENDBRANCH  20  27
ENDBRANCH  19  25
BRANCH  19  28
ATOM     28  C   UNK A   0      -8.276   2.752 127.972  0.00  0.00    +0.000 C 
ATOM     29  O   UNK A   0      -8.888   1.749 127.842  0.00  0.00    +0.000 OA
ATOM     30  N   UNK A   0      -7.818   3.525 126.915  0.00  0.00    +0.000 N 
ATOM     31  H   UNK A   0      -7.795   4.531 127.060  0.00  0.00    +0.000 HD
BRANCH  30  32
ATOM     32  C   UNK A   0      -7.339   2.948 125.681  0.00  0.00    +0.000 C 
ATOM     33  C   UNK A   0      -8.207   3.309 124.486  0.00  0.00    +0.000 C 
ATOM     34  C   UNK A   0      -5.908   3.391 125.483  0.00  0.00    +0.000 C 
ENDBRANCH  30  32
ENDBRANCH  19  28
ENDBRANCH   1  19
BRANCH   8  35
ATOM     35  CB  LEU A   1      -8.540   1.839 132.537  0.00  0.00    +0.000 C 
BRANCH  35  36
ATOM     36  CG  LEU A   1      -7.579   0.298 131.872  0.00  0.00    +0.000 C 
ATOM     37  CD1 LEU A   1      -7.647  -0.530 130.230  0.00  0.00    +0.000 C 
ATOM     38  CD2 LEU A   1      -6.068   0.461 132.118  0.00  0.00    +0.000 C 
ENDBRANCH  35  36
ENDBRANCH   8  35
TORSDOF 8
ENDMDL
MODEL 4
REMARK VINA RESULT:      -9.0      2.222      3.121
REMARK  Name = CHEMBL2035013
REMARK  13 active torsions:
REMARK  status: ('A' for Active; 'I' for Inactive)
REMARK    1  A    between atoms: C_1  and  O_2
REMARK    2  A    between atoms: O_2  and  C_3
REMARK    3  A    between atoms: C_8  and  C_9
REMARK    4  A    between atoms: C_9  and  C_10
REMARK    5  A    between atoms: C_9  and  N_16
REMARK    6  A    between atoms: N_12  and  C_13
REMARK    7  A    between atoms: C_13  and  C_14
REMARK    8  A    between atoms: C_13  and  C_15
REMARK    9  A    between atoms: C_19  and  C_20
REMARK   10  A    between atoms: CA_32  and  CB_33
REMARK   11  A    between atoms: CB_33  and  CG_34
REMARK   12  A    between atoms: CG_34  and  CD1_35
REMARK   13  A    between atoms: CG_34  and  CD2_36
REMARK                            x       y       z     vdW  Elec       q    Type
REMARK                         _______ _______ _______ _____ _____    ______ ____
ROOT
ATOM      1  N   LEU A   1      -7.499   2.903 128.740  0.00  0.00    +0.000 N 
ATOM      2  C   UNK A   2      -8.227   4.039 128.614  0.00  0.00    +0.000 C 
ATOM      3  O   UNK A   2      -8.323   4.595 127.502  0.00  0.00    +0.000 OA
ATOM      4  C   UNK A   2      -8.812   4.645 129.915  0.00  0.00    +0.000 C 
ATOM      5  N   UNK A   2      -9.538   3.595 130.589  0.00  0.00    +0.000 N 
ATOM      6  C   LEU A   1      -8.922   2.434 130.871  0.00  0.00    +0.000 C 
ATOM      7  O   LEU A   1      -9.329   1.726 131.818  0.00  0.00    +0.000 OA
ATOM      8  CA  LEU A   1      -7.755   2.051 129.996  0.00  0.00    +0.000 C 
ATOM      9  H   UNK A   2     -10.328   3.773 131.193  0.00  0.00    +0.000 HD
ENDROOT
BRANCH   4  10
ATOM     10  C   UNK A   2      -9.695   5.723 129.350  0.00  0.00    +0.000 C 
ATOM     11  C   UNK A   2      -9.462   7.060 130.143  0.00  0.00    +0.000 C 
ATOM     12  C   UNK A   2     -10.676   7.851 129.732  0.00  0.00    +0.000 A 
ATOM     13  C   UNK A   2     -11.879   8.054 130.414  0.00  0.00    +0.000 A 
ATOM     14  C   UNK A   2     -13.020   8.446 129.673  0.00  0.00    +0.000 A 
ATOM     15  C   UNK A   2     -12.818   8.847 128.379  0.00  0.00    +0.000 A 
ATOM     16  C   UNK A   2     -11.718   8.260 127.793  0.00  0.00    +0.000 A 
ATOM     17  C   UNK A   2     -11.005   7.320 128.529  0.00  0.00    +0.000 A 
ATOM     18  C   UNK A   2     -11.187   5.786 129.174  0.00  0.00    +0.000 C 
ENDBRANCH   4  10
BRANCH   1  19
ATOM     19  C   UNK A   0      -6.646   2.445 127.549  0.00  0.00    +0.000 C 
BRANCH  19  25
ATOM     20  C   UNK A   0      -4.566   4.362 127.784  0.00  0.00    +0.000 A 
ATOM     21  C   UNK A   0      -3.177   4.636 127.255  0.00  0.00    +0.000 A 
ATOM     22  C   UNK A   0      -2.400   3.732 126.567  0.00  0.00    +0.000 A 
ATOM     23  C   UNK A   0      -2.914   2.527 126.717  0.00  0.00    +0.000 A 
ATOM     24  C   UNK A   0      -4.298   2.427 127.124  0.00  0.00    +0.000 A 
ATOM     25  C   UNK A   0      -5.245   3.194 127.628  0.00  0.00    +0.000 A 
BRANCH  20  27
ATOM     26  C   UNK A   0      -4.902   5.406 129.726  0.00  0.00    +0.000 C 
ATOM     27  O   UNK A   0      -5.167   5.432 128.341  0.00  0.00    +0.000 OA
ENDBRANCH  20  27
ENDBRANCH  19  25
BRANCH  19  28
ATOM     28  C   UNK A   0      -6.950   2.097 126.063  0.00  0.00    +0.000 C 
ATOM     29  O   UNK A   0      -6.959   0.967 125.717  0.00  0.00    +0.000 OA
ATOM     30  N   UNK A   0      -7.023   3.177 125.194  0.00  0.00    +0.000 N 
ATOM     31  H   UNK A   0      -7.517   4.000 125.526  0.00  0.00    +0.000 HD
BRANCH  30  32
ATOM     32  C   UNK A   0      -6.387   3.173 123.897  0.00  0.00    +0.000 C 
ATOM     33  C   UNK A   0      -7.386   3.221 122.751  0.00  0.00    +0.000 C 
ATOM     34  C   UNK A   0      -5.425   4.337 123.845  0.00  0.00    +0.000 C 
ENDBRANCH  30  32
ENDBRANCH  19  28
ENDBRANCH   1  19
BRANCH   8  35
ATOM     35  CB  LEU A   1      -8.020   0.286 129.948  0.00  0.00    +0.000 C 
BRANCH  35  36
ATOM     36  CG  LEU A   1      -7.218  -0.962 128.705  0.00  0.00    +0.000 C 
ATOM     37  CD1 LEU A   1      -5.461  -1.179 128.204  0.00  0.00    +0.000 C 
ATOM     38  CD2 LEU A   1      -7.670  -2.398 129.023  0.00  0.00    +0.000 C 
ENDBRANCH  35  36
ENDBRANCH   8  35
TORSDOF 8
ENDMDL
MODEL 5
REMARK VINA RESULT:      -9.0      2.762      4.522
REMARK  Name = CHEMBL2035013
REMARK  13 active torsions:
REMARK  status: ('A' for Active; 'I' for Inactive)
REMARK    1  A    between atoms: C_1  and  O_2
REMARK    2  A    between atoms: O_2  and  C_3
REMARK    3  A    between atoms: C_8  and  C_9
REMARK    4  A    between atoms: C_9  and  C_10
REMARK    5  A    between atoms: C_9  and  N_16
REMARK    6  A    between atoms: N_12  and  C_13
REMARK    7  A    between atoms: C_13  and  C_14
REMARK    8  A    between atoms: C_13  and  C_15
REMARK    9  A    between atoms: C_19  and  C_20
REMARK   10  A    between atoms: CA_32  and  CB_33
REMARK   11  A    between atoms: CB_33  and  CG_34
REMARK   12  A    between atoms: CG_34  and  CD1_35
REMARK   13  A    between atoms: CG_34  and  CD2_36
REMARK                            x       y       z     vdW  Elec       q    Type
REMARK                         _______ _______ _______ _____ _____    ______ ____
ROOT
ATOM      1  N   LEU A   1      -7.259   1.957 129.818  0.00  0.00    +0.000 N 
ATOM      2  C   UNK A   2      -7.985   3.102 129.805  0.00  0.00    +0.000 C 
ATOM      3  O   UNK A   2      -7.887   3.888 128.842  0.00  0.00    +0.000 OA
ATOM      4  C   UNK A   2      -8.821   3.419 131.071  0.00  0.00    +0.000 C 
ATOM      5  N   UNK A   2      -9.628   2.256 131.354  0.00  0.00    +0.000 N 
ATOM      6  C   LEU A   1      -9.043   1.054 131.490  0.00  0.00    +0.000 C 
ATOM      7  O   LEU A   1      -9.598   0.162 132.167  0.00  0.00    +0.000 OA
ATOM      8  CA  LEU A   1      -7.722   0.856 130.790  0.00  0.00    +0.000 C 
ATOM      9  H   UNK A   2     -10.523   2.308 131.820  0.00  0.00    +0.000 HD
ENDROOT
BRANCH   4  10
ATOM     10  C   UNK A   2      -9.613   4.604 130.595  0.00  0.00    +0.000 C 
ATOM     11  C   UNK A   2      -9.454   5.786 131.619  0.00  0.00    +0.000 C 
ATOM     12  C   UNK A   2     -10.598   6.675 131.210  0.00  0.00    +0.000 A 
ATOM     13  C   UNK A   2     -11.870   6.807 131.775  0.00  0.00    +0.000 A 
ATOM     14  C   UNK A   2     -12.909   7.354 130.983  0.00  0.00    +0.000 A 
ATOM     15  C   UNK A   2     -12.550   7.952 129.805  0.00  0.00    +0.000 A 
ATOM     16  C   UNK A   2     -11.397   7.430 129.259  0.00  0.00    +0.000 A 
ATOM     17  C   UNK A   2     -10.791   6.358 129.906  0.00  0.00    +0.000 A 
ATOM     18  C   UNK A   2     -11.073   4.747 130.264  0.00  0.00    +0.000 C 
ENDBRANCH   4  10
BRANCH   1  19
ATOM     19  C   UNK A   0      -6.186   1.759 128.741  0.00  0.00    +0.000 C 
BRANCH  19  25
ATOM     20  C   UNK A   0      -7.801   0.251 126.960  0.00  0.00    +0.000 A 
ATOM     21  C   UNK A   0      -7.930  -1.156 126.421  0.00  0.00    +0.000 A 
ATOM     22  C   UNK A   0      -6.983  -2.145 126.556  0.00  0.00    +0.000 A 
ATOM     23  C   UNK A   0      -5.846  -1.598 126.939  0.00  0.00    +0.000 A 
ATOM     24  C   UNK A   0      -5.896  -0.284 127.543  0.00  0.00    +0.000 A 
ATOM     25  C   UNK A   0      -6.743   0.719 127.674  0.00  0.00    +0.000 A 
BRANCH  20  27
ATOM     26  C   UNK A   0      -9.455   0.692 125.531  0.00  0.00    +0.000 C 
ATOM     27  O   UNK A   0      -8.899   1.013 126.786  0.00  0.00    +0.000 OA
ENDBRANCH  20  27
ENDBRANCH  19  25
BRANCH  19  28
ATOM     28  C   UNK A   0      -4.631   1.685 128.753  0.00  0.00    +0.000 C 
ATOM     29  O   UNK A   0      -4.072   1.299 129.720  0.00  0.00    +0.000 OA
ATOM     30  N   UNK A   0      -3.992   2.252 127.660  0.00  0.00    +0.000 N 
ATOM     31  H   UNK A   0      -4.398   2.071 126.747  0.00  0.00    +0.000 HD
BRANCH  30  32
ATOM     32  C   UNK A   0      -2.835   3.107 127.795  0.00  0.00    +0.000 C 
ATOM     33  C   UNK A   0      -1.890   3.011 126.608  0.00  0.00    +0.000 C 
ATOM     34  C   UNK A   0      -3.323   4.523 128.005  0.00  0.00    +0.000 C 
ENDBRANCH  30  32
ENDBRANCH  19  28
ENDBRANCH   1  19
BRANCH   8  35
ATOM     35  CB  LEU A   1      -7.921  -0.853 130.312  0.00  0.00    +0.000 C 
BRANCH  35  36
ATOM     36  CG  LEU A   1      -6.733  -2.315 130.755  0.00  0.00    +0.000 C 
ATOM     37  CD1 LEU A   1      -6.523  -3.960 129.959  0.00  0.00    +0.000 C 
ATOM     38  CD2 LEU A   1      -5.287  -1.807 130.895  0.00  0.00    +0.000 C 
ENDBRANCH  35  36
ENDBRANCH   8  35
TORSDOF 8
ENDMDL
MODEL 6
REMARK VINA RESULT:      -9.0      1.741      2.293
REMARK  Name = CHEMBL2035013
REMARK  13 active torsions:
REMARK  status: ('A' for Active; 'I' for Inactive)
REMARK    1  A    between atoms: C_1  and  O_2
REMARK    2  A    between atoms: O_2  and  C_3
REMARK    3  A    between atoms: C_8  and  C_9
REMARK    4  A    between atoms: C_9  and  C_10
REMARK    5  A    between atoms: C_9  and  N_16
REMARK    6  A    between atoms: N_12  and  C_13
REMARK    7  A    between atoms: C_13  and  C_14
REMARK    8  A    between atoms: C_13  and  C_15
REMARK    9  A    between atoms: C_19  and  C_20
REMARK   10  A    between atoms: CA_32  and  CB_33
REMARK   11  A    between atoms: CB_33  and  CG_34
REMARK   12  A    between atoms: CG_34  and  CD1_35
REMARK   13  A    between atoms: CG_34  and  CD2_36
REMARK                            x       y       z     vdW  Elec       q    Type
REMARK                         _______ _______ _______ _____ _____    ______ ____
ROOT
ATOM      1  N   LEU A   1      -7.734   3.854 130.476  0.00  0.00    +0.000 N 
ATOM      2  C   UNK A   2      -8.660   4.632 129.865  0.00  0.00    +0.000 C 
ATOM      3  O   UNK A   2      -8.912   4.464 128.656  0.00  0.00    +0.000 OA
ATOM      4  C   UNK A   2      -9.275   5.781 130.703  0.00  0.00    +0.000 C 
ATOM      5  N   UNK A   2      -9.764   5.202 131.932  0.00  0.00    +0.000 N 
ATOM      6  C   LEU A   1      -8.937   4.476 132.702  0.00  0.00    +0.000 C 
ATOM      7  O   LEU A   1      -9.159   4.367 133.928  0.00  0.00    +0.000 OA
ATOM      8  CA  LEU A   1      -7.767   3.816 132.015  0.00  0.00    +0.000 C 
ATOM      9  H   UNK A   2     -10.541   5.586 132.451  0.00  0.00    +0.000 HD
ENDROOT
BRANCH   4  10
ATOM     10  C   UNK A   2     -10.366   6.249 129.781  0.00  0.00    +0.000 C 
ATOM     11  C   UNK A   2      -9.958   7.628 129.145  0.00  0.00    +0.000 C 
ATOM     12  C   UNK A   2     -11.286   8.105 128.621  0.00  0.00    +0.000 A 
ATOM     13  C   UNK A   2     -12.190   9.015 129.179  0.00  0.00    +0.000 A 
ATOM     14  C   UNK A   2     -13.539   8.978 128.751  0.00  0.00    +0.000 A 
ATOM     15  C   UNK A   2     -13.823   8.230 127.640  0.00  0.00    +0.000 A 
ATOM     16  C   UNK A   2     -12.959   7.171 127.462  0.00  0.00    +0.000 A 
ATOM     17  C   UNK A   2     -11.977   6.956 128.422  0.00  0.00    +0.000 A 
ATOM     18  C   UNK A   2     -11.827   6.503 130.027  0.00  0.00    +0.000 C 
ENDBRANCH   4  10
BRANCH   1  19
ATOM     19  C   UNK A   0      -6.876   2.921 129.611  0.00  0.00    +0.000 C 
BRANCH  19  25
ATOM     20  C   UNK A   0      -5.390   4.443 127.732  0.00  0.00    +0.000 A 
ATOM     21  C   UNK A   0      -3.957   4.738 127.354  0.00  0.00    +0.000 A 
ATOM     22  C   UNK A   0      -2.856   4.425 128.119  0.00  0.00    +0.000 A 
ATOM     23  C   UNK A   0      -3.256   4.125 129.339  0.00  0.00    +0.000 A 
ATOM     24  C   UNK A   0      -4.641   3.753 129.525  0.00  0.00    +0.000 A 
ATOM     25  C   UNK A   0      -5.783   3.804 128.867  0.00  0.00    +0.000 A 
BRANCH  20  27
ATOM     26  C   UNK A   0      -5.632   4.718 125.532  0.00  0.00    +0.000 C 
ATOM     27  O   UNK A   0      -6.290   4.757 126.779  0.00  0.00    +0.000 OA
ENDBRANCH  20  27
ENDBRANCH  19  25
BRANCH  19  28
ATOM     28  C   UNK A   0      -7.170   1.654 128.756  0.00  0.00    +0.000 C 
ATOM     29  O   UNK A   0      -6.485   0.698 128.873  0.00  0.00    +0.000 OA
ATOM     30  N   UNK A   0      -8.135   1.802 127.770  0.00  0.00    +0.000 N 
ATOM     31  H   UNK A   0      -8.971   2.324 128.022  0.00  0.00    +0.000 HD
BRANCH  30  32
ATOM     32  C   UNK A   0      -7.959   1.296 126.429  0.00  0.00    +0.000 C 
ATOM     33  C   UNK A   0      -8.636  -0.048 126.213  0.00  0.00    +0.000 C 
ATOM     34  C   UNK A   0      -8.475   2.340 125.465  0.00  0.00    +0.000 C 
ENDBRANCH  30  32
ENDBRANCH  19  28
ENDBRANCH   1  19
BRANCH   8  35
ATOM     35  CB  LEU A   1      -7.713   2.304 132.961  0.00  0.00    +0.000 C 
BRANCH  35  36
ATOM     36  CG  LEU A   1      -7.766   0.504 132.253  0.00  0.00    +0.000 C 
ATOM     37  CD1 LEU A   1      -7.287  -1.095 133.028  0.00  0.00    +0.000 C 
ATOM     38  CD2 LEU A   1      -9.153   0.203 131.659  0.00  0.00    +0.000 C 
ENDBRANCH  35  36
ENDBRANCH   8  35
TORSDOF 8
ENDMDL
MODEL 7
REMARK VINA RESULT:      -8.7      3.314      7.829
REMARK  Name = CHEMBL2035013
REMARK  13 active torsions:
REMARK  status: ('A' for Active; 'I' for Inactive)
REMARK    1  A    between atoms: C_1  and  O_2
REMARK    2  A    between atoms: O_2  and  C_3
REMARK    3  A    between atoms: C_8  and  C_9
REMARK    4  A    between atoms: C_9  and  C_10
REMARK    5  A    between atoms: C_9  and  N_16
REMARK    6  A    between atoms: N_12  and  C_13
REMARK    7  A    between atoms: C_13  and  C_14
REMARK    8  A    between atoms: C_13  and  C_15
REMARK    9  A    between atoms: C_19  and  C_20
REMARK   10  A    between atoms: CA_32  and  CB_33
REMARK   11  A    between atoms: CB_33  and  CG_34
REMARK   12  A    between atoms: CG_34  and  CD1_35
REMARK   13  A    between atoms: CG_34  and  CD2_36
REMARK                            x       y       z     vdW  Elec       q    Type
REMARK                         _______ _______ _______ _____ _____    ______ ____
ROOT
ATOM      1  N   LEU A   1      -6.850   3.068 129.299  0.00  0.00    +0.000 N 
ATOM      2  C   UNK A   2      -7.331   1.935 128.730  0.00  0.00    +0.000 C 
ATOM      3  O   UNK A   2      -8.556   1.811 128.535  0.00  0.00    +0.000 OA
ATOM      4  C   UNK A   2      -6.313   0.799 128.457  0.00  0.00    +0.000 C 
ATOM      5  N   UNK A   2      -5.220   1.373 127.708  0.00  0.00    +0.000 N 
ATOM      6  C   LEU A   1      -4.575   2.449 128.189  0.00  0.00    +0.000 C 
ATOM      7  O   LEU A   1      -3.395   2.675 127.845  0.00  0.00    +0.000 OA
ATOM      8  CA  LEU A   1      -5.344   3.342 129.131  0.00  0.00    +0.000 C 
ATOM      9  H   UNK A   2      -4.658   0.840 127.060  0.00  0.00    +0.000 HD
ENDROOT
BRANCH   4  10
ATOM     10  C   UNK A   2      -7.160  -0.151 127.658  0.00  0.00    +0.000 C 
ATOM     11  C   UNK A   2      -6.664  -1.623 127.898  0.00  0.00    +0.000 C 
ATOM     12  C   UNK A   2      -7.321  -2.338 126.747  0.00  0.00    +0.000 A 
ATOM     13  C   UNK A   2      -6.786  -2.720 125.514  0.00  0.00    +0.000 A 
ATOM     14  C   UNK A   2      -7.673  -2.970 124.439  0.00  0.00    +0.000 A 
ATOM     15  C   UNK A   2      -9.005  -3.070 124.737  0.00  0.00    +0.000 A 
ATOM     16  C   UNK A   2      -9.371  -2.337 125.846  0.00  0.00    +0.000 A 
ATOM     17  C   UNK A   2      -8.400  -1.563 126.471  0.00  0.00    +0.000 A 
ATOM     18  C   UNK A   2      -7.449  -0.215 126.183  0.00  0.00    +0.000 C 
ENDBRANCH   4  10
BRANCH   1  19
ATOM     19  C   UNK A   0      -7.850   4.080 129.872  0.00  0.00    +0.000 C 
BRANCH  19  25
ATOM     20  C   UNK A   0      -9.041   3.035 132.226  0.00  0.00    +0.000 A 
ATOM     21  C   UNK A   0      -9.161   3.345 133.700  0.00  0.00    +0.000 A 
ATOM     22  C   UNK A   0      -8.404   4.274 134.377  0.00  0.00    +0.000 A 
ATOM     23  C   UNK A   0      -7.372   4.611 133.630  0.00  0.00    +0.000 A 
ATOM     24  C   UNK A   0      -7.451   4.348 132.209  0.00  0.00    +0.000 A 
ATOM     25  C   UNK A   0      -8.187   3.651 131.365  0.00  0.00    +0.000 A 
BRANCH  20  27
ATOM     26  C   UNK A   0      -9.386   0.868 131.829  0.00  0.00    +0.000 C 
ATOM     27  O   UNK A   0      -9.955   2.156 131.769  0.00  0.00    +0.000 OA
ENDBRANCH  20  27
ENDBRANCH  19  25
BRANCH  19  28
ATOM     28  C   UNK A   0      -9.060   4.865 129.287  0.00  0.00    +0.000 C 
ATOM     29  O   UNK A   0      -8.934   5.469 128.279  0.00  0.00    +0.000 OA
ATOM     30  N   UNK A   0     -10.182   4.938 130.101  0.00  0.00    +0.000 N 
ATOM     31  H   UNK A   0     -10.448   4.088 130.590  0.00  0.00    +0.000 HD
BRANCH  30  32
ATOM     32  C   UNK A   0     -10.917   6.165 130.300  0.00  0.00    +0.000 C 
ATOM     33  C   UNK A   0     -12.228   6.198 129.530  0.00  0.00    +0.000 C 
ATOM     34  C   UNK A   0     -11.140   6.340 131.785  0.00  0.00    +0.000 C 
ENDBRANCH  30  32
ENDBRANCH  19  28
ENDBRANCH   1  19
BRANCH   8  35
ATOM     35  CB  LEU A   1      -4.686   4.917 128.612  0.00  0.00    +0.000 C 
BRANCH  35  36
ATOM     36  CG  LEU A   1      -3.324   5.949 129.520  0.00  0.00    +0.000 C 
ATOM     37  CD1 LEU A   1      -2.357   5.567 131.038  0.00  0.00    +0.000 C 
ATOM     38  CD2 LEU A   1      -2.245   6.406 128.524  0.00  0.00    +0.000 C 
ENDBRANCH  35  36
ENDBRANCH   8  35
TORSDOF 8
ENDMDL
MODEL 8
REMARK VINA RESULT:      -8.7      2.416      4.994
REMARK  Name = CHEMBL2035013
REMARK  13 active torsions:
REMARK  status: ('A' for Active; 'I' for Inactive)
REMARK    1  A    between atoms: C_1  and  O_2
REMARK    2  A    between atoms: O_2  and  C_3
REMARK    3  A    between atoms: C_8  and  C_9
REMARK    4  A    between atoms: C_9  and  C_10
REMARK    5  A    between atoms: C_9  and  N_16
REMARK    6  A    between atoms: N_12  and  C_13
REMARK    7  A    between atoms: C_13  and  C_14
REMARK    8  A    between atoms: C_13  and  C_15
REMARK    9  A    between atoms: C_19  and  C_20
REMARK   10  A    between atoms: CA_32  and  CB_33
REMARK   11  A    between atoms: CB_33  and  CG_34
REMARK   12  A    between atoms: CG_34  and  CD1_35
REMARK   13  A    between atoms: CG_34  and  CD2_36
REMARK                            x       y       z     vdW  Elec       q    Type
REMARK                         _______ _______ _______ _____ _____    ______ ____
ROOT
ATOM      1  N   LEU A   1      -7.281   5.017 131.560  0.00  0.00    +0.000 N 
ATOM      2  C   UNK A   2      -8.377   5.745 131.239  0.00  0.00    +0.000 C 
ATOM      3  O   UNK A   2      -8.544   6.872 131.745  0.00  0.00    +0.000 OA
ATOM      4  C   UNK A   2      -9.431   5.064 130.329  0.00  0.00    +0.000 C 
ATOM      5  N   UNK A   2      -8.737   4.567 129.165  0.00  0.00    +0.000 N 
ATOM      6  C   LEU A   1      -7.679   3.753 129.317  0.00  0.00    +0.000 C 
ATOM      7  O   LEU A   1      -7.364   2.962 128.401  0.00  0.00    +0.000 OA
ATOM      8  CA  LEU A   1      -6.918   3.857 130.615  0.00  0.00    +0.000 C 
ATOM      9  H   UNK A   2      -9.178   4.468 128.262  0.00  0.00    +0.000 HD
ENDROOT
BRANCH   4  10
ATOM     10  C   UNK A   2     -10.343   6.223 130.039  0.00  0.00    +0.000 C 
ATOM     11  C   UNK A   2     -11.792   5.889 130.549  0.00  0.00    +0.000 C 
ATOM     12  C   UNK A   2     -12.599   6.933 129.823  0.00  0.00    +0.000 A 
ATOM     13  C   UNK A   2     -13.352   6.820 128.651  0.00  0.00    +0.000 A 
ATOM     14  C   UNK A   2     -13.652   7.996 127.922  0.00  0.00    +0.000 A 
ATOM     15  C   UNK A   2     -13.406   9.194 128.539  0.00  0.00    +0.000 A 
ATOM     16  C   UNK A   2     -12.382   9.131 129.459  0.00  0.00    +0.000 A 
ATOM     17  C   UNK A   2     -11.703   7.927 129.605  0.00  0.00    +0.000 A 
ATOM     18  C   UNK A   2     -10.680   6.916 128.748  0.00  0.00    +0.000 C 
ENDBRANCH   4  10
BRANCH   1  19
ATOM     19  C   UNK A   0      -6.378   5.517 132.695  0.00  0.00    +0.000 C 
BRANCH  19  25
ATOM     20  C   UNK A   0      -3.715   6.327 132.136  0.00  0.00    +0.000 A 
ATOM     21  C   UNK A   0      -2.964   7.449 131.456  0.00  0.00    +0.000 A 
ATOM     22  C   UNK A   0      -3.530   8.395 130.633  0.00  0.00    +0.000 A 
ATOM     23  C   UNK A   0      -4.735   7.992 130.284  0.00  0.00    +0.000 A 
ATOM     24  C   UNK A   0      -5.375   6.985 131.103  0.00  0.00    +0.000 A 
ATOM     25  C   UNK A   0      -5.057   6.119 132.045  0.00  0.00    +0.000 A 
BRANCH  20  27
ATOM     26  C   UNK A   0      -2.232   4.664 132.192  0.00  0.00    +0.000 C 
ATOM     27  O   UNK A   0      -2.964   5.584 132.971  0.00  0.00    +0.000 OA
ENDBRANCH  20  27
ENDBRANCH  19  25
BRANCH  19  28
ATOM     28  C   UNK A   0      -6.048   5.008 134.129  0.00  0.00    +0.000 C 
ATOM     29  O   UNK A   0      -5.822   3.862 134.305  0.00  0.00    +0.000 OA
ATOM     30  N   UNK A   0      -6.215   5.934 135.149  0.00  0.00    +0.000 N 
ATOM     31  H   UNK A   0      -5.886   6.879 134.969  0.00  0.00    +0.000 HD
BRANCH  30  32
ATOM     32  C   UNK A   0      -6.869   5.606 136.395  0.00  0.00    +0.000 C 
ATOM     33  C   UNK A   0      -5.889   5.399 137.538  0.00  0.00    +0.000 C 
ATOM     34  C   UNK A   0      -7.860   6.705 136.704  0.00  0.00    +0.000 C 
ENDBRANCH  30  32
ENDBRANCH  19  28
ENDBRANCH   1  19
BRANCH   8  35
ATOM     35  CB  LEU A   1      -5.270   3.582 129.987  0.00  0.00    +0.000 C 
BRANCH  35  36
ATOM     36  CG  LEU A   1      -4.344   4.666 128.678  0.00  0.00    +0.000 C 
ATOM     37  CD1 LEU A   1      -2.577   5.172 128.588  0.00  0.00    +0.000 C 
ATOM     38  CD2 LEU A   1      -4.632   4.152 127.257  0.00  0.00    +0.000 C 
ENDBRANCH  35  36
ENDBRANCH   8  35
TORSDOF 8
ENDMDL
MODEL 9
REMARK VINA RESULT:      -8.7      4.826      7.923
REMARK  Name = CHEMBL2035013
REMARK  13 active torsions:
REMARK  status: ('A' for Active; 'I' for Inactive)
REMARK    1  A    between atoms: C_1  and  O_2
REMARK    2  A    between atoms: O_2  and  C_3
REMARK    3  A    between atoms: C_8  and  C_9
REMARK    4  A    between atoms: C_9  and  C_10
REMARK    5  A    between atoms: C_9  and  N_16
REMARK    6  A    between atoms: N_12  and  C_13
REMARK    7  A    between atoms: C_13  and  C_14
REMARK    8  A    between atoms: C_13  and  C_15
REMARK    9  A    between atoms: C_19  and  C_20
REMARK   10  A    between atoms: CA_32  and  CB_33
REMARK   11  A    between atoms: CB_33  and  CG_34
REMARK   12  A    between atoms: CG_34  and  CD1_35
REMARK   13  A    between atoms: CG_34  and  CD2_36
REMARK                            x       y       z     vdW  Elec       q    Type
REMARK                         _______ _______ _______ _____ _____    ______ ____
ROOT
ATOM      1  N   LEU A   1      -6.765   0.417 127.501  0.00  0.00    +0.000 N 
ATOM      2  C   UNK A   2      -6.103   1.598 127.454  0.00  0.00    +0.000 C 
ATOM      3  O   UNK A   2      -6.595   2.561 126.833  0.00  0.00    +0.000 OA
ATOM      4  C   UNK A   2      -4.692   1.639 128.093  0.00  0.00    +0.000 C 
ATOM      5  N   UNK A   2      -4.816   1.129 129.438  0.00  0.00    +0.000 N 
ATOM      6  C   LEU A   1      -5.369  -0.078 129.645  0.00  0.00    +0.000 C 
ATOM      7  O   LEU A   1      -5.080  -0.730 130.672  0.00  0.00    +0.000 OA
ATOM      8  CA  LEU A   1      -6.336  -0.574 128.599  0.00  0.00    +0.000 C 
ATOM      9  H   UNK A   2      -4.206   1.411 130.192  0.00  0.00    +0.000 HD
ENDROOT
BRANCH   4  10
ATOM     10  C   UNK A   2      -4.398   3.111 128.031  0.00  0.00    +0.000 C 
ATOM     11  C   UNK A   2      -2.856   3.329 127.815  0.00  0.00    +0.000 C 
ATOM     12  C   UNK A   2      -2.716   4.780 128.189  0.00  0.00    +0.000 A 
ATOM     13  C   UNK A   2      -2.285   5.354 129.389  0.00  0.00    +0.000 A 
ATOM     14  C   UNK A   2      -2.648   6.693 129.669  0.00  0.00    +0.000 A 
ATOM     15  C   UNK A   2      -3.181   7.425 128.642  0.00  0.00    +0.000 A 
ATOM     16  C   UNK A   2      -3.846   6.654 127.713  0.00  0.00    +0.000 A 
ATOM     17  C   UNK A   2      -3.951   5.288 127.948  0.00  0.00    +0.000 A 
ATOM     18  C   UNK A   2      -4.678   4.217 129.010  0.00  0.00    +0.000 C 
ENDBRANCH   4  10
BRANCH   1  19
ATOM     19  C   UNK A   0      -8.008   0.238 126.620  0.00  0.00    +0.000 C 
BRANCH  19  25
ATOM     20  C   UNK A   0      -7.104  -1.734 124.789  0.00  0.00    +0.000 A 
ATOM     21  C   UNK A   0      -7.649  -2.839 123.913  0.00  0.00    +0.000 A 
ATOM     22  C   UNK A   0      -8.925  -3.348 123.984  0.00  0.00    +0.000 A 
ATOM     23  C   UNK A   0      -9.479  -2.956 125.115  0.00  0.00    +0.000 A 
ATOM     24  C   UNK A   0      -8.909  -1.808 125.785  0.00  0.00    +0.000 A 
ATOM     25  C   UNK A   0      -7.811  -1.078 125.749  0.00  0.00    +0.000 A 
BRANCH  20  27
ATOM     26  C   UNK A   0      -5.138  -2.473 124.040  0.00  0.00    +0.000 C 
ATOM     27  O   UNK A   0      -5.856  -1.338 124.469  0.00  0.00    +0.000 OA
ENDBRANCH  20  27
ENDBRANCH  19  25
BRANCH  19  28
ATOM     28  C   UNK A   0      -8.949   1.214 125.854  0.00  0.00    +0.000 C 
ATOM     29  O   UNK A   0     -10.056   1.378 126.235  0.00  0.00    +0.000 OA
ATOM     30  N   UNK A   0      -8.460   1.704 124.651  0.00  0.00    +0.000 N 
ATOM     31  H   UNK A   0      -7.484   1.986 124.635  0.00  0.00    +0.000 HD
BRANCH  30  32
ATOM     32  C   UNK A   0      -9.266   1.767 123.454  0.00  0.00    +0.000 C 
ATOM     33  C   UNK A   0      -8.704   2.727 122.417  0.00  0.00    +0.000 C 
ATOM     34  C   UNK A   0      -9.395   0.366 122.903  0.00  0.00    +0.000 C 
ENDBRANCH  30  32
ENDBRANCH  19  28
ENDBRANCH   1  19
BRANCH   8  35
ATOM     35  CB  LEU A   1      -7.492  -1.411 129.671  0.00  0.00    +0.000 C 
BRANCH  35  36
ATOM     36  CG  LEU A   1      -7.926  -3.296 129.644  0.00  0.00    +0.000 C 
ATOM     37  CD1 LEU A   1      -8.869  -4.282 128.409  0.00  0.00    +0.000 C 
ATOM     38  CD2 LEU A   1      -6.660  -4.141 129.872  0.00  0.00    +0.000 C 
ENDBRANCH  35  36
ENDBRANCH   8  35
TORSDOF 8
ENDMDL
