MODEL 1
REMARK VINA RESULT:      -9.3      0.000      0.000
REMARK  Name = CHEMBL1765663
REMARK  23 active torsions:
REMARK  status: ('A' for Active; 'I' for Inactive)
REMARK    1  A    between atoms: CD1_1  and  CG_2
REMARK    2  A    between atoms: CG_2  and  CD2_3
REMARK    3  A    between atoms: CG_2  and  CB_4
REMARK    4  A    between atoms: CB_4  and  CA_5
REMARK    5  A    between atoms: CA_9  and  CB_10
REMARK    6  A    between atoms: CB_10  and  CG_11
REMARK    7  A    between atoms: CA_20  and  CB_21
REMARK    8  A    between atoms: CB_21  and  CG_22
REMARK    9  A    between atoms: CZ_25  and  OH_26
REMARK   10  A    between atoms: C_37  and  C_38
REMARK   11  A    between atoms: CA_44  and  C_45
REMARK   12  A    between atoms: N_47  and  CA_48
REMARK   13  A    between atoms: CA_48  and  CB_49
REMARK   14  A    between atoms: CA_48  and  C_54
REMARK   15  A    between atoms: CB_49  and  CG_50
REMARK   16  A    between atoms: CG_50  and  CD_51
REMARK   17  A    between atoms: CD_51  and  CE_52
REMARK   18  A    between atoms: CE_52  and  NZ_53
REMARK   19  A    between atoms: N_56  and  CA_57
REMARK   20  A    between atoms: CA_57  and  C_58
REMARK   21  A    between atoms: C_58  and  OXT_60
REMARK   22  A    between atoms: CA_64  and  CB_65
REMARK   23  A    between atoms: CB_65  and  CG_66
REMARK                            x       y       z     vdW  Elec       q    Type
REMARK                         _______ _______ _______ _____ _____    ______ ____
ROOT
ATOM      1  CA  TYR A   1      -8.006   6.096 132.170  0.00  0.00    +0.000 C 
ATOM      2  N   TYR A   1      -6.565   6.303 133.153  0.00  0.00    +0.000 N 
ATOM      3  C   TYR A   1      -5.626   5.631 134.065  0.00  0.00    +0.000 C 
ATOM      4  O   TYR A   1      -4.406   5.821 133.930  0.00  0.00    +0.000 OA
ATOM      5  CA  TYR A   1      -6.158   4.603 135.252  0.00  0.00    +0.000 C 
ATOM      6  N   TYR A   1      -6.417   3.188 135.047  0.00  0.00    +0.000 N 
ATOM      7  C   TYR A   1      -5.615   2.159 134.697  0.00  0.00    +0.000 C 
ATOM      8  O   TYR A   1      -6.184   1.066 134.822  0.00  0.00    +0.000 OA
ATOM      9  CA  TYR A   1      -4.038   2.358 134.270  0.00  0.00    +0.000 C 
ATOM     10  N   TYR A   1      -3.493   1.347 135.120  0.00  0.00    +0.000 N 
ATOM     11  C   UNK A   0      -3.660   0.011 134.911  0.00  0.00    +0.000 C 
ATOM     12  O   UNK A   0      -3.197  -0.725 135.789  0.00  0.00    +0.000 OA
ATOM     13  C   UNK A   0      -4.355  -0.617 133.645  0.00  0.00    +0.000 C 
ATOM     14  C   UNK A   0      -5.048   0.144 132.501  0.00  0.00    +0.000 C 
ATOM     15  S   UNK A   3      -5.941  -0.733 131.177  0.00  0.00    +0.000 S 
ATOM     16  S   UNK A   3      -5.728   0.711 129.682  0.00  0.00    +0.000 S 
ATOM     17  C   UNK A   3      -7.297   0.743 128.748  0.00  0.00    +0.000 C 
ATOM     18  C   UNK A   3      -7.784   1.901 127.861  0.00  0.00    +0.000 C 
ATOM     19  N   UNK A   3      -8.858   2.681 128.521  0.00  0.00    +0.000 N 
ATOM     20  C   ASN A   2      -8.806   3.382 129.671  0.00  0.00    +0.000 C 
ATOM     21  O   ASN A   2      -9.792   3.891 130.197  0.00  0.00    +0.000 OA
ATOM     22  CA  ASN A   2      -7.463   3.602 130.241  0.00  0.00    +0.000 C 
ATOM     23  N   ASN A   2      -7.342   5.075 130.024  0.00  0.00    +0.000 N 
ATOM     24  C   TYR A   1      -7.556   6.246 130.747  0.00  0.00    +0.000 C 
ATOM     25  O   TYR A   1      -6.965   7.272 130.397  0.00  0.00    +0.000 OA
ATOM     26  H   TYR A   1      -6.006   7.026 132.679  0.00  0.00    +0.000 HD
ATOM     27  H   TYR A   1      -7.404   2.907 135.050  0.00  0.00    +0.000 HD
ATOM     28  H   TYR A   1      -3.160   1.626 136.037  0.00  0.00    +0.000 HD
ATOM     29  H   UNK A   3      -9.768   2.726 128.074  0.00  0.00    +0.000 HD
ATOM     30  H   ASN A   2      -6.780   5.233 129.192  0.00  0.00    +0.000 HD
ENDROOT
BRANCH  18  31
ATOM     31  C   UNK A   3      -8.363   1.407 126.483  0.00  0.00    +0.000 C 
ATOM     32  O   UNK A   3      -9.417   0.758 126.479  0.00  0.00    +0.000 OA
ATOM     33  N   PRO A   4      -7.813   1.912 125.313  0.00  0.00    +0.000 N 
ATOM     34  CD  PRO A   4      -6.420   1.974 124.889  0.00  0.00    +0.000 C 
ATOM     35  CG  PRO A   4      -6.411   3.242 124.089  0.00  0.00    +0.000 C 
ATOM     36  CB  PRO A   4      -7.660   3.076 123.245  0.00  0.00    +0.000 C 
ATOM     37  CA  PRO A   4      -8.632   2.248 124.117  0.00  0.00    +0.000 C 
BRANCH  37  38
ATOM     38  C   PRO A   4      -8.991   1.029 123.243  0.00  0.00    +0.000 C 
ATOM     39  O   PRO A   4      -9.539   1.194 122.152  0.00  0.00    +0.000 OA
ATOM     40  N   LYS A   5      -8.758  -0.233 123.784  0.00  0.00    +0.000 N 
ATOM     41  H   LYS A   5      -8.596  -0.350 124.780  0.00  0.00    +0.000 HD
BRANCH  40  42
ATOM     42  CA  LYS A   5      -8.876  -1.491 122.992  0.00  0.00    +0.000 C 
BRANCH  42  43
ATOM     43  C   LYS A   5      -9.235  -2.715 123.912  0.00  0.00    +0.000 C 
ATOM     44  O   LYS A   5      -9.718  -3.748 123.444  0.00  0.00    +0.000 OA
ATOM     45  N   GLY A   6      -8.984  -2.591 125.268  0.00  0.00    +0.000 N 
ATOM     46  H   GLY A   6      -8.579  -1.742 125.657  0.00  0.00    +0.000 HD
BRANCH  45  47
ATOM     47  CA  GLY A   6      -9.303  -3.651 126.239  0.00  0.00    +0.000 C 
BRANCH  47  48
ATOM     48  C   GLY A   6      -8.676  -3.372 127.609  0.00  0.00    +0.000 C 
ATOM     49  O   GLY A   6      -7.726  -2.615 127.767  0.00  0.00    +0.000 OA
BRANCH  48  50
ATOM     50  OXT GLY A   6      -9.242  -4.021 128.653  0.00  0.00    +0.000 OA
ATOM     51  HXT GLY A   6      -9.308  -3.541 129.501  0.00  0.00    +0.000 HD
ENDBRANCH  48  50
ENDBRANCH  47  48
ENDBRANCH  45  47
ENDBRANCH  42  43
BRANCH  42  52
ATOM     52  CB  LYS A   5      -7.552  -1.786 122.255  0.00  0.00    +0.000 C 
BRANCH  52  53
ATOM     53  CG  LYS A   5      -6.335  -1.493 123.117  0.00  0.00    +0.000 C 
BRANCH  53  54
ATOM     54  CD  LYS A   5      -5.586  -2.700 123.612  0.00  0.00    +0.000 C 
BRANCH  54  55
ATOM     55  CE  LYS A   5      -5.373  -2.552 125.119  0.00  0.00    +0.000 C 
BRANCH  55  56
ATOM     56  NZ  LYS A   5      -6.228  -1.479 125.600  0.00  0.00    +0.000 NA
ATOM     57  HZ1 LYS A   5      -6.661  -1.783 126.471  0.00  0.00    +0.000 HD
ATOM     58  HZ2 LYS A   5      -6.986  -1.339 124.937  0.00  0.00    +0.000 HD
ENDBRANCH  55  56
ENDBRANCH  54  55
ENDBRANCH  53  54
ENDBRANCH  52  53
ENDBRANCH  42  52
ENDBRANCH  40  42
ENDBRANCH  37  38
ENDBRANCH  18  31
BRANCH  22  59
ATOM     59  CB  ASN A   2      -7.367   2.626 131.425  0.00  0.00    +0.000 C 
BRANCH  59  60
ATOM     60  CG  ASN A   2      -8.544   1.959 131.988  0.00  0.00    +0.000 C 
ATOM     61  ND2 ASN A   2      -8.965   2.688 133.010  0.00  0.00    +0.000 N 
ATOM     62  OD1 ASN A   2      -9.018   0.894 131.803  0.00  0.00    +0.000 OA
ATOM     63 HD21 ASN A   2      -8.561   3.562 133.286  0.00  0.00    +0.000 HD
ATOM     64 HD22 ASN A   2      -9.924   2.599 133.292  0.00  0.00    +0.000 HD
ENDBRANCH  59  60
ENDBRANCH  22  59
BRANCH   9  65
ATOM     65  CB  TYR A   1      -3.136   2.316 132.887  0.00  0.00    +0.000 C 
BRANCH  65  66
ATOM     66  CG  TYR A   1      -2.811   3.567 132.111  0.00  0.00    +0.000 A 
ATOM     67  CD1 TYR A   1      -3.637   3.721 131.082  0.00  0.00    +0.000 A 
ATOM     68  CE1 TYR A   1      -3.705   4.867 130.335  0.00  0.00    +0.000 A 
ATOM     69  CZ  TYR A   1      -2.877   5.928 130.417  0.00  0.00    +0.000 A 
ATOM     70  CE2 TYR A   1      -1.859   5.722 131.291  0.00  0.00    +0.000 A 
ATOM     71  CD2 TYR A   1      -1.852   4.581 132.177  0.00  0.00    +0.000 A 
BRANCH  69  72
ATOM     72  OH  TYR A   1      -2.838   6.878 129.436  0.00  0.00    +0.000 OA
ATOM     73  HH  TYR A   1      -3.326   6.593 128.617  0.00  0.00    +0.000 HD
ENDBRANCH  69  72
ENDBRANCH  65  66
ENDBRANCH   9  65
BRANCH   5  74
ATOM     74  CB  TYR A   1      -5.407   4.563 136.521  0.00  0.00    +0.000 C 
BRANCH  74  75
ATOM     75  CG  TYR A   1      -6.111   5.365 137.525  0.00  0.00    +0.000 A 
ATOM     76  CD1 TYR A   1      -5.886   5.312 138.916  0.00  0.00    +0.000 A 
ATOM     77  CE1 TYR A   1      -6.842   5.778 139.774  0.00  0.00    +0.000 A 
ATOM     78  CZ  TYR A   1      -7.852   6.550 139.232  0.00  0.00    +0.000 A 
ATOM     79  CE2 TYR A   1      -7.996   6.711 137.847  0.00  0.00    +0.000 A 
ATOM     80  CD2 TYR A   1      -7.151   6.075 136.982  0.00  0.00    +0.000 A 
ENDBRANCH  74  75
ENDBRANCH   5  74
BRANCH   1  81
ATOM     81  CB  TYR A   1      -9.471   6.060 132.644  0.00  0.00    +0.000 C 
BRANCH  81  83
ATOM     82  CD1 TYR A   1     -11.792   6.408 132.139  0.00  0.00    +0.000 C 
ATOM     83  CG  TYR A   1     -10.441   6.175 131.506  0.00  0.00    +0.000 C 
ATOM     84  CD2 TYR A   1     -10.066   7.338 130.608  0.00  0.00    +0.000 C 
ENDBRANCH  81  83
ENDBRANCH   1  81
TORSDOF 21
ENDMDL
MODEL 2
REMARK VINA RESULT:      -8.7      4.299     10.568
REMARK  Name = CHEMBL1765663
REMARK  23 active torsions:
REMARK  status: ('A' for Active; 'I' for Inactive)
REMARK    1  A    between atoms: CD1_1  and  CG_2
REMARK    2  A    between atoms: CG_2  and  CD2_3
REMARK    3  A    between atoms: CG_2  and  CB_4
REMARK    4  A    between atoms: CB_4  and  CA_5
REMARK    5  A    between atoms: CA_9  and  CB_10
REMARK    6  A    between atoms: CB_10  and  CG_11
REMARK    7  A    between atoms: CA_20  and  CB_21
REMARK    8  A    between atoms: CB_21  and  CG_22
REMARK    9  A    between atoms: CZ_25  and  OH_26
REMARK   10  A    between atoms: C_37  and  C_38
REMARK   11  A    between atoms: CA_44  and  C_45
REMARK   12  A    between atoms: N_47  and  CA_48
REMARK   13  A    between atoms: CA_48  and  CB_49
REMARK   14  A    between atoms: CA_48  and  C_54
REMARK   15  A    between atoms: CB_49  and  CG_50
REMARK   16  A    between atoms: CG_50  and  CD_51
REMARK   17  A    between atoms: CD_51  and  CE_52
REMARK   18  A    between atoms: CE_52  and  NZ_53
REMARK   19  A    between atoms: N_56  and  CA_57
REMARK   20  A    between atoms: CA_57  and  C_58
REMARK   21  A    between atoms: C_58  and  OXT_60
REMARK   22  A    between atoms: CA_64  and  CB_65
REMARK   23  A    between atoms: CB_65  and  CG_66
REMARK                            x       y       z     vdW  Elec       q    Type
REMARK                         _______ _______ _______ _____ _____    ______ ____
ROOT
ATOM      1  CA  TYR A   1      -6.307  -1.024 127.364  0.00  0.00    +0.000 C 
ATOM      2  N   TYR A   1      -5.272   0.225 126.690  0.00  0.00    +0.000 N 
ATOM      3  C   TYR A   1      -4.985   1.668 126.673  0.00  0.00    +0.000 C 
ATOM      4  O   TYR A   1      -3.807   2.055 126.732  0.00  0.00    +0.000 OA
ATOM      5  CA  TYR A   1      -6.203   2.791 126.605  0.00  0.00    +0.000 C 
ATOM      6  N   TYR A   1      -6.902   3.305 127.770  0.00  0.00    +0.000 N 
ATOM      7  C   TYR A   1      -6.485   4.015 128.840  0.00  0.00    +0.000 C 
ATOM      8  O   TYR A   1      -7.434   4.429 129.519  0.00  0.00    +0.000 OA
ATOM      9  CA  TYR A   1      -4.901   4.368 129.119  0.00  0.00    +0.000 C 
ATOM     10  N   TYR A   1      -5.069   5.767 129.358  0.00  0.00    +0.000 N 
ATOM     11  C   UNK A   0      -5.657   6.278 130.476  0.00  0.00    +0.000 C 
ATOM     12  O   UNK A   0      -5.800   7.505 130.485  0.00  0.00    +0.000 OA
ATOM     13  C   UNK A   0      -6.114   5.425 131.717  0.00  0.00    +0.000 C 
ATOM     14  C   UNK A   0      -6.080   3.891 131.845  0.00  0.00    +0.000 C 
ATOM     15  S   UNK A   3      -6.787   3.039 133.292  0.00  0.00    +0.000 S 
ATOM     16  S   UNK A   3      -5.596   1.324 133.226  0.00  0.00    +0.000 S 
ATOM     17  C   UNK A   3      -6.668  -0.083 133.677  0.00  0.00    +0.000 C 
ATOM     18  C   UNK A   3      -6.383  -1.560 133.358  0.00  0.00    +0.000 C 
ATOM     19  N   UNK A   3      -7.228  -2.052 132.243  0.00  0.00    +0.000 N 
ATOM     20  C   ASN A   2      -7.269  -1.625 130.964  0.00  0.00    +0.000 C 
ATOM     21  O   ASN A   2      -8.099  -2.017 130.148  0.00  0.00    +0.000 OA
ATOM     22  CA  ASN A   2      -6.187  -0.713 130.546  0.00  0.00    +0.000 C 
ATOM     23  N   ASN A   2      -5.457  -1.614 129.605  0.00  0.00    +0.000 N 
ATOM     24  C   TYR A   1      -5.422  -1.865 128.235  0.00  0.00    +0.000 C 
ATOM     25  O   TYR A   1      -4.409  -2.386 127.756  0.00  0.00    +0.000 OA
ATOM     26  H   TYR A   1      -4.364  -0.230 126.517  0.00  0.00    +0.000 HD
ATOM     27  H   TYR A   1      -7.872   2.989 127.888  0.00  0.00    +0.000 HD
ATOM     28  H   TYR A   1      -4.952   6.400 128.574  0.00  0.00    +0.000 HD
ATOM     29  H   UNK A   3      -7.869  -2.818 132.422  0.00  0.00    +0.000 HD
ATOM     30  H   ASN A   2      -4.651  -2.002 130.088  0.00  0.00    +0.000 HD
ENDROOT
BRANCH  18  31
ATOM     31  C   UNK A   3      -6.654  -2.509 134.585  0.00  0.00    +0.000 C 
ATOM     32  O   UNK A   3      -7.648  -2.299 135.291  0.00  0.00    +0.000 OA
ATOM     33  N   PRO A   4      -5.917  -3.680 134.693  0.00  0.00    +0.000 N 
ATOM     34  CD  PRO A   4      -4.474  -3.880 134.650  0.00  0.00    +0.000 C 
ATOM     35  CG  PRO A   4      -4.383  -5.233 134.008  0.00  0.00    +0.000 C 
ATOM     36  CB  PRO A   4      -5.433  -6.007 134.783  0.00  0.00    +0.000 C 
ATOM     37  CA  PRO A   4      -6.506  -4.962 135.166  0.00  0.00    +0.000 C 
BRANCH  37  38
ATOM     38  C   PRO A   4      -6.618  -5.069 136.700  0.00  0.00    +0.000 C 
ATOM     39  O   PRO A   4      -5.788  -5.723 137.334  0.00  0.00    +0.000 OA
ATOM     40  N   LYS A   5      -7.731  -4.485 137.301  0.00  0.00    +0.000 N 
ATOM     41  H   LYS A   5      -8.542  -4.222 136.747  0.00  0.00    +0.000 HD
BRANCH  40  42
ATOM     42  CA  LYS A   5      -7.878  -4.343 138.778  0.00  0.00    +0.000 C 
BRANCH  42  43
ATOM     43  C   LYS A   5      -9.375  -4.084 139.182  0.00  0.00    +0.000 C 
ATOM     44  O   LYS A   5      -9.696  -3.882 140.354  0.00  0.00    +0.000 OA
ATOM     45  N   GLY A   6     -10.321  -4.086 138.170  0.00  0.00    +0.000 N 
ATOM     46  H   GLY A   6     -10.058  -4.245 137.199  0.00  0.00    +0.000 HD
BRANCH  45  47
ATOM     47  CA  GLY A   6     -11.758  -3.887 138.420  0.00  0.00    +0.000 C 
BRANCH  47  48
ATOM     48  C   GLY A   6     -12.086  -2.417 138.704  0.00  0.00    +0.000 C 
ATOM     49  O   GLY A   6     -12.375  -1.615 137.824  0.00  0.00    +0.000 OA
BRANCH  48  50
ATOM     50  OXT GLY A   6     -12.037  -2.050 140.005  0.00  0.00    +0.000 OA
ATOM     51  HXT GLY A   6     -12.699  -2.438 140.609  0.00  0.00    +0.000 HD
ENDBRANCH  48  50
ENDBRANCH  47  48
ENDBRANCH  45  47
ENDBRANCH  42  43
BRANCH  42  52
ATOM     52  CB  LYS A   5      -7.008  -3.176 139.292  0.00  0.00    +0.000 C 
BRANCH  52  53
ATOM     53  CG  LYS A   5      -7.380  -1.851 138.645  0.00  0.00    +0.000 C 
BRANCH  53  54
ATOM     54  CD  LYS A   5      -7.197  -0.633 139.510  0.00  0.00    +0.000 C 
BRANCH  54  55
ATOM     55  CE  LYS A   5      -8.043  -0.807 140.771  0.00  0.00    +0.000 C 
BRANCH  55  56
ATOM     56  NZ  LYS A   5      -9.443  -0.646 140.412  0.00  0.00    +0.000 NA
ATOM     57  HZ1 LYS A   5      -9.901  -0.110 141.147  0.00  0.00    +0.000 HD
ATOM     58  HZ2 LYS A   5      -9.888  -1.561 140.404  0.00  0.00    +0.000 HD
ENDBRANCH  55  56
ENDBRANCH  54  55
ENDBRANCH  53  54
ENDBRANCH  52  53
ENDBRANCH  42  52
ENDBRANCH  40  42
ENDBRANCH  37  38
ENDBRANCH  18  31
BRANCH  22  59
ATOM     59  CB  ASN A   2      -6.836   0.681 130.498  0.00  0.00    +0.000 C 
BRANCH  59  60
ATOM     60  CG  ASN A   2      -8.189   0.897 129.980  0.00  0.00    +0.000 C 
ATOM     61  ND2 ASN A   2      -9.028   0.793 130.998  0.00  0.00    +0.000 N 
ATOM     62  OD1 ASN A   2      -8.617   0.967 128.882  0.00  0.00    +0.000 OA
ATOM     63 HD21 ASN A   2      -8.749   0.648 131.948  0.00  0.00    +0.000 HD
ATOM     64 HD22 ASN A   2      -9.923   1.242 130.922  0.00  0.00    +0.000 HD
ENDBRANCH  59  60
ENDBRANCH  22  59
BRANCH   9  65
ATOM     65  CB  TYR A   1      -3.706   3.876 130.147  0.00  0.00    +0.000 C 
BRANCH  65  66
ATOM     66  CG  TYR A   1      -2.723   4.848 130.747  0.00  0.00    +0.000 A 
ATOM     67  CD1 TYR A   1      -2.474   4.555 132.018  0.00  0.00    +0.000 A 
ATOM     68  CE1 TYR A   1      -1.471   5.139 132.745  0.00  0.00    +0.000 A 
ATOM     69  CZ  TYR A   1      -0.699   6.174 132.357  0.00  0.00    +0.000 A 
ATOM     70  CE2 TYR A   1      -1.074   6.676 131.153  0.00  0.00    +0.000 A 
ATOM     71  CD2 TYR A   1      -2.036   5.988 130.322  0.00  0.00    +0.000 A 
BRANCH  69  72
ATOM     72  OH  TYR A   1       0.056   6.875 133.255  0.00  0.00    +0.000 OA
ATOM     73  HH  TYR A   1      -0.502   7.322 133.947  0.00  0.00    +0.000 HD
ENDBRANCH  69  72
ENDBRANCH  65  66
ENDBRANCH   9  65
BRANCH   5  74
ATOM     74  CB  TYR A   1      -5.951   4.041 125.863  0.00  0.00    +0.000 C 
BRANCH  74  75
ATOM     75  CG  TYR A   1      -5.981   3.766 124.425  0.00  0.00    +0.000 A 
ATOM     76  CD1 TYR A   1      -5.063   4.263 123.478  0.00  0.00    +0.000 A 
ATOM     77  CE1 TYR A   1      -5.400   4.287 122.155  0.00  0.00    +0.000 A 
ATOM     78  CZ  TYR A   1      -6.505   3.549 121.774  0.00  0.00    +0.000 A 
ATOM     79  CE2 TYR A   1      -7.347   2.940 122.715  0.00  0.00    +0.000 A 
ATOM     80  CD2 TYR A   1      -7.115   3.089 124.053  0.00  0.00    +0.000 A 
ENDBRANCH  74  75
ENDBRANCH   5  74
BRANCH   1  81
ATOM     81  CB  TYR A   1      -7.745  -1.381 126.944  0.00  0.00    +0.000 C 
BRANCH  81  83
ATOM     82  CD1 TYR A   1      -9.316  -3.107 126.381  0.00  0.00    +0.000 C 
ATOM     83  CG  TYR A   1      -7.845  -2.763 126.372  0.00  0.00    +0.000 C 
ATOM     84  CD2 TYR A   1      -7.301  -2.790 124.956  0.00  0.00    +0.000 C 
ENDBRANCH  81  83
ENDBRANCH   1  81
TORSDOF 21
ENDMDL
MODEL 3
REMARK VINA RESULT:      -8.6      4.321     12.182
REMARK  Name = CHEMBL1765663
REMARK  23 active torsions:
REMARK  status: ('A' for Active; 'I' for Inactive)
REMARK    1  A    between atoms: CD1_1  and  CG_2
REMARK    2  A    between atoms: CG_2  and  CD2_3
REMARK    3  A    between atoms: CG_2  and  CB_4
REMARK    4  A    between atoms: CB_4  and  CA_5
REMARK    5  A    between atoms: CA_9  and  CB_10
REMARK    6  A    between atoms: CB_10  and  CG_11
REMARK    7  A    between atoms: CA_20  and  CB_21
REMARK    8  A    between atoms: CB_21  and  CG_22
REMARK    9  A    between atoms: CZ_25  and  OH_26
REMARK   10  A    between atoms: C_37  and  C_38
REMARK   11  A    between atoms: CA_44  and  C_45
REMARK   12  A    between atoms: N_47  and  CA_48
REMARK   13  A    between atoms: CA_48  and  CB_49
REMARK   14  A    between atoms: CA_48  and  C_54
REMARK   15  A    between atoms: CB_49  and  CG_50
REMARK   16  A    between atoms: CG_50  and  CD_51
REMARK   17  A    between atoms: CD_51  and  CE_52
REMARK   18  A    between atoms: CE_52  and  NZ_53
REMARK   19  A    between atoms: N_56  and  CA_57
REMARK   20  A    between atoms: CA_57  and  C_58
REMARK   21  A    between atoms: C_58  and  OXT_60
REMARK   22  A    between atoms: CA_64  and  CB_65
REMARK   23  A    between atoms: CB_65  and  CG_66
REMARK                            x       y       z     vdW  Elec       q    Type
REMARK                         _______ _______ _______ _____ _____    ______ ____
ROOT
ATOM      1  CA  TYR A   1      -7.066   3.701 125.665  0.00  0.00    +0.000 C 
ATOM      2  N   TYR A   1      -8.256   2.424 125.867  0.00  0.00    +0.000 N 
ATOM      3  C   TYR A   1      -8.473   1.048 126.342  0.00  0.00    +0.000 C 
ATOM      4  O   TYR A   1      -9.480   0.790 127.021  0.00  0.00    +0.000 OA
ATOM      5  CA  TYR A   1      -7.388  -0.161 126.013  0.00  0.00    +0.000 C 
ATOM      6  N   TYR A   1      -6.216  -0.445 126.823  0.00  0.00    +0.000 N 
ATOM      7  C   TYR A   1      -6.073  -0.845 128.106  0.00  0.00    +0.000 C 
ATOM      8  O   TYR A   1      -4.905  -1.169 128.362  0.00  0.00    +0.000 OA
ATOM      9  CA  TYR A   1      -7.340  -0.982 129.148  0.00  0.00    +0.000 C 
ATOM     10  N   TYR A   1      -7.038  -2.294 129.626  0.00  0.00    +0.000 N 
ATOM     11  C   UNK A   0      -5.986  -2.577 130.445  0.00  0.00    +0.000 C 
ATOM     12  O   UNK A   0      -5.817  -3.776 130.695  0.00  0.00    +0.000 OA
ATOM     13  C   UNK A   0      -5.037  -1.499 131.089  0.00  0.00    +0.000 C 
ATOM     14  C   UNK A   0      -5.057   0.019 130.832  0.00  0.00    +0.000 C 
ATOM     15  S   UNK A   3      -3.792   1.122 131.540  0.00  0.00    +0.000 S 
ATOM     16  S   UNK A   3      -4.934   2.871 131.593  0.00  0.00    +0.000 S 
ATOM     17  C   UNK A   3      -3.819   4.246 131.145  0.00  0.00    +0.000 C 
ATOM     18  C   UNK A   3      -4.265   5.625 130.632  0.00  0.00    +0.000 C 
ATOM     19  N   UNK A   3      -4.042   5.764 129.173  0.00  0.00    +0.000 N 
ATOM     20  C   ASN A   2      -4.579   5.046 128.165  0.00  0.00    +0.000 C 
ATOM     21  O   ASN A   2      -4.229   5.161 126.994  0.00  0.00    +0.000 OA
ATOM     22  CA  ASN A   2      -5.703   4.160 128.523  0.00  0.00    +0.000 C 
ATOM     23  N   ASN A   2      -6.811   4.874 127.822  0.00  0.00    +0.000 N 
ATOM     24  C   TYR A   1      -7.479   4.798 126.601  0.00  0.00    +0.000 C 
ATOM     25  O   TYR A   1      -8.614   5.277 126.519  0.00  0.00    +0.000 OA
ATOM     26  H   TYR A   1      -9.155   2.902 126.015  0.00  0.00    +0.000 HD
ATOM     27  H   TYR A   1      -5.311  -0.197 126.408  0.00  0.00    +0.000 HD
ATOM     28  H   TYR A   1      -7.481  -3.082 129.164  0.00  0.00    +0.000 HD
ATOM     29  H   UNK A   3      -3.415   6.492 128.846  0.00  0.00    +0.000 HD
ATOM     30  H   ASN A   2      -7.317   5.434 128.503  0.00  0.00    +0.000 HD
ENDROOT
BRANCH  18  31
ATOM     31  C   UNK A   3      -3.491   6.809 131.324  0.00  0.00    +0.000 C 
ATOM     32  O   UNK A   3      -3.449   7.906 130.753  0.00  0.00    +0.000 OA
ATOM     33  N   PRO A   4      -3.093   6.658 132.645  0.00  0.00    +0.000 N 
ATOM     34  CD  PRO A   4      -2.337   5.583 133.273  0.00  0.00    +0.000 C 
ATOM     35  CG  PRO A   4      -2.934   5.567 134.649  0.00  0.00    +0.000 C 
ATOM     36  CB  PRO A   4      -2.954   7.046 134.987  0.00  0.00    +0.000 C 
ATOM     37  CA  PRO A   4      -3.148   7.769 133.635  0.00  0.00    +0.000 C 
BRANCH  37  38
ATOM     38  C   PRO A   4      -1.958   8.745 133.544  0.00  0.00    +0.000 C 
ATOM     39  O   PRO A   4      -0.902   8.382 133.023  0.00  0.00    +0.000 OA
ATOM     40  N   LYS A   5      -2.106   9.989 134.154  0.00  0.00    +0.000 N 
ATOM     41  H   LYS A   5      -2.850  10.153 134.826  0.00  0.00    +0.000 HD
BRANCH  40  42
ATOM     42  CA  LYS A   5      -1.123  11.098 133.987  0.00  0.00    +0.000 C 
BRANCH  42  43
ATOM     43  C   LYS A   5      -0.038  11.076 135.125  0.00  0.00    +0.000 C 
ATOM     44  O   LYS A   5       0.032  10.142 135.926  0.00  0.00    +0.000 OA
ATOM     45  N   GLY A   6       0.842  12.144 135.192  0.00  0.00    +0.000 N 
ATOM     46  H   GLY A   6       0.792  12.914 134.528  0.00  0.00    +0.000 HD
BRANCH  45  47
ATOM     47  CA  GLY A   6       1.882  12.258 136.228  0.00  0.00    +0.000 C 
BRANCH  47  48
ATOM     48  C   GLY A   6       3.290  12.187 135.627  0.00  0.00    +0.000 C 
ATOM     49  O   GLY A   6       4.251  11.721 136.228  0.00  0.00    +0.000 OA
BRANCH  48  50
ATOM     50  OXT GLY A   6       3.414  12.675 134.371  0.00  0.00    +0.000 OA
ATOM     51  HXT GLY A   6       4.110  12.292 133.803  0.00  0.00    +0.000 HD
ENDBRANCH  48  50
ENDBRANCH  47  48
ENDBRANCH  45  47
ENDBRANCH  42  43
BRANCH  42  52
ATOM     52  CB  LYS A   5      -1.846  12.462 134.007  0.00  0.00    +0.000 C 
BRANCH  52  53
ATOM     53  CG  LYS A   5      -1.559  13.285 132.761  0.00  0.00    +0.000 C 
BRANCH  53  54
ATOM     54  CD  LYS A   5      -1.051  12.510 131.576  0.00  0.00    +0.000 C 
BRANCH  54  55
ATOM     55  CE  LYS A   5       0.273  13.129 131.126  0.00  0.00    +0.000 C 
BRANCH  55  56
ATOM     56  NZ  LYS A   5       1.230  13.009 132.215  0.00  0.00    +0.000 NA
ATOM     57  HZ1 LYS A   5       1.612  13.933 132.406  0.00  0.00    +0.000 HD
ATOM     58  HZ2 LYS A   5       2.010  12.435 131.904  0.00  0.00    +0.000 HD
ENDBRANCH  55  56
ENDBRANCH  54  55
ENDBRANCH  53  54
ENDBRANCH  52  53
ENDBRANCH  42  52
ENDBRANCH  40  42
ENDBRANCH  37  38
ENDBRANCH  18  31
BRANCH  22  59
ATOM     59  CB  ASN A   2      -5.105   2.743 128.537  0.00  0.00    +0.000 C 
BRANCH  59  60
ATOM     60  CG  ASN A   2      -4.153   2.285 127.521  0.00  0.00    +0.000 C 
ATOM     61  ND2 ASN A   2      -2.935   2.539 127.973  0.00  0.00    +0.000 N 
ATOM     62  OD1 ASN A   2      -4.293   1.925 126.406  0.00  0.00    +0.000 OA
ATOM     63 HD21 ASN A   2      -2.735   2.923 128.875  0.00  0.00    +0.000 HD
ATOM     64 HD22 ASN A   2      -2.171   2.001 127.605  0.00  0.00    +0.000 HD
ENDBRANCH  59  60
ENDBRANCH  22  59
BRANCH   9  65
ATOM     65  CB  TYR A   1      -7.945  -0.159 130.445  0.00  0.00    +0.000 C 
BRANCH  65  66
ATOM     66  CG  TYR A   1      -8.632   1.174 130.292  0.00  0.00    +0.000 A 
ATOM     67  CD1 TYR A   1      -9.557   1.348 131.229  0.00  0.00    +0.000 A 
ATOM     68  CE1 TYR A   1     -10.186   2.542 131.455  0.00  0.00    +0.000 A 
ATOM     69  CZ  TYR A   1     -10.089   3.656 130.700  0.00  0.00    +0.000 A 
ATOM     70  CE2 TYR A   1      -9.341   3.459 129.585  0.00  0.00    +0.000 A 
ATOM     71  CD2 TYR A   1      -8.567   2.252 129.405  0.00  0.00    +0.000 A 
BRANCH  69  72
ATOM     72  OH  TYR A   1     -10.979   4.684 130.831  0.00  0.00    +0.000 OA
ATOM     73  HH  TYR A   1     -10.588   5.557 130.555  0.00  0.00    +0.000 HD
ENDBRANCH  69  72
ENDBRANCH  65  66
ENDBRANCH   9  65
BRANCH   5  74
ATOM     74  CB  TYR A   1      -7.912  -1.524 125.804  0.00  0.00    +0.000 C 
BRANCH  74  75
ATOM     75  CG  TYR A   1      -7.146  -2.180 124.740  0.00  0.00    +0.000 A 
ATOM     76  CD1 TYR A   1      -6.315  -3.306 124.908  0.00  0.00    +0.000 A 
ATOM     77  CE1 TYR A   1      -5.355  -3.583 123.977  0.00  0.00    +0.000 A 
ATOM     78  CZ  TYR A   1      -5.442  -2.921 122.767  0.00  0.00    +0.000 A 
ATOM     79  CE2 TYR A   1      -6.363  -1.885 122.557  0.00  0.00    +0.000 A 
ATOM     80  CD2 TYR A   1      -7.189  -1.476 123.564  0.00  0.00    +0.000 A 
ENDBRANCH  74  75
ENDBRANCH   5  74
BRANCH   1  81
ATOM     81  CB  TYR A   1      -5.994   3.821 124.567  0.00  0.00    +0.000 C 
BRANCH  81  83
ATOM     82  CD1 TYR A   1      -5.516   4.186 122.243  0.00  0.00    +0.000 C 
ATOM     83  CG  TYR A   1      -6.567   3.659 123.191  0.00  0.00    +0.000 C 
ATOM     84  CD2 TYR A   1      -6.854   2.197 122.907  0.00  0.00    +0.000 C 
ENDBRANCH  81  83
ENDBRANCH   1  81
TORSDOF 21
ENDMDL
MODEL 4
REMARK VINA RESULT:      -8.5      4.346     12.068
REMARK  Name = CHEMBL1765663
REMARK  23 active torsions:
REMARK  status: ('A' for Active; 'I' for Inactive)
REMARK    1  A    between atoms: CD1_1  and  CG_2
REMARK    2  A    between atoms: CG_2  and  CD2_3
REMARK    3  A    between atoms: CG_2  and  CB_4
REMARK    4  A    between atoms: CB_4  and  CA_5
REMARK    5  A    between atoms: CA_9  and  CB_10
REMARK    6  A    between atoms: CB_10  and  CG_11
REMARK    7  A    between atoms: CA_20  and  CB_21
REMARK    8  A    between atoms: CB_21  and  CG_22
REMARK    9  A    between atoms: CZ_25  and  OH_26
REMARK   10  A    between atoms: C_37  and  C_38
REMARK   11  A    between atoms: CA_44  and  C_45
REMARK   12  A    between atoms: N_47  and  CA_48
REMARK   13  A    between atoms: CA_48  and  CB_49
REMARK   14  A    between atoms: CA_48  and  C_54
REMARK   15  A    between atoms: CB_49  and  CG_50
REMARK   16  A    between atoms: CG_50  and  CD_51
REMARK   17  A    between atoms: CD_51  and  CE_52
REMARK   18  A    between atoms: CE_52  and  NZ_53
REMARK   19  A    between atoms: N_56  and  CA_57
REMARK   20  A    between atoms: CA_57  and  C_58
REMARK   21  A    between atoms: C_58  and  OXT_60
REMARK   22  A    between atoms: CA_64  and  CB_65
REMARK   23  A    between atoms: CB_65  and  CG_66
REMARK                            x       y       z     vdW  Elec       q    Type
REMARK                         _______ _______ _______ _____ _____    ______ ____
ROOT
ATOM      1  CA  TYR A   1      -6.871   3.173 125.837  0.00  0.00    +0.000 C 
ATOM      2  N   TYR A   1      -7.920   1.790 126.112  0.00  0.00    +0.000 N 
ATOM      3  C   TYR A   1      -8.004   0.445 126.703  0.00  0.00    +0.000 C 
ATOM      4  O   TYR A   1      -9.005   0.134 127.367  0.00  0.00    +0.000 OA
ATOM      5  CA  TYR A   1      -6.777  -0.656 126.524  0.00  0.00    +0.000 C 
ATOM      6  N   TYR A   1      -5.619  -0.732 127.397  0.00  0.00    +0.000 N 
ATOM      7  C   TYR A   1      -5.491  -1.000 128.715  0.00  0.00    +0.000 C 
ATOM      8  O   TYR A   1      -4.307  -1.164 129.041  0.00  0.00    +0.000 OA
ATOM      9  CA  TYR A   1      -6.780  -1.191 129.720  0.00  0.00    +0.000 C 
ATOM     10  N   TYR A   1      -6.356  -2.413 130.327  0.00  0.00    +0.000 N 
ATOM     11  C   UNK A   0      -5.317  -2.501 131.205  0.00  0.00    +0.000 C 
ATOM     12  O   UNK A   0      -5.027  -3.646 131.568  0.00  0.00    +0.000 OA
ATOM     13  C   UNK A   0      -4.524  -1.270 131.780  0.00  0.00    +0.000 C 
ATOM     14  C   UNK A   0      -4.701   0.207 131.385  0.00  0.00    +0.000 C 
ATOM     15  S   UNK A   3      -3.599   1.506 132.033  0.00  0.00    +0.000 S 
ATOM     16  S   UNK A   3      -4.930   3.110 131.887  0.00  0.00    +0.000 S 
ATOM     17  C   UNK A   3      -3.955   4.560 131.354  0.00  0.00    +0.000 C 
ATOM     18  C   UNK A   3      -4.528   5.829 130.702  0.00  0.00    +0.000 C 
ATOM     19  N   UNK A   3      -4.256   5.866 129.245  0.00  0.00    +0.000 N 
ATOM     20  C   ASN A   2      -4.664   5.006 128.289  0.00  0.00    +0.000 C 
ATOM     21  O   ASN A   2      -4.277   5.058 127.124  0.00  0.00    +0.000 OA
ATOM     22  CA  ASN A   2      -5.698   4.031 128.686  0.00  0.00    +0.000 C 
ATOM     23  N   ASN A   2      -6.846   4.550 127.884  0.00  0.00    +0.000 N 
ATOM     24  C   TYR A   1      -7.445   4.292 126.654  0.00  0.00    +0.000 C 
ATOM     25  O   TYR A   1      -8.622   4.630 126.488  0.00  0.00    +0.000 OA
ATOM     26  H   TYR A   1      -8.873   2.174 126.185  0.00  0.00    +0.000 HD
ATOM     27  H   TYR A   1      -4.729  -0.419 126.993  0.00  0.00    +0.000 HD
ATOM     28  H   TYR A   1      -6.688  -3.283 129.924  0.00  0.00    +0.000 HD
ATOM     29  H   UNK A   3      -3.700   6.629 128.875  0.00  0.00    +0.000 HD
ATOM     30  H   ASN A   2      -7.441   5.105 128.494  0.00  0.00    +0.000 HD
ENDROOT
BRANCH  18  31
ATOM     31  C   UNK A   3      -3.922   7.149 131.309  0.00  0.00    +0.000 C 
ATOM     32  O   UNK A   3      -4.632   8.162 131.356  0.00  0.00    +0.000 OA
ATOM     33  N   PRO A   4      -2.712   7.075 131.985  0.00  0.00    +0.000 N 
ATOM     34  CD  PRO A   4      -1.444   6.496 131.562  0.00  0.00    +0.000 C 
ATOM     35  CG  PRO A   4      -0.896   6.001 132.868  0.00  0.00    +0.000 C 
ATOM     36  CB  PRO A   4      -1.149   7.191 133.773  0.00  0.00    +0.000 C 
ATOM     37  CA  PRO A   4      -2.428   7.859 133.217  0.00  0.00    +0.000 C 
BRANCH  37  38
ATOM     38  C   PRO A   4      -2.014   9.319 132.946  0.00  0.00    +0.000 C 
ATOM     39  O   PRO A   4      -2.534   9.945 132.021  0.00  0.00    +0.000 OA
ATOM     40  N   LYS A   5      -0.981   9.844 133.720  0.00  0.00    +0.000 N 
ATOM     41  H   LYS A   5      -0.372   9.232 134.256  0.00  0.00    +0.000 HD
BRANCH  40  42
ATOM     42  CA  LYS A   5      -0.604  11.287 133.704  0.00  0.00    +0.000 C 
BRANCH  42  43
ATOM     43  C   LYS A   5      -1.858  12.208 133.929  0.00  0.00    +0.000 C 
ATOM     44  O   LYS A   5      -2.536  12.127 134.955  0.00  0.00    +0.000 OA
ATOM     45  N   GLY A   6      -2.171  13.118 132.933  0.00  0.00    +0.000 N 
ATOM     46  H   GLY A   6      -1.609  13.193 132.088  0.00  0.00    +0.000 HD
BRANCH  45  47
ATOM     47  CA  GLY A   6      -3.336  14.016 133.009  0.00  0.00    +0.000 C 
BRANCH  47  48
ATOM     48  C   GLY A   6      -3.034  15.389 132.399  0.00  0.00    +0.000 C 
ATOM     49  O   GLY A   6      -3.180  16.439 133.014  0.00  0.00    +0.000 OA
BRANCH  48  50
ATOM     50  OXT GLY A   6      -2.588  15.375 131.122  0.00  0.00    +0.000 OA
ATOM     51  HXT GLY A   6      -2.073  16.145 130.815  0.00  0.00    +0.000 HD
ENDBRANCH  48  50
ENDBRANCH  47  48
ENDBRANCH  45  47
ENDBRANCH  42  43
BRANCH  42  52
ATOM     52  CB  LYS A   5       0.054  11.652 132.356  0.00  0.00    +0.000 C 
BRANCH  52  53
ATOM     53  CG  LYS A   5       1.566  11.773 132.467  0.00  0.00    +0.000 C 
BRANCH  53  54
ATOM     54  CD  LYS A   5       2.079  12.304 133.778  0.00  0.00    +0.000 C 
BRANCH  54  55
ATOM     55  CE  LYS A   5       2.262  13.816 133.647  0.00  0.00    +0.000 C 
BRANCH  55  56
ATOM     56  NZ  LYS A   5       2.106  14.414 134.964  0.00  0.00    +0.000 NA
ATOM     57  HZ1 LYS A   5       1.168  14.806 135.026  0.00  0.00    +0.000 HD
ATOM     58  HZ2 LYS A   5       2.750  15.196 135.048  0.00  0.00    +0.000 HD
ENDBRANCH  55  56
ENDBRANCH  54  55
ENDBRANCH  53  54
ENDBRANCH  52  53
ENDBRANCH  42  52
ENDBRANCH  40  42
ENDBRANCH  37  38
ENDBRANCH  18  31
BRANCH  22  59
ATOM     59  CB  ASN A   2      -4.947   2.699 128.850  0.00  0.00    +0.000 C 
BRANCH  59  60
ATOM     60  CG  ASN A   2      -3.643   2.453 128.229  0.00  0.00    +0.000 C 
ATOM     61  ND2 ASN A   2      -3.857   1.816 127.089  0.00  0.00    +0.000 N 
ATOM     62  OD1 ASN A   2      -2.539   2.565 128.631  0.00  0.00    +0.000 OA
ATOM     63 HD21 ASN A   2      -4.764   1.607 126.720  0.00  0.00    +0.000 HD
ATOM     64 HD22 ASN A   2      -3.153   1.873 126.375  0.00  0.00    +0.000 HD
ENDBRANCH  59  60
ENDBRANCH  22  59
BRANCH   9  65
ATOM     65  CB  TYR A   1      -7.531  -0.333 130.915  0.00  0.00    +0.000 C 
BRANCH  65  66
ATOM     66  CG  TYR A   1      -8.374   0.880 130.615  0.00  0.00    +0.000 A 
ATOM     67  CD1 TYR A   1      -9.357   1.012 131.497  0.00  0.00    +0.000 A 
ATOM     68  CE1 TYR A   1     -10.144   2.128 131.590  0.00  0.00    +0.000 A 
ATOM     69  CZ  TYR A   1     -10.154   3.175 130.739  0.00  0.00    +0.000 A 
ATOM     70  CE2 TYR A   1      -9.335   2.981 129.674  0.00  0.00    +0.000 A 
ATOM     71  CD2 TYR A   1      -8.405   1.875 129.635  0.00  0.00    +0.000 A 
BRANCH  69  72
ATOM     72  OH  TYR A   1     -11.173   4.084 130.741  0.00  0.00    +0.000 OA
ATOM     73  HH  TYR A   1     -11.783   3.967 129.965  0.00  0.00    +0.000 HD
ENDBRANCH  69  72
ENDBRANCH  65  66
ENDBRANCH   9  65
BRANCH   5  74
ATOM     74  CB  TYR A   1      -7.137  -2.083 126.422  0.00  0.00    +0.000 C 
BRANCH  74  75
ATOM     75  CG  TYR A   1      -7.614  -2.366 125.066  0.00  0.00    +0.000 A 
ATOM     76  CD1 TYR A   1      -7.097  -1.798 123.883  0.00  0.00    +0.000 A 
ATOM     77  CE1 TYR A   1      -7.849  -1.806 122.742  0.00  0.00    +0.000 A 
ATOM     78  CZ  TYR A   1      -8.956  -2.633 122.725  0.00  0.00    +0.000 A 
ATOM     79  CE2 TYR A   1      -9.395  -3.305 123.875  0.00  0.00    +0.000 A 
ATOM     80  CD2 TYR A   1      -8.751  -3.133 125.067  0.00  0.00    +0.000 A 
ENDBRANCH  74  75
ENDBRANCH   5  74
BRANCH   1  81
ATOM     81  CB  TYR A   1      -5.770   3.320 124.770  0.00  0.00    +0.000 C 
BRANCH  81  83
ATOM     82  CD1 TYR A   1      -5.170   4.348 122.685  0.00  0.00    +0.000 C 
ATOM     83  CG  TYR A   1      -6.321   3.720 123.434  0.00  0.00    +0.000 C 
ATOM     84  CD2 TYR A   1      -6.840   2.505 122.690  0.00  0.00    +0.000 C 
ENDBRANCH  81  83
ENDBRANCH   1  81
TORSDOF 21
ENDMDL
MODEL 5
REMARK VINA RESULT:      -8.5      3.574     11.726
REMARK  Name = CHEMBL1765663
REMARK  23 active torsions:
REMARK  status: ('A' for Active; 'I' for Inactive)
REMARK    1  A    between atoms: CD1_1  and  CG_2
REMARK    2  A    between atoms: CG_2  and  CD2_3
REMARK    3  A    between atoms: CG_2  and  CB_4
REMARK    4  A    between atoms: CB_4  and  CA_5
REMARK    5  A    between atoms: CA_9  and  CB_10
REMARK    6  A    between atoms: CB_10  and  CG_11
REMARK    7  A    between atoms: CA_20  and  CB_21
REMARK    8  A    between atoms: CB_21  and  CG_22
REMARK    9  A    between atoms: CZ_25  and  OH_26
REMARK   10  A    between atoms: C_37  and  C_38
REMARK   11  A    between atoms: CA_44  and  C_45
REMARK   12  A    between atoms: N_47  and  CA_48
REMARK   13  A    between atoms: CA_48  and  CB_49
REMARK   14  A    between atoms: CA_48  and  C_54
REMARK   15  A    between atoms: CB_49  and  CG_50
REMARK   16  A    between atoms: CG_50  and  CD_51
REMARK   17  A    between atoms: CD_51  and  CE_52
REMARK   18  A    between atoms: CE_52  and  NZ_53
REMARK   19  A    between atoms: N_56  and  CA_57
REMARK   20  A    between atoms: CA_57  and  C_58
REMARK   21  A    between atoms: C_58  and  OXT_60
REMARK   22  A    between atoms: CA_64  and  CB_65
REMARK   23  A    between atoms: CB_65  and  CG_66
REMARK                            x       y       z     vdW  Elec       q    Type
REMARK                         _______ _______ _______ _____ _____    ______ ____
ROOT
ATOM      1  CA  TYR A   1      -6.937   2.895 126.101  0.00  0.00    +0.000 C 
ATOM      2  N   TYR A   1      -7.929   1.449 126.209  0.00  0.00    +0.000 N 
ATOM      3  C   TYR A   1      -7.968   0.050 126.662  0.00  0.00    +0.000 C 
ATOM      4  O   TYR A   1      -8.970  -0.368 127.264  0.00  0.00    +0.000 OA
ATOM      5  CA  TYR A   1      -6.690  -0.976 126.410  0.00  0.00    +0.000 C 
ATOM      6  N   TYR A   1      -5.550  -1.091 127.303  0.00  0.00    +0.000 N 
ATOM      7  C   TYR A   1      -5.441  -1.483 128.591  0.00  0.00    +0.000 C 
ATOM      8  O   TYR A   1      -4.259  -1.630 128.931  0.00  0.00    +0.000 OA
ATOM      9  CA  TYR A   1      -6.745  -1.827 129.536  0.00  0.00    +0.000 C 
ATOM     10  N   TYR A   1      -6.281  -3.085 130.030  0.00  0.00    +0.000 N 
ATOM     11  C   UNK A   0      -5.261  -3.217 130.924  0.00  0.00    +0.000 C 
ATOM     12  O   UNK A   0      -4.929  -4.380 131.180  0.00  0.00    +0.000 OA
ATOM     13  C   UNK A   0      -4.536  -2.017 131.640  0.00  0.00    +0.000 C 
ATOM     14  C   UNK A   0      -4.769  -0.517 131.387  0.00  0.00    +0.000 C 
ATOM     15  S   UNK A   3      -3.741   0.755 132.191  0.00  0.00    +0.000 S 
ATOM     16  S   UNK A   3      -5.137   2.310 132.167  0.00  0.00    +0.000 S 
ATOM     17  C   UNK A   3      -4.215   3.844 131.807  0.00  0.00    +0.000 C 
ATOM     18  C   UNK A   3      -4.828   5.148 131.268  0.00  0.00    +0.000 C 
ATOM     19  N   UNK A   3      -4.524   5.340 129.830  0.00  0.00    +0.000 N 
ATOM     20  C   ASN A   2      -4.871   4.564 128.782  0.00  0.00    +0.000 C 
ATOM     21  O   ASN A   2      -4.459   4.749 127.640  0.00  0.00    +0.000 OA
ATOM     22  CA  ASN A   2      -5.869   3.513 129.053  0.00  0.00    +0.000 C 
ATOM     23  N   ASN A   2      -7.020   4.061 128.274  0.00  0.00    +0.000 N 
ATOM     24  C   TYR A   1      -7.579   3.902 127.008  0.00  0.00    +0.000 C 
ATOM     25  O   TYR A   1      -8.765   4.205 126.843  0.00  0.00    +0.000 OA
ATOM     26  H   TYR A   1      -8.900   1.783 126.293  0.00  0.00    +0.000 HD
ATOM     27  H   TYR A   1      -4.666  -0.703 126.956  0.00  0.00    +0.000 HD
ATOM     28  H   TYR A   1      -6.565  -3.923 129.534  0.00  0.00    +0.000 HD
ATOM     29  H   UNK A   3      -3.993   6.160 129.552  0.00  0.00    +0.000 HD
ATOM     30  H   ASN A   2      -7.653   4.527 128.919  0.00  0.00    +0.000 HD
ENDROOT
BRANCH  18  31
ATOM     31  C   UNK A   3      -4.296   6.424 132.019  0.00  0.00    +0.000 C 
ATOM     32  O   UNK A   3      -5.066   7.036 132.770  0.00  0.00    +0.000 OA
ATOM     33  N   PRO A   4      -2.932   6.682 132.005  0.00  0.00    +0.000 N 
ATOM     34  CD  PRO A   4      -2.011   6.763 130.880  0.00  0.00    +0.000 C 
ATOM     35  CG  PRO A   4      -0.746   6.243 131.496  0.00  0.00    +0.000 C 
ATOM     36  CB  PRO A   4      -0.717   6.998 132.811  0.00  0.00    +0.000 C 
ATOM     37  CA  PRO A   4      -2.201   7.214 133.187  0.00  0.00    +0.000 C 
BRANCH  37  38
ATOM     38  C   PRO A   4      -2.335   8.739 133.370  0.00  0.00    +0.000 C 
ATOM     39  O   PRO A   4      -2.360   9.478 132.384  0.00  0.00    +0.000 OA
ATOM     40  N   LYS A   5      -2.327   9.229 134.674  0.00  0.00    +0.000 N 
ATOM     41  H   LYS A   5      -2.006   8.649 135.444  0.00  0.00    +0.000 HD
BRANCH  40  42
ATOM     42  CA  LYS A   5      -2.637  10.648 135.012  0.00  0.00    +0.000 C 
BRANCH  42  43
ATOM     43  C   LYS A   5      -1.447  11.600 134.627  0.00  0.00    +0.000 C 
ATOM     44  O   LYS A   5      -0.461  11.720 135.357  0.00  0.00    +0.000 OA
ATOM     45  N   GLY A   6      -1.545  12.297 133.434  0.00  0.00    +0.000 N 
ATOM     46  H   GLY A   6      -2.354  12.195 132.826  0.00  0.00    +0.000 HD
BRANCH  45  47
ATOM     47  CA  GLY A   6      -0.513  13.243 132.975  0.00  0.00    +0.000 C 
BRANCH  47  48
ATOM     48  C   GLY A   6       0.494  12.570 132.037  0.00  0.00    +0.000 C 
ATOM     49  O   GLY A   6       0.575  12.835 130.843  0.00  0.00    +0.000 OA
BRANCH  48  50
ATOM     50  OXT GLY A   6       1.305  11.652 132.612  0.00  0.00    +0.000 OA
ATOM     51  HXT GLY A   6       2.130  11.421 132.144  0.00  0.00    +0.000 HD
ENDBRANCH  48  50
ENDBRANCH  47  48
ENDBRANCH  45  47
ENDBRANCH  42  43
BRANCH  42  52
ATOM     52  CB  LYS A   5      -2.926  10.787 136.522  0.00  0.00    +0.000 C 
BRANCH  52  53
ATOM     53  CG  LYS A   5      -4.259  10.169 136.914  0.00  0.00    +0.000 C 
BRANCH  53  54
ATOM     54  CD  LYS A   5      -4.174   8.861 137.652  0.00  0.00    +0.000 C 
BRANCH  54  55
ATOM     55  CE  LYS A   5      -5.180   7.891 137.032  0.00  0.00    +0.000 C 
BRANCH  55  56
ATOM     56  NZ  LYS A   5      -4.548   7.237 135.898  0.00  0.00    +0.000 NA
ATOM     57  HZ1 LYS A   5      -4.942   6.302 135.809  0.00  0.00    +0.000 HD
ATOM     58  HZ2 LYS A   5      -3.559   7.112 136.099  0.00  0.00    +0.000 HD
ENDBRANCH  55  56
ENDBRANCH  54  55
ENDBRANCH  53  54
ENDBRANCH  52  53
ENDBRANCH  42  52
ENDBRANCH  40  42
ENDBRANCH  37  38
ENDBRANCH  18  31
BRANCH  22  59
ATOM     59  CB  ASN A   2      -5.065   2.203 129.105  0.00  0.00    +0.000 C 
BRANCH  59  60
ATOM     60  CG  ASN A   2      -4.065   1.857 128.092  0.00  0.00    +0.000 C 
ATOM     61  ND2 ASN A   2      -2.890   2.278 128.530  0.00  0.00    +0.000 N 
ATOM     62  OD1 ASN A   2      -4.161   1.461 126.984  0.00  0.00    +0.000 OA
ATOM     63 HD21 ASN A   2      -2.739   2.702 129.425  0.00  0.00    +0.000 HD
ATOM     64 HD22 ASN A   2      -2.063   1.840 128.166  0.00  0.00    +0.000 HD
ENDBRANCH  59  60
ENDBRANCH  22  59
BRANCH   9  65
ATOM     65  CB  TYR A   1      -7.560  -1.124 130.789  0.00  0.00    +0.000 C 
BRANCH  65  66
ATOM     66  CG  TYR A   1      -8.314   0.170 130.621  0.00  0.00    +0.000 A 
ATOM     67  CD1 TYR A   1      -9.157   0.369 131.627  0.00  0.00    +0.000 A 
ATOM     68  CE1 TYR A   1      -9.813   1.551 131.840  0.00  0.00    +0.000 A 
ATOM     69  CZ  TYR A   1      -9.832   2.617 131.014  0.00  0.00    +0.000 A 
ATOM     70  CE2 TYR A   1      -9.181   2.378 129.848  0.00  0.00    +0.000 A 
ATOM     71  CD2 TYR A   1      -8.375   1.192 129.669  0.00  0.00    +0.000 A 
BRANCH  69  72
ATOM     72  OH  TYR A   1     -10.749   3.619 131.165  0.00  0.00    +0.000 OA
ATOM     73  HH  TYR A   1     -11.625   3.280 131.495  0.00  0.00    +0.000 HD
ENDBRANCH  69  72
ENDBRANCH  65  66
ENDBRANCH   9  65
BRANCH   5  74
ATOM     74  CB  TYR A   1      -6.984  -2.400 126.157  0.00  0.00    +0.000 C 
BRANCH  74  75
ATOM     75  CG  TYR A   1      -7.577  -2.542 124.825  0.00  0.00    +0.000 A 
ATOM     76  CD1 TYR A   1      -7.130  -1.890 123.657  0.00  0.00    +0.000 A 
ATOM     77  CE1 TYR A   1      -7.969  -1.768 122.586  0.00  0.00    +0.000 A 
ATOM     78  CZ  TYR A   1      -9.108  -2.550 122.587  0.00  0.00    +0.000 A 
ATOM     79  CE2 TYR A   1      -9.484  -3.306 123.706  0.00  0.00    +0.000 A 
ATOM     80  CD2 TYR A   1      -8.742  -3.266 124.852  0.00  0.00    +0.000 A 
ENDBRANCH  74  75
ENDBRANCH   5  74
BRANCH   1  81
ATOM     81  CB  TYR A   1      -5.818   3.193 125.085  0.00  0.00    +0.000 C 
BRANCH  81  83
ATOM     82  CD1 TYR A   1      -5.227   4.366 123.075  0.00  0.00    +0.000 C 
ATOM     83  CG  TYR A   1      -6.358   3.633 123.757  0.00  0.00    +0.000 C 
ATOM     84  CD2 TYR A   1      -6.785   2.432 122.935  0.00  0.00    +0.000 C 
ENDBRANCH  81  83
ENDBRANCH   1  81
TORSDOF 21
ENDMDL
MODEL 6
REMARK VINA RESULT:      -8.5      3.586     11.726
REMARK  Name = CHEMBL1765663
REMARK  23 active torsions:
REMARK  status: ('A' for Active; 'I' for Inactive)
REMARK    1  A    between atoms: CD1_1  and  CG_2
REMARK    2  A    between atoms: CG_2  and  CD2_3
REMARK    3  A    between atoms: CG_2  and  CB_4
REMARK    4  A    between atoms: CB_4  and  CA_5
REMARK    5  A    between atoms: CA_9  and  CB_10
REMARK    6  A    between atoms: CB_10  and  CG_11
REMARK    7  A    between atoms: CA_20  and  CB_21
REMARK    8  A    between atoms: CB_21  and  CG_22
REMARK    9  A    between atoms: CZ_25  and  OH_26
REMARK   10  A    between atoms: C_37  and  C_38
REMARK   11  A    between atoms: CA_44  and  C_45
REMARK   12  A    between atoms: N_47  and  CA_48
REMARK   13  A    between atoms: CA_48  and  CB_49
REMARK   14  A    between atoms: CA_48  and  C_54
REMARK   15  A    between atoms: CB_49  and  CG_50
REMARK   16  A    between atoms: CG_50  and  CD_51
REMARK   17  A    between atoms: CD_51  and  CE_52
REMARK   18  A    between atoms: CE_52  and  NZ_53
REMARK   19  A    between atoms: N_56  and  CA_57
REMARK   20  A    between atoms: CA_57  and  C_58
REMARK   21  A    between atoms: C_58  and  OXT_60
REMARK   22  A    between atoms: CA_64  and  CB_65
REMARK   23  A    between atoms: CB_65  and  CG_66
REMARK                            x       y       z     vdW  Elec       q    Type
REMARK                         _______ _______ _______ _____ _____    ______ ____
ROOT
ATOM      1  CA  TYR A   1      -7.018   3.519 126.399  0.00  0.00    +0.000 C 
ATOM      2  N   TYR A   1      -8.195   2.215 126.357  0.00  0.00    +0.000 N 
ATOM      3  C   TYR A   1      -8.409   0.781 126.611  0.00  0.00    +0.000 C 
ATOM      4  O   TYR A   1      -9.439   0.415 127.200  0.00  0.00    +0.000 OA
ATOM      5  CA  TYR A   1      -7.293  -0.355 126.151  0.00  0.00    +0.000 C 
ATOM      6  N   TYR A   1      -6.151  -0.747 126.959  0.00  0.00    +0.000 N 
ATOM      7  C   TYR A   1      -6.054  -1.332 128.172  0.00  0.00    +0.000 C 
ATOM      8  O   TYR A   1      -4.893  -1.681 128.426  0.00  0.00    +0.000 OA
ATOM      9  CA  TYR A   1      -7.360  -1.637 129.127  0.00  0.00    +0.000 C 
ATOM     10  N   TYR A   1      -7.057  -3.003 129.416  0.00  0.00    +0.000 N 
ATOM     11  C   UNK A   0      -6.035  -3.396 130.228  0.00  0.00    +0.000 C 
ATOM     12  O   UNK A   0      -5.857  -4.616 130.301  0.00  0.00    +0.000 OA
ATOM     13  C   UNK A   0      -5.130  -2.417 131.065  0.00  0.00    +0.000 C 
ATOM     14  C   UNK A   0      -5.163  -0.879 131.037  0.00  0.00    +0.000 C 
ATOM     15  S   UNK A   3      -3.945   0.117 131.955  0.00  0.00    +0.000 S 
ATOM     16  S   UNK A   3      -5.115   1.828 132.221  0.00  0.00    +0.000 S 
ATOM     17  C   UNK A   3      -4.004   3.265 132.031  0.00  0.00    +0.000 C 
ATOM     18  C   UNK A   3      -4.450   4.701 131.712  0.00  0.00    +0.000 C 
ATOM     19  N   UNK A   3      -4.171   5.060 130.301  0.00  0.00    +0.000 N 
ATOM     20  C   ASN A   2      -4.655   4.496 129.175  0.00  0.00    +0.000 C 
ATOM     21  O   ASN A   2      -4.260   4.789 128.050  0.00  0.00    +0.000 OA
ATOM     22  CA  ASN A   2      -5.779   3.556 129.348  0.00  0.00    +0.000 C 
ATOM     23  N   ASN A   2      -6.869   4.357 128.715  0.00  0.00    +0.000 N 
ATOM     24  C   TYR A   1      -7.486   4.458 127.470  0.00  0.00    +0.000 C 
ATOM     25  O   TYR A   1      -8.624   4.935 127.412  0.00  0.00    +0.000 OA
ATOM     26  H   TYR A   1      -9.107   2.657 126.537  0.00  0.00    +0.000 HD
ATOM     27  H   TYR A   1      -5.234  -0.431 126.624  0.00  0.00    +0.000 HD
ATOM     28  H   TYR A   1      -7.469  -3.716 128.823  0.00  0.00    +0.000 HD
ATOM     29  H   UNK A   3      -3.543   5.834 130.113  0.00  0.00    +0.000 HD
ATOM     30  H   ASN A   2      -7.411   4.803 129.451  0.00  0.00    +0.000 HD
ENDROOT
BRANCH  18  31
ATOM     31  C   UNK A   3      -3.724   5.775 132.605  0.00  0.00    +0.000 C 
ATOM     32  O   UNK A   3      -3.035   6.641 132.052  0.00  0.00    +0.000 OA
ATOM     33  N   PRO A   4      -4.067   5.863 133.947  0.00  0.00    +0.000 N 
ATOM     34  CD  PRO A   4      -4.126   4.821 134.964  0.00  0.00    +0.000 C 
ATOM     35  CG  PRO A   4      -5.255   5.310 135.822  0.00  0.00    +0.000 C 
ATOM     36  CB  PRO A   4      -4.904   6.777 135.976  0.00  0.00    +0.000 C 
ATOM     37  CA  PRO A   4      -4.177   7.161 134.667  0.00  0.00    +0.000 C 
BRANCH  37  38
ATOM     38  C   PRO A   4      -2.823   7.734 135.131  0.00  0.00    +0.000 C 
ATOM     39  O   PRO A   4      -2.423   7.519 136.277  0.00  0.00    +0.000 OA
ATOM     40  N   LYS A   5      -2.144   8.565 134.243  0.00  0.00    +0.000 N 
ATOM     41  H   LYS A   5      -2.621   8.968 133.441  0.00  0.00    +0.000 HD
BRANCH  40  42
ATOM     42  CA  LYS A   5      -0.748   9.035 134.474  0.00  0.00    +0.000 C 
BRANCH  42  43
ATOM     43  C   LYS A   5      -0.437  10.333 133.644  0.00  0.00    +0.000 C 
ATOM     44  O   LYS A   5       0.705  10.791 133.574  0.00  0.00    +0.000 OA
ATOM     45  N   GLY A   6      -1.494  10.943 132.988  0.00  0.00    +0.000 N 
ATOM     46  H   GLY A   6      -2.438  10.564 133.037  0.00  0.00    +0.000 HD
BRANCH  45  47
ATOM     47  CA  GLY A   6      -1.341  12.180 132.204  0.00  0.00    +0.000 C 
BRANCH  47  48
ATOM     48  C   GLY A   6      -1.703  13.421 133.026  0.00  0.00    +0.000 C 
ATOM     49  O   GLY A   6      -1.052  13.793 133.995  0.00  0.00    +0.000 OA
BRANCH  48  50
ATOM     50  OXT GLY A   6      -2.801  14.095 132.613  0.00  0.00    +0.000 OA
ATOM     51  HXT GLY A   6      -2.950  14.986 132.983  0.00  0.00    +0.000 HD
ENDBRANCH  48  50
ENDBRANCH  47  48
ENDBRANCH  45  47
ENDBRANCH  42  43
BRANCH  42  52
ATOM     52  CB  LYS A   5       0.260   7.933 134.082  0.00  0.00    +0.000 C 
BRANCH  52  53
ATOM     53  CG  LYS A   5       0.929   7.306 135.295  0.00  0.00    +0.000 C 
BRANCH  53  54
ATOM     54  CD  LYS A   5       1.198   8.242 136.443  0.00  0.00    +0.000 C 
BRANCH  54  55
ATOM     55  CE  LYS A   5       0.854   7.520 137.745  0.00  0.00    +0.000 C 
BRANCH  55  56
ATOM     56  NZ  LYS A   5       0.049   6.351 137.424  0.00  0.00    +0.000 NA
ATOM     57  HZ1 LYS A   5      -0.696   6.278 138.114  0.00  0.00    +0.000 HD
ATOM     58  HZ2 LYS A   5       0.623   5.518 137.531  0.00  0.00    +0.000 HD
ENDBRANCH  55  56
ENDBRANCH  54  55
ENDBRANCH  53  54
ENDBRANCH  52  53
ENDBRANCH  42  52
ENDBRANCH  40  42
ENDBRANCH  37  38
ENDBRANCH  18  31
BRANCH  22  59
ATOM     59  CB  ASN A   2      -5.160   2.159 129.175  0.00  0.00    +0.000 C 
BRANCH  59  60
ATOM     60  CG  ASN A   2      -4.250   1.836 128.073  0.00  0.00    +0.000 C 
ATOM     61  ND2 ASN A   2      -3.016   2.066 128.494  0.00  0.00    +0.000 N 
ATOM     62  OD1 ASN A   2      -4.437   1.598 126.932  0.00  0.00    +0.000 OA
ATOM     63 HD21 ASN A   2      -2.780   2.354 129.424  0.00  0.00    +0.000 HD
ATOM     64 HD22 ASN A   2      -2.262   1.589 128.034  0.00  0.00    +0.000 HD
ENDBRANCH  59  60
ENDBRANCH  22  59
BRANCH   9  65
ATOM     65  CB  TYR A   1      -8.030  -1.023 130.506  0.00  0.00    +0.000 C 
BRANCH  65  66
ATOM     66  CG  TYR A   1      -8.602   0.370 130.561  0.00  0.00    +0.000 A 
ATOM     67  CD1 TYR A   1      -9.329   0.548 131.658  0.00  0.00    +0.000 A 
ATOM     68  CE1 TYR A   1      -9.791   1.769 132.068  0.00  0.00    +0.000 A 
ATOM     69  CZ  TYR A   1      -9.722   2.926 131.377  0.00  0.00    +0.000 A 
ATOM     70  CE2 TYR A   1      -9.202   2.754 130.134  0.00  0.00    +0.000 A 
ATOM     71  CD2 TYR A   1      -8.590   1.504 129.745  0.00  0.00    +0.000 A 
BRANCH  69  72
ATOM     72  OH  TYR A   1     -10.472   4.012 131.728  0.00  0.00    +0.000 OA
ATOM     73  HH  TYR A   1     -11.027   3.840 132.536  0.00  0.00    +0.000 HD
ENDBRANCH  69  72
ENDBRANCH  65  66
ENDBRANCH   9  65
BRANCH   5  74
ATOM     74  CB  TYR A   1      -7.788  -1.676 125.718  0.00  0.00    +0.000 C 
BRANCH  74  75
ATOM     75  CG  TYR A   1      -6.974  -2.154 124.597  0.00  0.00    +0.000 A 
ATOM     76  CD1 TYR A   1      -6.009  -3.179 124.667  0.00  0.00    +0.000 A 
ATOM     77  CE1 TYR A   1      -5.045  -3.269 123.703  0.00  0.00    +0.000 A 
ATOM     78  CZ  TYR A   1      -5.240  -2.535 122.548  0.00  0.00    +0.000 A 
ATOM     79  CE2 TYR A   1      -6.284  -1.608 122.430  0.00  0.00    +0.000 A 
ATOM     80  CD2 TYR A   1      -7.130  -1.377 123.478  0.00  0.00    +0.000 A 
ENDBRANCH  74  75
ENDBRANCH   5  74
BRANCH   1  81
ATOM     81  CB  TYR A   1      -5.904   3.812 125.378  0.00  0.00    +0.000 C 
BRANCH  81  83
ATOM     82  CD1 TYR A   1      -5.321   4.460 123.140  0.00  0.00    +0.000 C 
ATOM     83  CG  TYR A   1      -6.412   3.823 123.967  0.00  0.00    +0.000 C 
ATOM     84  CD2 TYR A   1      -6.682   2.408 123.492  0.00  0.00    +0.000 C 
ENDBRANCH  81  83
ENDBRANCH   1  81
TORSDOF 21
ENDMDL
MODEL 7
REMARK VINA RESULT:      -7.7      3.942     11.894
REMARK  Name = CHEMBL1765663
REMARK  23 active torsions:
REMARK  status: ('A' for Active; 'I' for Inactive)
REMARK    1  A    between atoms: CD1_1  and  CG_2
REMARK    2  A    between atoms: CG_2  and  CD2_3
REMARK    3  A    between atoms: CG_2  and  CB_4
REMARK    4  A    between atoms: CB_4  and  CA_5
REMARK    5  A    between atoms: CA_9  and  CB_10
REMARK    6  A    between atoms: CB_10  and  CG_11
REMARK    7  A    between atoms: CA_20  and  CB_21
REMARK    8  A    between atoms: CB_21  and  CG_22
REMARK    9  A    between atoms: CZ_25  and  OH_26
REMARK   10  A    between atoms: C_37  and  C_38
REMARK   11  A    between atoms: CA_44  and  C_45
REMARK   12  A    between atoms: N_47  and  CA_48
REMARK   13  A    between atoms: CA_48  and  CB_49
REMARK   14  A    between atoms: CA_48  and  C_54
REMARK   15  A    between atoms: CB_49  and  CG_50
REMARK   16  A    between atoms: CG_50  and  CD_51
REMARK   17  A    between atoms: CD_51  and  CE_52
REMARK   18  A    between atoms: CE_52  and  NZ_53
REMARK   19  A    between atoms: N_56  and  CA_57
REMARK   20  A    between atoms: CA_57  and  C_58
REMARK   21  A    between atoms: C_58  and  OXT_60
REMARK   22  A    between atoms: CA_64  and  CB_65
REMARK   23  A    between atoms: CB_65  and  CG_66
REMARK                            x       y       z     vdW  Elec       q    Type
REMARK                         _______ _______ _______ _____ _____    ______ ____
ROOT
ATOM      1  CA  TYR A   1      -7.129   3.717 128.228  0.00  0.00    +0.000 C 
ATOM      2  N   TYR A   1      -7.865   2.126 128.108  0.00  0.00    +0.000 N 
ATOM      3  C   TYR A   1      -7.632   0.681 128.255  0.00  0.00    +0.000 C 
ATOM      4  O   TYR A   1      -8.481  -0.017 128.834  0.00  0.00    +0.000 OA
ATOM      5  CA  TYR A   1      -6.248  -0.034 127.689  0.00  0.00    +0.000 C 
ATOM      6  N   TYR A   1      -5.008  -0.119 128.442  0.00  0.00    +0.000 N 
ATOM      7  C   TYR A   1      -4.692  -0.729 129.605  0.00  0.00    +0.000 C 
ATOM      8  O   TYR A   1      -3.470  -0.729 129.809  0.00  0.00    +0.000 OA
ATOM      9  CA  TYR A   1      -5.808  -1.475 130.558  0.00  0.00    +0.000 C 
ATOM     10  N   TYR A   1      -5.100  -2.704 130.735  0.00  0.00    +0.000 N 
ATOM     11  C   UNK A   0      -3.975  -2.826 131.495  0.00  0.00    +0.000 C 
ATOM     12  O   UNK A   0      -3.439  -3.939 131.471  0.00  0.00    +0.000 OA
ATOM     13  C   UNK A   0      -3.369  -1.680 132.388  0.00  0.00    +0.000 C 
ATOM     14  C   UNK A   0      -3.860  -0.224 132.479  0.00  0.00    +0.000 C 
ATOM     15  S   UNK A   3      -2.958   1.027 133.448  0.00  0.00    +0.000 S 
ATOM     16  S   UNK A   3      -4.573   2.285 133.867  0.00  0.00    +0.000 S 
ATOM     17  C   UNK A   3      -3.949   3.999 133.767  0.00  0.00    +0.000 C 
ATOM     18  C   UNK A   3      -4.816   5.253 133.568  0.00  0.00    +0.000 C 
ATOM     19  N   UNK A   3      -4.714   5.774 132.184  0.00  0.00    +0.000 N 
ATOM     20  C   ASN A   2      -5.054   5.169 131.027  0.00  0.00    +0.000 C 
ATOM     21  O   ASN A   2      -4.810   5.642 129.920  0.00  0.00    +0.000 OA
ATOM     22  CA  ASN A   2      -5.838   3.925 131.148  0.00  0.00    +0.000 C 
ATOM     23  N   ASN A   2      -7.142   4.403 130.599  0.00  0.00    +0.000 N 
ATOM     24  C   TYR A   1      -7.812   4.398 129.377  0.00  0.00    +0.000 C 
ATOM     25  O   TYR A   1      -9.041   4.514 129.377  0.00  0.00    +0.000 OA
ATOM     26  H   TYR A   1      -8.859   2.261 128.339  0.00  0.00    +0.000 HD
ATOM     27  H   TYR A   1      -4.242   0.480 128.115  0.00  0.00    +0.000 HD
ATOM     28  H   TYR A   1      -5.304  -3.466 130.097  0.00  0.00    +0.000 HD
ATOM     29  H   UNK A   3      -4.353   6.712 132.044  0.00  0.00    +0.000 HD
ATOM     30  H   ASN A   2      -7.762   4.615 131.377  0.00  0.00    +0.000 HD
ENDROOT
BRANCH  18  31
ATOM     31  C   UNK A   3      -4.407   6.432 134.527  0.00  0.00    +0.000 C 
ATOM     32  O   UNK A   3      -3.914   7.455 134.035  0.00  0.00    +0.000 OA
ATOM     33  N   PRO A   4      -4.826   6.387 135.849  0.00  0.00    +0.000 N 
ATOM     34  CD  PRO A   4      -4.690   5.323 136.835  0.00  0.00    +0.000 C 
ATOM     35  CG  PRO A   4      -5.943   5.504 137.639  0.00  0.00    +0.000 C 
ATOM     36  CB  PRO A   4      -5.954   7.005 137.850  0.00  0.00    +0.000 C 
ATOM     37  CA  PRO A   4      -5.274   7.596 136.594  0.00  0.00    +0.000 C 
BRANCH  37  38
ATOM     38  C   PRO A   4      -4.116   8.451 137.148  0.00  0.00    +0.000 C 
ATOM     39  O   PRO A   4      -3.736   8.294 138.309  0.00  0.00    +0.000 OA
ATOM     40  N   LYS A   5      -3.606   9.448 136.319  0.00  0.00    +0.000 N 
ATOM     41  H   LYS A   5      -4.123   9.758 135.501  0.00  0.00    +0.000 HD
BRANCH  40  42
ATOM     42  CA  LYS A   5      -2.372  10.221 136.641  0.00  0.00    +0.000 C 
BRANCH  42  43
ATOM     43  C   LYS A   5      -2.331  11.584 135.859  0.00  0.00    +0.000 C 
ATOM     44  O   LYS A   5      -2.228  12.660 136.451  0.00  0.00    +0.000 OA
ATOM     45  N   GLY A   6      -2.410  11.532 134.477  0.00  0.00    +0.000 N 
ATOM     46  H   GLY A   6      -2.487  10.645 133.984  0.00  0.00    +0.000 HD
BRANCH  45  47
ATOM     47  CA  GLY A   6      -2.412  12.738 133.631  0.00  0.00    +0.000 C 
BRANCH  47  48
ATOM     48  C   GLY A   6      -1.377  12.643 132.505  0.00  0.00    +0.000 C 
ATOM     49  O   GLY A   6      -0.383  11.929 132.571  0.00  0.00    +0.000 OA
BRANCH  48  50
ATOM     50  OXT GLY A   6      -1.628  13.405 131.416  0.00  0.00    +0.000 OA
ATOM     51  HXT GLY A   6      -0.931  13.461 130.734  0.00  0.00    +0.000 HD
ENDBRANCH  48  50
ENDBRANCH  47  48
ENDBRANCH  45  47
ENDBRANCH  42  43
BRANCH  42  52
ATOM     52  CB  LYS A   5      -1.116   9.398 136.285  0.00  0.00    +0.000 C 
BRANCH  52  53
ATOM     53  CG  LYS A   5       0.159  10.032 136.815  0.00  0.00    +0.000 C 
BRANCH  53  54
ATOM     54  CD  LYS A   5       1.250  10.241 135.800  0.00  0.00    +0.000 C 
BRANCH  54  55
ATOM     55  CE  LYS A   5       1.754  11.679 135.922  0.00  0.00    +0.000 C 
BRANCH  55  56
ATOM     56  NZ  LYS A   5       0.748  12.568 135.361  0.00  0.00    +0.000 NA
ATOM     57  HZ1 LYS A   5      -0.008  12.660 136.038  0.00  0.00    +0.000 HD
ATOM     58  HZ2 LYS A   5       0.344  12.129 134.538  0.00  0.00    +0.000 HD
ENDBRANCH  55  56
ENDBRANCH  54  55
ENDBRANCH  53  54
ENDBRANCH  52  53
ENDBRANCH  42  52
ENDBRANCH  40  42
ENDBRANCH  37  38
ENDBRANCH  18  31
BRANCH  22  59
ATOM     59  CB  ASN A   2      -4.839   2.793 130.856  0.00  0.00    +0.000 C 
BRANCH  59  60
ATOM     60  CG  ASN A   2      -3.818   2.899 129.811  0.00  0.00    +0.000 C 
ATOM     61  ND2 ASN A   2      -2.847   3.667 130.277  0.00  0.00    +0.000 N 
ATOM     62  OD1 ASN A   2      -3.812   2.585 128.673  0.00  0.00    +0.000 OA
ATOM     63 HD21 ASN A   2      -2.820   4.044 131.204  0.00  0.00    +0.000 HD
ATOM     64 HD22 ASN A   2      -1.933   3.575 129.871  0.00  0.00    +0.000 HD
ENDBRANCH  59  60
ENDBRANCH  22  59
BRANCH   9  65
ATOM     65  CB  TYR A   1      -6.573  -1.186 131.992  0.00  0.00    +0.000 C 
BRANCH  65  66
ATOM     66  CG  TYR A   1      -7.683  -0.173 132.112  0.00  0.00    +0.000 A 
ATOM     67  CD1 TYR A   1      -7.335   0.828 132.912  0.00  0.00    +0.000 A 
ATOM     68  CE1 TYR A   1      -8.062   1.981 133.037  0.00  0.00    +0.000 A 
ATOM     69  CZ  TYR A   1      -9.279   2.223 132.509  0.00  0.00    +0.000 A 
ATOM     70  CE2 TYR A   1      -9.793   1.136 131.879  0.00  0.00    +0.000 A 
ATOM     71  CD2 TYR A   1      -8.985  -0.035 131.626  0.00  0.00    +0.000 A 
BRANCH  69  72
ATOM     72  OH  TYR A   1     -10.045   3.270 132.937  0.00  0.00    +0.000 OA
ATOM     73  HH  TYR A   1     -10.994   3.182 132.653  0.00  0.00    +0.000 HD
ENDBRANCH  69  72
ENDBRANCH  65  66
ENDBRANCH   9  65
BRANCH   5  74
ATOM     74  CB  TYR A   1      -6.343  -1.410 127.164  0.00  0.00    +0.000 C 
BRANCH  74  75
ATOM     75  CG  TYR A   1      -6.178  -1.386 125.709  0.00  0.00    +0.000 A 
ATOM     76  CD1 TYR A   1      -6.634  -0.363 124.852  0.00  0.00    +0.000 A 
ATOM     77  CE1 TYR A   1      -6.793  -0.617 123.519  0.00  0.00    +0.000 A 
ATOM     78  CZ  TYR A   1      -6.216  -1.772 123.026  0.00  0.00    +0.000 A 
ATOM     79  CE2 TYR A   1      -5.643  -2.731 123.872  0.00  0.00    +0.000 A 
ATOM     80  CD2 TYR A   1      -5.666  -2.563 125.228  0.00  0.00    +0.000 A 
ENDBRANCH  74  75
ENDBRANCH   5  74
BRANCH   1  81
ATOM     81  CB  TYR A   1      -6.196   4.401 127.212  0.00  0.00    +0.000 C 
BRANCH  81  83
ATOM     82  CD1 TYR A   1      -7.003   3.859 125.016  0.00  0.00    +0.000 C 
ATOM     83  CG  TYR A   1      -5.921   3.534 126.019  0.00  0.00    +0.000 C 
ATOM     84  CD2 TYR A   1      -4.552   3.844 125.445  0.00  0.00    +0.000 C 
ENDBRANCH  81  83
ENDBRANCH   1  81
TORSDOF 21
ENDMDL
MODEL 8
REMARK VINA RESULT:      -7.6      4.500      7.207
REMARK  Name = CHEMBL1765663
REMARK  23 active torsions:
REMARK  status: ('A' for Active; 'I' for Inactive)
REMARK    1  A    between atoms: CD1_1  and  CG_2
REMARK    2  A    between atoms: CG_2  and  CD2_3
REMARK    3  A    between atoms: CG_2  and  CB_4
REMARK    4  A    between atoms: CB_4  and  CA_5
REMARK    5  A    between atoms: CA_9  and  CB_10
REMARK    6  A    between atoms: CB_10  and  CG_11
REMARK    7  A    between atoms: CA_20  and  CB_21
REMARK    8  A    between atoms: CB_21  and  CG_22
REMARK    9  A    between atoms: CZ_25  and  OH_26
REMARK   10  A    between atoms: C_37  and  C_38
REMARK   11  A    between atoms: CA_44  and  C_45
REMARK   12  A    between atoms: N_47  and  CA_48
REMARK   13  A    between atoms: CA_48  and  CB_49
REMARK   14  A    between atoms: CA_48  and  C_54
REMARK   15  A    between atoms: CB_49  and  CG_50
REMARK   16  A    between atoms: CG_50  and  CD_51
REMARK   17  A    between atoms: CD_51  and  CE_52
REMARK   18  A    between atoms: CE_52  and  NZ_53
REMARK   19  A    between atoms: N_56  and  CA_57
REMARK   20  A    between atoms: CA_57  and  C_58
REMARK   21  A    between atoms: C_58  and  OXT_60
REMARK   22  A    between atoms: CA_64  and  CB_65
REMARK   23  A    between atoms: CB_65  and  CG_66
REMARK                            x       y       z     vdW  Elec       q    Type
REMARK                         _______ _______ _______ _____ _____    ______ ____
ROOT
ATOM      1  CA  TYR A   1      -6.080   5.057 136.182  0.00  0.00    +0.000 C 
ATOM      2  N   TYR A   1      -5.672   6.513 137.076  0.00  0.00    +0.000 N 
ATOM      3  C   TYR A   1      -4.593   7.458 137.406  0.00  0.00    +0.000 C 
ATOM      4  O   TYR A   1      -4.825   8.677 137.387  0.00  0.00    +0.000 OA
ATOM      5  CA  TYR A   1      -3.065   6.932 137.775  0.00  0.00    +0.000 C 
ATOM      6  N   TYR A   1      -2.038   6.656 136.785  0.00  0.00    +0.000 N 
ATOM      7  C   TYR A   1      -1.408   7.443 135.886  0.00  0.00    +0.000 C 
ATOM      8  O   TYR A   1      -0.449   6.864 135.358  0.00  0.00    +0.000 OA
ATOM      9  CA  TYR A   1      -1.819   9.016 135.630  0.00  0.00    +0.000 C 
ATOM     10  N   TYR A   1      -0.501   9.562 135.718  0.00  0.00    +0.000 N 
ATOM     11  C   UNK A   0       0.459   9.378 134.769  0.00  0.00    +0.000 C 
ATOM     12  O   UNK A   0       1.570   9.846 135.042  0.00  0.00    +0.000 OA
ATOM     13  C   UNK A   0       0.227   8.660 133.388  0.00  0.00    +0.000 C 
ATOM     14  C   UNK A   0      -1.060   7.960 132.917  0.00  0.00    +0.000 C 
ATOM     15  S   UNK A   3      -1.124   7.040 131.345  0.00  0.00    +0.000 S 
ATOM     16  S   UNK A   3      -3.170   7.248 130.975  0.00  0.00    +0.000 S 
ATOM     17  C   UNK A   3      -3.743   5.667 130.263  0.00  0.00    +0.000 C 
ATOM     18  C   UNK A   3      -5.201   5.179 130.229  0.00  0.00    +0.000 C 
ATOM     19  N   UNK A   3      -5.447   4.122 131.239  0.00  0.00    +0.000 N 
ATOM     20  C   ASN A   2      -5.342   4.197 132.582  0.00  0.00    +0.000 C 
ATOM     21  O   ASN A   2      -5.447   3.222 133.322  0.00  0.00    +0.000 OA
ATOM     22  CA  ASN A   2      -5.187   5.549 133.149  0.00  0.00    +0.000 C 
ATOM     23  N   ASN A   2      -6.508   5.682 133.833  0.00  0.00    +0.000 N 
ATOM     24  C   TYR A   1      -7.034   5.489 135.109  0.00  0.00    +0.000 C 
ATOM     25  O   TYR A   1      -8.071   6.086 135.416  0.00  0.00    +0.000 OA
ATOM     26  H   TYR A   1      -6.535   7.073 137.105  0.00  0.00    +0.000 HD
ATOM     27  H   TYR A   1      -1.808   5.666 136.640  0.00  0.00    +0.000 HD
ATOM     28  H   TYR A   1      -0.191   9.910 136.619  0.00  0.00    +0.000 HD
ATOM     29  H   UNK A   3      -5.746   3.207 130.919  0.00  0.00    +0.000 HD
ATOM     30  H   ASN A   2      -7.123   6.234 133.242  0.00  0.00    +0.000 HD
ENDROOT
BRANCH  18  31
ATOM     31  C   UNK A   3      -5.607   4.577 128.833  0.00  0.00    +0.000 C 
ATOM     32  O   UNK A   3      -6.729   4.835 128.378  0.00  0.00    +0.000 OA
ATOM     33  N   PRO A   4      -4.624   3.983 128.055  0.00  0.00    +0.000 N 
ATOM     34  CD  PRO A   4      -3.660   2.947 128.402  0.00  0.00    +0.000 C 
ATOM     35  CG  PRO A   4      -2.487   3.339 127.554  0.00  0.00    +0.000 C 
ATOM     36  CB  PRO A   4      -3.156   3.613 126.221  0.00  0.00    +0.000 C 
ATOM     37  CA  PRO A   4      -4.569   4.130 126.575  0.00  0.00    +0.000 C 
BRANCH  37  38
ATOM     38  C   PRO A   4      -5.525   3.186 125.818  0.00  0.00    +0.000 C 
ATOM     39  O   PRO A   4      -5.797   2.079 126.287  0.00  0.00    +0.000 OA
ATOM     40  N   LYS A   5      -5.973   3.601 124.567  0.00  0.00    +0.000 N 
ATOM     41  H   LYS A   5      -5.508   4.358 124.074  0.00  0.00    +0.000 HD
BRANCH  40  42
ATOM     42  CA  LYS A   5      -7.042   2.889 123.808  0.00  0.00    +0.000 C 
BRANCH  42  43
ATOM     43  C   LYS A   5      -7.075   3.345 122.303  0.00  0.00    +0.000 C 
ATOM     44  O   LYS A   5      -8.141   3.477 121.698  0.00  0.00    +0.000 OA
ATOM     45  N   GLY A   6      -5.863   3.598 121.683  0.00  0.00    +0.000 N 
ATOM     46  H   GLY A   6      -4.981   3.497 122.182  0.00  0.00    +0.000 HD
BRANCH  45  47
ATOM     47  CA  GLY A   6      -5.756   4.002 120.271  0.00  0.00    +0.000 C 
BRANCH  47  48
ATOM     48  C   GLY A   6      -5.136   5.395 120.125  0.00  0.00    +0.000 C 
ATOM     49  O   GLY A   6      -4.505   5.942 121.021  0.00  0.00    +0.000 OA
BRANCH  48  50
ATOM     50  OXT GLY A   6      -5.329   5.997 118.928  0.00  0.00    +0.000 OA
ATOM     51  HXT GLY A   6      -5.513   5.424 118.159  0.00  0.00    +0.000 HD
ENDBRANCH  48  50
ENDBRANCH  47  48
ENDBRANCH  45  47
ENDBRANCH  42  43
BRANCH  42  52
ATOM     52  CB  LYS A   5      -8.421   3.157 124.447  0.00  0.00    +0.000 C 
BRANCH  52  53
ATOM     53  CG  LYS A   5      -9.175   1.872 124.751  0.00  0.00    +0.000 C 
BRANCH  53  54
ATOM     54  CD  LYS A   5      -9.020   0.774 123.735  0.00  0.00    +0.000 C 
BRANCH  54  55
ATOM     55  CE  LYS A   5     -10.304   0.695 122.910  0.00  0.00    +0.000 C 
BRANCH  55  56
ATOM     56  NZ  LYS A   5     -11.394   1.242 123.702  0.00  0.00    +0.000 NA
ATOM     57  HZ1 LYS A   5     -11.001   1.901 124.372  0.00  0.00    +0.000 HD
ATOM     58  HZ2 LYS A   5     -11.812   0.493 124.248  0.00  0.00    +0.000 HD
ENDBRANCH  55  56
ENDBRANCH  54  55
ENDBRANCH  53  54
ENDBRANCH  52  53
ENDBRANCH  42  52
ENDBRANCH  40  42
ENDBRANCH  37  38
ENDBRANCH  18  31
BRANCH  22  59
ATOM     59  CB  ASN A   2      -3.702   5.652 133.536  0.00  0.00    +0.000 C 
BRANCH  59  60
ATOM     60  CG  ASN A   2      -2.827   4.478 133.600  0.00  0.00    +0.000 C 
ATOM     61  ND2 ASN A   2      -2.967   3.940 134.801  0.00  0.00    +0.000 N 
ATOM     62  OD1 ASN A   2      -1.974   4.084 132.886  0.00  0.00    +0.000 OA
ATOM     63 HD21 ASN A   2      -3.608   4.269 135.496  0.00  0.00    +0.000 HD
ATOM     64 HD22 ASN A   2      -2.737   2.970 134.915  0.00  0.00    +0.000 HD
ENDBRANCH  59  60
ENDBRANCH  22  59
BRANCH   9  65
ATOM     65  CB  TYR A   1      -2.594   9.898 134.469  0.00  0.00    +0.000 C 
BRANCH  65  66
ATOM     66  CG  TYR A   1      -2.498  11.401 134.416  0.00  0.00    +0.000 A 
ATOM     67  CD1 TYR A   1      -2.362  11.917 135.632  0.00  0.00    +0.000 A 
ATOM     68  CE1 TYR A   1      -2.046  13.228 135.865  0.00  0.00    +0.000 A 
ATOM     69  CZ  TYR A   1      -1.972  14.211 134.944  0.00  0.00    +0.000 A 
ATOM     70  CE2 TYR A   1      -2.344  13.789 133.708  0.00  0.00    +0.000 A 
ATOM     71  CD2 TYR A   1      -2.547  12.386 133.426  0.00  0.00    +0.000 A 
BRANCH  69  72
ATOM     72  OH  TYR A   1      -1.952  15.528 135.308  0.00  0.00    +0.000 OA
ATOM     73  HH  TYR A   1      -2.394  16.111 134.634  0.00  0.00    +0.000 HD
ENDBRANCH  69  72
ENDBRANCH  65  66
ENDBRANCH   9  65
BRANCH   5  74
ATOM     74  CB  TYR A   1      -2.289   7.699 138.768  0.00  0.00    +0.000 C 
BRANCH  74  75
ATOM     75  CG  TYR A   1      -2.323   7.000 140.055  0.00  0.00    +0.000 A 
ATOM     76  CD1 TYR A   1      -2.923   5.745 140.287  0.00  0.00    +0.000 A 
ATOM     77  CE1 TYR A   1      -3.254   5.377 141.560  0.00  0.00    +0.000 A 
ATOM     78  CZ  TYR A   1      -2.713   6.123 142.590  0.00  0.00    +0.000 A 
ATOM     79  CE2 TYR A   1      -2.000   7.306 142.351  0.00  0.00    +0.000 A 
ATOM     80  CD2 TYR A   1      -1.844   7.777 141.078  0.00  0.00    +0.000 A 
ENDBRANCH  74  75
ENDBRANCH   5  74
BRANCH   1  81
ATOM     81  CB  TYR A   1      -5.773   3.599 136.570  0.00  0.00    +0.000 C 
BRANCH  81  83
ATOM     82  CD1 TYR A   1      -5.527   3.743 138.954  0.00  0.00    +0.000 C 
ATOM     83  CG  TYR A   1      -4.763   3.503 137.673  0.00  0.00    +0.000 C 
ATOM     84  CD2 TYR A   1      -4.122   2.129 137.686  0.00  0.00    +0.000 C 
ENDBRANCH  81  83
ENDBRANCH   1  81
TORSDOF 21
ENDMDL
MODEL 9
REMARK VINA RESULT:      -7.6      3.146     11.583
REMARK  Name = CHEMBL1765663
REMARK  23 active torsions:
REMARK  status: ('A' for Active; 'I' for Inactive)
REMARK    1  A    between atoms: CD1_1  and  CG_2
REMARK    2  A    between atoms: CG_2  and  CD2_3
REMARK    3  A    between atoms: CG_2  and  CB_4
REMARK    4  A    between atoms: CB_4  and  CA_5
REMARK    5  A    between atoms: CA_9  and  CB_10
REMARK    6  A    between atoms: CB_10  and  CG_11
REMARK    7  A    between atoms: CA_20  and  CB_21
REMARK    8  A    between atoms: CB_21  and  CG_22
REMARK    9  A    between atoms: CZ_25  and  OH_26
REMARK   10  A    between atoms: C_37  and  C_38
REMARK   11  A    between atoms: CA_44  and  C_45
REMARK   12  A    between atoms: N_47  and  CA_48
REMARK   13  A    between atoms: CA_48  and  CB_49
REMARK   14  A    between atoms: CA_48  and  C_54
REMARK   15  A    between atoms: CB_49  and  CG_50
REMARK   16  A    between atoms: CG_50  and  CD_51
REMARK   17  A    between atoms: CD_51  and  CE_52
REMARK   18  A    between atoms: CE_52  and  NZ_53
REMARK   19  A    between atoms: N_56  and  CA_57
REMARK   20  A    between atoms: CA_57  and  C_58
REMARK   21  A    between atoms: C_58  and  OXT_60
REMARK   22  A    between atoms: CA_64  and  CB_65
REMARK   23  A    between atoms: CB_65  and  CG_66
REMARK                            x       y       z     vdW  Elec       q    Type
REMARK                         _______ _______ _______ _____ _____    ______ ____
ROOT
ATOM      1  CA  TYR A   1      -5.279   5.774 129.796  0.00  0.00    +0.000 C 
ATOM      2  N   TYR A   1      -6.189   4.819 128.636  0.00  0.00    +0.000 N 
ATOM      3  C   TYR A   1      -6.396   3.467 128.092  0.00  0.00    +0.000 C 
ATOM      4  O   TYR A   1      -7.552   3.058 127.901  0.00  0.00    +0.000 OA
ATOM      5  CA  TYR A   1      -5.118   2.467 127.752  0.00  0.00    +0.000 C 
ATOM      6  N   TYR A   1      -4.488   1.592 128.726  0.00  0.00    +0.000 N 
ATOM      7  C   TYR A   1      -4.951   0.542 129.438  0.00  0.00    +0.000 C 
ATOM      8  O   TYR A   1      -4.039  -0.063 130.017  0.00  0.00    +0.000 OA
ATOM      9  CA  TYR A   1      -6.531   0.080 129.427  0.00  0.00    +0.000 C 
ATOM     10  N   TYR A   1      -6.309  -1.310 129.180  0.00  0.00    +0.000 N 
ATOM     11  C   UNK A   0      -5.786  -2.168 130.100  0.00  0.00    +0.000 C 
ATOM     12  O   UNK A   0      -5.579  -3.317 129.695  0.00  0.00    +0.000 OA
ATOM     13  C   UNK A   0      -5.476  -1.795 131.598  0.00  0.00    +0.000 C 
ATOM     14  C   UNK A   0      -5.602  -0.405 132.246  0.00  0.00    +0.000 C 
ATOM     15  S   UNK A   3      -5.060  -0.100 133.959  0.00  0.00    +0.000 S 
ATOM     16  S   UNK A   3      -6.332   1.503 134.381  0.00  0.00    +0.000 S 
ATOM     17  C   UNK A   3      -5.377   2.686 135.393  0.00  0.00    +0.000 C 
ATOM     18  C   UNK A   3      -5.713   4.174 135.582  0.00  0.00    +0.000 C 
ATOM     19  N   UNK A   3      -4.810   5.044 134.792  0.00  0.00    +0.000 N 
ATOM     20  C   ASN A   2      -4.643   5.094 133.454  0.00  0.00    +0.000 C 
ATOM     21  O   ASN A   2      -3.773   5.766 132.907  0.00  0.00    +0.000 OA
ATOM     22  CA  ASN A   2      -5.637   4.364 132.645  0.00  0.00    +0.000 C 
ATOM     23  N   ASN A   2      -6.336   5.521 132.012  0.00  0.00    +0.000 N 
ATOM     24  C   TYR A   1      -6.275   6.236 130.818  0.00  0.00    +0.000 C 
ATOM     25  O   TYR A   1      -7.272   6.870 130.457  0.00  0.00    +0.000 OA
ATOM     26  H   TYR A   1      -7.103   5.285 128.547  0.00  0.00    +0.000 HD
ATOM     27  H   TYR A   1      -3.549   1.868 129.037  0.00  0.00    +0.000 HD
ATOM     28  H   TYR A   1      -6.328  -1.630 128.217  0.00  0.00    +0.000 HD
ATOM     29  H   UNK A   3      -4.227   5.712 135.285  0.00  0.00    +0.000 HD
ATOM     30  H   ASN A   2      -7.198   5.697 132.522  0.00  0.00    +0.000 HD
ENDROOT
BRANCH  18  31
ATOM     31  C   UNK A   3      -5.593   4.638 137.081  0.00  0.00    +0.000 C 
ATOM     32  O   UNK A   3      -6.488   5.349 137.557  0.00  0.00    +0.000 OA
ATOM     33  N   PRO A   4      -4.627   4.047 137.883  0.00  0.00    +0.000 N 
ATOM     34  CD  PRO A   4      -3.198   3.881 137.651  0.00  0.00    +0.000 C 
ATOM     35  CG  PRO A   4      -2.936   2.578 138.347  0.00  0.00    +0.000 C 
ATOM     36  CB  PRO A   4      -3.675   2.781 139.656  0.00  0.00    +0.000 C 
ATOM     37  CA  PRO A   4      -4.864   3.706 139.312  0.00  0.00    +0.000 C 
BRANCH  37  38
ATOM     38  C   PRO A   4      -4.714   4.902 140.273  0.00  0.00    +0.000 C 
ATOM     39  O   PRO A   4      -4.107   4.766 141.336  0.00  0.00    +0.000 OA
ATOM     40  N   LYS A   5      -5.366   6.084 139.927  0.00  0.00    +0.000 N 
ATOM     41  H   LYS A   5      -6.095   6.086 139.219  0.00  0.00    +0.000 HD
BRANCH  40  42
ATOM     42  CA  LYS A   5      -5.158   7.370 140.653  0.00  0.00    +0.000 C 
BRANCH  42  43
ATOM     43  C   LYS A   5      -6.296   8.403 140.323  0.00  0.00    +0.000 C 
ATOM     44  O   LYS A   5      -6.456   9.419 141.002  0.00  0.00    +0.000 OA
ATOM     45  N   GLY A   6      -7.112   8.132 139.236  0.00  0.00    +0.000 N 
ATOM     46  H   GLY A   6      -6.978   7.298 138.668  0.00  0.00    +0.000 HD
BRANCH  45  47
ATOM     47  CA  GLY A   6      -8.231   9.004 138.841  0.00  0.00    +0.000 C 
BRANCH  47  48
ATOM     48  C   GLY A   6      -8.966   8.460 137.611  0.00  0.00    +0.000 C 
ATOM     49  O   GLY A   6      -9.477   9.183 136.765  0.00  0.00    +0.000 OA
BRANCH  48  50
ATOM     50  OXT GLY A   6      -9.017   7.111 137.511  0.00  0.00    +0.000 OA
ATOM     51  HXT GLY A   6      -8.637   6.589 138.244  0.00  0.00    +0.000 HD
ENDBRANCH  48  50
ENDBRANCH  47  48
ENDBRANCH  45  47
ENDBRANCH  42  43
BRANCH  42  52
ATOM     52  CB  LYS A   5      -3.794   7.985 140.272  0.00  0.00    +0.000 C 
BRANCH  52  53
ATOM     53  CG  LYS A   5      -3.360   7.600 138.867  0.00  0.00    +0.000 C 
BRANCH  53  54
ATOM     54  CD  LYS A   5      -3.500   8.679 137.828  0.00  0.00    +0.000 C 
BRANCH  54  55
ATOM     55  CE  LYS A   5      -4.428   8.170 136.726  0.00  0.00    +0.000 C 
BRANCH  55  56
ATOM     56  NZ  LYS A   5      -3.611   7.694 135.620  0.00  0.00    +0.000 NA
ATOM     57  HZ1 LYS A   5      -3.392   6.713 135.785  0.00  0.00    +0.000 HD
ATOM     58  HZ2 LYS A   5      -2.724   8.191 135.630  0.00  0.00    +0.000 HD
ENDBRANCH  55  56
ENDBRANCH  54  55
ENDBRANCH  53  54
ENDBRANCH  52  53
ENDBRANCH  42  52
ENDBRANCH  40  42
ENDBRANCH  37  38
ENDBRANCH  18  31
BRANCH  22  59
ATOM     59  CB  ASN A   2      -4.913   3.090 132.177  0.00  0.00    +0.000 C 
BRANCH  59  60
ATOM     60  CG  ASN A   2      -3.460   2.935 132.274  0.00  0.00    +0.000 C 
ATOM     61  ND2 ASN A   2      -2.931   3.429 131.166  0.00  0.00    +0.000 N 
ATOM     62  OD1 ASN A   2      -2.773   2.341 133.028  0.00  0.00    +0.000 OA
ATOM     63 HD21 ASN A   2      -3.455   3.873 130.438  0.00  0.00    +0.000 HD
ATOM     64 HD22 ASN A   2      -1.974   3.731 131.191  0.00  0.00    +0.000 HD
ENDBRANCH  59  60
ENDBRANCH  22  59
BRANCH   9  65
ATOM     65  CB  TYR A   1      -7.829   0.153 130.445  0.00  0.00    +0.000 C 
BRANCH  65  66
ATOM     66  CG  TYR A   1      -8.419   1.468 130.887  0.00  0.00    +0.000 A 
ATOM     67  CD1 TYR A   1      -8.972   1.365 132.090  0.00  0.00    +0.000 A 
ATOM     68  CE1 TYR A   1      -9.395   2.442 132.821  0.00  0.00    +0.000 A 
ATOM     69  CZ  TYR A   1      -9.460   3.722 132.399  0.00  0.00    +0.000 A 
ATOM     70  CE2 TYR A   1      -9.135   3.849 131.087  0.00  0.00    +0.000 A 
ATOM     71  CD2 TYR A   1      -8.561   2.749 130.348  0.00  0.00    +0.000 A 
BRANCH  69  72
ATOM     72  OH  TYR A   1     -10.174   4.663 133.086  0.00  0.00    +0.000 OA
ATOM     73  HH  TYR A   1     -11.135   4.665 132.832  0.00  0.00    +0.000 HD
ENDBRANCH  69  72
ENDBRANCH  65  66
ENDBRANCH   9  65
BRANCH   5  74
ATOM     74  CB  TYR A   1      -5.242   1.551 126.602  0.00  0.00    +0.000 C 
BRANCH  74  75
ATOM     75  CG  TYR A   1      -5.747   2.294 125.444  0.00  0.00    +0.000 A 
ATOM     76  CD1 TYR A   1      -6.707   1.821 124.526  0.00  0.00    +0.000 A 
ATOM     77  CE1 TYR A   1      -6.805   2.399 123.292  0.00  0.00    +0.000 A 
ATOM     78  CZ  TYR A   1      -6.165   3.611 123.112  0.00  0.00    +0.000 A 
ATOM     79  CE2 TYR A   1      -5.310   4.146 124.085  0.00  0.00    +0.000 A 
ATOM     80  CD2 TYR A   1      -5.058   3.462 125.240  0.00  0.00    +0.000 A 
ENDBRANCH  74  75
ENDBRANCH   5  74
BRANCH   1  81
ATOM     81  CB  TYR A   1      -3.833   6.287 129.663  0.00  0.00    +0.000 C 
BRANCH  81  83
ATOM     82  CD1 TYR A   1      -2.337   7.338 128.107  0.00  0.00    +0.000 C 
ATOM     83  CG  TYR A   1      -3.328   6.208 128.254  0.00  0.00    +0.000 C 
ATOM     84  CD2 TYR A   1      -2.652   4.872 128.008  0.00  0.00    +0.000 C 
ENDBRANCH  81  83
ENDBRANCH   1  81
TORSDOF 21
ENDMDL
