MODEL 1
REMARK VINA RESULT:      -8.0      0.000      0.000
REMARK  Name = CHEMBL2370342
REMARK  43 active torsions:
REMARK  status: ('A' for Active; 'I' for Inactive)
REMARK    1  A    between atoms: C_1  and  C_2
REMARK    2  A    between atoms: C_2  and  C_3
REMARK    3  A    between atoms: C_3  and  C_4
REMARK    4  A    between atoms: C_3  and  C_5
REMARK    5  A    between atoms: C_5  and  N_6
REMARK    6  A    between atoms: C_5  and  C_34
REMARK    7  A    between atoms: C_7  and  C_9
REMARK    8  A    between atoms: C_9  and  C_10
REMARK    9  A    between atoms: C_9  and  N_18
REMARK   10  A    between atoms: C_10  and  C_11
REMARK   11  A    between atoms: C_14  and  O_15
REMARK   12  A    between atoms: C_19  and  C_21
REMARK   13  A    between atoms: C_21  and  C_22
REMARK   14  A    between atoms: C_22  and  S_23
REMARK   15  A    between atoms: S_23  and  C_24
REMARK   16  A    between atoms: C_24  and  C_25
REMARK   17  A    between atoms: C_25  and  C_26
REMARK   18  A    between atoms: N_36  and  C_37
REMARK   19  A    between atoms: C_37  and  C_38
REMARK   20  A    between atoms: C_37  and  C_82
REMARK   21  A    between atoms: N_40  and  C_41
REMARK   22  A    between atoms: C_41  and  C_42
REMARK   23  A    between atoms: C_41  and  C_46
REMARK   24  A    between atoms: C_42  and  C_43
REMARK   25  A    between atoms: N_48  and  C_49
REMARK   26  A    between atoms: C_49  and  C_50
REMARK   27  A    between atoms: C_49  and  C_52
REMARK   28  A    between atoms: C_50  and  S_51
REMARK   29  A    between atoms: N_54  and  C_55
REMARK   30  A    between atoms: C_55  and  C_56
REMARK   31  A    between atoms: N_58  and  C_59
REMARK   32  A    between atoms: C_59  and  C_60
REMARK   33  A    between atoms: C_59  and  C_64
REMARK   34  A    between atoms: C_60  and  C_61
REMARK   35  A    between atoms: C_61  and  C_62
REMARK   36  A    between atoms: C_62  and  N_63
REMARK   37  A    between atoms: N_66  and  C_67
REMARK   38  A    between atoms: C_67  and  C_68
REMARK   39  A    between atoms: C_67  and  C_79
REMARK   40  A    between atoms: C_68  and  C_69
REMARK   41  A    between atoms: C_72  and  N_73
REMARK   42  A    between atoms: C_82  and  C_83
REMARK   43  A    between atoms: C_82  and  O_84
REMARK                            x       y       z     vdW  Elec       q    Type
REMARK                         _______ _______ _______ _____ _____    ______ ____
ROOT
ATOM      1  C   UNL     1      -3.256   2.697 133.931  0.00  0.00    +0.000 C 
ENDROOT
BRANCH   1   4
ATOM      2  C   UNL     1      -3.637   0.072 134.007  0.00  0.00    +0.000 C 
ATOM      3  O   UNL     1      -4.868   0.158 133.870  0.00  0.00    +0.000 OA
ATOM      4  N   UNL     1      -2.926   1.239 134.278  0.00  0.00    +0.000 N 
ATOM      5  H   UNL     1      -1.926   1.180 134.424  0.00  0.00    +0.000 HD
BRANCH   2   6
ATOM      6  C   UNL     1      -2.941  -1.403 133.759  0.00  0.00    +0.000 C 
BRANCH   6   9
ATOM      7  C   UNL     1      -3.451  -2.237 131.265  0.00  0.00    +0.000 C 
ATOM      8  O   UNL     1      -2.870  -2.261 130.181  0.00  0.00    +0.000 OA
ATOM      9  N   UNL     1      -2.692  -2.046 132.405  0.00  0.00    +0.000 N 
ATOM     10  H   UNL     1      -1.724  -2.059 132.101  0.00  0.00    +0.000 HD
BRANCH   7  11
ATOM     11  C   UNL     1      -4.949  -2.528 131.402  0.00  0.00    +0.000 C 
BRANCH  11  12
ATOM     12  N   UNL     1      -5.843  -2.492 130.295  0.00  0.00    +0.000 N 
ATOM     13  C   UNL     1      -6.413  -1.276 129.987  0.00  0.00    +0.000 C 
ATOM     14  O   UNL     1      -6.521  -0.329 130.761  0.00  0.00    +0.000 OA
ATOM     15  H   UNL     1      -5.683  -3.171 129.554  0.00  0.00    +0.000 HD
BRANCH  13  16
ATOM     16  C   UNL     1      -7.024  -1.214 128.616  0.00  0.00    +0.000 C 
BRANCH  16  17
ATOM     17  N   UNL     1      -6.417  -0.027 128.019  0.00  0.00    +0.000 N 
ATOM     18  C   UNL     1      -7.321   0.886 127.513  0.00  0.00    +0.000 C 
ATOM     19  O   UNL     1      -8.500   0.576 127.382  0.00  0.00    +0.000 OA
ATOM     20  H   UNL     1      -5.584   0.338 128.463  0.00  0.00    +0.000 HD
BRANCH  18  21
ATOM     21  C   UNL     1      -6.759   2.224 127.103  0.00  0.00    +0.000 C 
BRANCH  21  22
ATOM     22  C   UNL     1      -6.829   2.456 125.550  0.00  0.00    +0.000 C 
ATOM     23  C   UNL     1      -6.654   1.069 124.886  0.00  0.00    +0.000 C 
ATOM     24  C   UNL     1      -7.013   1.018 123.405  0.00  0.00    +0.000 C 
ATOM     25  C   UNL     1      -8.361   1.656 123.080  0.00  0.00    +0.000 C 
ATOM     26  C   UNL     1      -8.616   2.996 123.733  0.00  0.00    +0.000 C 
ATOM     27  C   UNL     1      -8.236   3.006 125.190  0.00  0.00    +0.000 C 
BRANCH  22  28
ATOM     28  S   UNL     1      -5.371   3.602 125.128  0.00  0.00    +0.000 S 
BRANCH  28  29
ATOM     29  C   UNL     1      -4.881   4.379 126.696  0.00  0.00    +0.000 C 
BRANCH  29  30
ATOM     30  C   UNL     1      -3.400   4.465 126.977  0.00  0.00    +0.000 C 
BRANCH  30  31
ATOM     31  C   UNL     1      -2.815   3.121 127.416  0.00  0.00    +0.000 C 
ATOM     32  N   UNL     1      -1.615   2.700 126.916  0.00  0.00    +0.000 N 
ATOM     33  O   UNL     1      -3.404   2.394 128.214  0.00  0.00    +0.000 OA
ATOM     34  H   UNL     1      -1.024   3.201 126.268  0.00  0.00    +0.000 HD
ATOM     35  H   UNL     1      -1.274   1.804 127.241  0.00  0.00    +0.000 HD
ENDBRANCH  30  31
ENDBRANCH  29  30
ENDBRANCH  28  29
ENDBRANCH  22  28
ENDBRANCH  21  22
ENDBRANCH  18  21
ENDBRANCH  16  17
BRANCH  16  36
ATOM     36  C   UNL     1      -6.697  -2.502 127.853  0.00  0.00    +0.000 C 
BRANCH  36  37
ATOM     37  C   UNL     1      -7.582  -2.755 126.670  0.00  0.00    +0.000 A 
ATOM     38  C   UNL     1      -8.935  -3.073 126.832  0.00  0.00    +0.000 A 
ATOM     39  C   UNL     1      -9.757  -3.266 125.742  0.00  0.00    +0.000 A 
ATOM     40  C   UNL     1      -9.226  -3.125 124.472  0.00  0.00    +0.000 A 
ATOM     41  C   UNL     1      -7.877  -2.845 124.278  0.00  0.00    +0.000 A 
ATOM     42  C   UNL     1      -7.044  -2.672 125.379  0.00  0.00    +0.000 A 
BRANCH  40  43
ATOM     43  O   UNL     1     -10.029  -3.242 123.379  0.00  0.00    +0.000 OA
ATOM     44  H   UNL     1     -10.831  -3.716 123.654  0.00  0.00    +0.000 HD
ENDBRANCH  40  43
ENDBRANCH  36  37
ENDBRANCH  16  36
ENDBRANCH  13  16
ENDBRANCH  11  12
BRANCH  11  45
ATOM     45  C   UNL     1      -5.179  -3.909 131.951  0.00  0.00    +0.000 C 
ATOM     46  C   UNL     1      -5.476  -4.599 130.657  0.00  0.00    +0.000 C 
BRANCH  45  48
ATOM     47  C   UNL     1      -5.945  -5.319 133.907  0.00  0.00    +0.000 C 
ATOM     48  C   UNL     1      -5.984  -3.919 133.344  0.00  0.00    +0.000 C 
ENDBRANCH  45  48
ENDBRANCH  11  45
ENDBRANCH   7  11
ENDBRANCH   6   9
BRANCH   6  49
ATOM     49  C   UNL     1      -1.778  -1.810 134.669  0.00  0.00    +0.000 C 
ATOM     50  C   UNL     1      -0.427  -1.477 134.090  0.00  0.00    +0.000 C 
BRANCH  49  51
ATOM     51  O   UNL     1      -1.873  -1.097 135.917  0.00  0.00    +0.000 OA
ATOM     52  H   UNL     1      -2.813  -0.954 136.126  0.00  0.00    +0.000 HD
ENDBRANCH  49  51
ENDBRANCH   6  49
ENDBRANCH   2   6
ENDBRANCH   1   4
BRANCH   1  53
ATOM     53  C   UNL     1      -4.472   3.057 134.791  0.00  0.00    +0.000 C 
ATOM     54  O   UNL     1      -4.368   3.143 136.014  0.00  0.00    +0.000 OA
ATOM     55  N   UNL     1      -5.616   3.419 134.115  0.00  0.00    +0.000 N 
ATOM     56  H   UNL     1      -5.691   3.333 133.101  0.00  0.00    +0.000 HD
BRANCH  55  57
ATOM     57  C   UNL     1      -6.852   3.773 134.824  0.00  0.00    +0.000 C 
BRANCH  57  58
ATOM     58  C   UNL     1      -8.048   3.394 133.890  0.00  0.00    +0.000 C 
ATOM     59  O   UNL     1      -9.173   3.866 134.067  0.00  0.00    +0.000 OA
ATOM     60  N   UNL     1      -7.784   2.518 132.861  0.00  0.00    +0.000 N 
ATOM     61  H   UNL     1      -6.838   2.189 132.681  0.00  0.00    +0.000 HD
BRANCH  60  62
ATOM     62  C   UNL     1      -8.793   2.115 131.864  0.00  0.00    +0.000 C 
BRANCH  62  63
ATOM     63  C   UNL     1      -8.892   3.199 130.773  0.00  0.00    +0.000 C 
ATOM     64  O   UNL     1      -9.593   3.000 129.777  0.00  0.00    +0.000 OA
ATOM     65  N   UNL     1      -8.202   4.381 130.972  0.00  0.00    +0.000 N 
ATOM     66  H   UNL     1      -7.479   4.440 131.687  0.00  0.00    +0.000 HD
BRANCH  65  67
ATOM     67  C   UNL     1      -8.389   5.611 130.152  0.00  0.00    +0.000 C 
BRANCH  67  68
ATOM     68  C   UNL     1      -7.274   6.619 130.474  0.00  0.00    +0.000 C 
ATOM     69  O   UNL     1      -7.540   7.816 130.417  0.00  0.00    +0.000 OA
ATOM     70  N   UNL     1      -5.997   6.113 130.678  0.00  0.00    +0.000 N 
ATOM     71  H   UNL     1      -5.815   5.174 130.373  0.00  0.00    +0.000 HD
BRANCH  70  72
ATOM     72  C   UNL     1      -4.838   6.954 131.075  0.00  0.00    +0.000 C 
BRANCH  72  73
ATOM     73  C   UNL     1      -4.243   7.843 129.943  0.00  0.00    +0.000 C 
ATOM     74  N   UNL     1      -3.721   7.242 128.834  0.00  0.00    +0.000 N 
ATOM     75  O   UNL     1      -4.220   9.071 130.005  0.00  0.00    +0.000 OA
ATOM     76  H   UNL     1      -3.691   6.259 128.639  0.00  0.00    +0.000 HD
ATOM     77  H   UNL     1      -3.337   7.861 128.127  0.00  0.00    +0.000 HD
ENDBRANCH  72  73
BRANCH  72  78
ATOM     78  C   UNL     1      -3.664   6.094 131.631  0.00  0.00    +0.000 C 
BRANCH  78  79
ATOM     79  C   UNL     1      -2.588   6.907 132.315  0.00  0.00    +0.000 A 
ATOM     80  C   UNL     1      -1.242   6.744 131.992  0.00  0.00    +0.000 A 
ATOM     81  C   UNL     1      -0.258   7.303 132.817  0.00  0.00    +0.000 A 
ATOM     82  C   UNL     1      -0.564   8.046 133.983  0.00  0.00    +0.000 A 
ATOM     83  C   UNL     1      -1.931   8.240 134.270  0.00  0.00    +0.000 A 
ATOM     84  I   UNL     1      -2.768   9.151 135.984  0.00  0.00    +0.000 I 
ATOM     85  C   UNL     1      -2.920   7.690 133.429  0.00  0.00    +0.000 A 
BRANCH  82  86
ATOM     86  N   UNL     1       0.588   8.436 134.703  0.00  0.00    +0.000 NA
ATOM     87  N   UNL     1       1.208   7.604 135.383  0.00  0.00    +0.000 NA
ATOM     88  N   UNL     1       1.834   6.896 136.022  0.00  0.00    +0.000 NA
ENDBRANCH  82  86
ENDBRANCH  78  79
ENDBRANCH  72  78
ENDBRANCH  70  72
ENDBRANCH  67  68
BRANCH  67  89
ATOM     89  C   UNL     1      -9.662   6.384 130.532  0.00  0.00    +0.000 C 
BRANCH  89  90
ATOM     90  C   UNL     1     -10.689   6.348 129.429  0.00  0.00    +0.000 C 
BRANCH  90  91
ATOM     91  C   UNL     1     -10.452   7.359 128.338  0.00  0.00    +0.000 C 
BRANCH  91  92
ATOM     92  N   UNL     1     -10.007   6.610 127.173  0.00  0.00    +0.000 NA
ATOM     93  H   UNL     1      -9.542   5.751 127.467  0.00  0.00    +0.000 HD
ATOM     94  H   UNL     1      -9.336   7.153 126.639  0.00  0.00    +0.000 HD
ENDBRANCH  91  92
ENDBRANCH  90  91
ENDBRANCH  89  90
ENDBRANCH  67  89
ENDBRANCH  65  67
ENDBRANCH  62  63
ENDBRANCH  60  62
ENDBRANCH  57  58
BRANCH  57  95
ATOM     95  C   UNL     1      -6.960   5.265 135.213  0.00  0.00    +0.000 C 
BRANCH  95  96
ATOM     96  S   UNL     1      -6.600   5.820 136.920  0.00  0.00    +0.000 S 
ATOM     97  H   UNL     1      -7.304   4.871 137.567  0.00  0.00    +0.000 HD
ENDBRANCH  95  96
ENDBRANCH  57  95
ENDBRANCH  55  57
ENDBRANCH   1  53
BRANCH   1  98
ATOM     98  C   UNL     1      -3.314   3.090 132.472  0.00  0.00    +0.000 C 
BRANCH  98  99
ATOM     99  C   UNL     1      -4.375   2.499 131.561  0.00  0.00    +0.000 C 
ATOM    100  N   UNL     1      -4.098   1.317 130.974  0.00  0.00    +0.000 N 
ATOM    101  O   UNL     1      -5.425   3.058 131.275  0.00  0.00    +0.000 OA
ATOM    102  H   UNL     1      -3.944   0.660 131.710  0.00  0.00    +0.000 HD
ATOM    103  H   UNL     1      -4.925   0.992 130.477  0.00  0.00    +0.000 HD
ENDBRANCH  98  99
ENDBRANCH   1  98
TORSDOF 40
ENDMDL
MODEL 2
REMARK VINA RESULT:      -8.0      3.245     10.109
REMARK  Name = CHEMBL2370342
REMARK  43 active torsions:
REMARK  status: ('A' for Active; 'I' for Inactive)
REMARK    1  A    between atoms: C_1  and  C_2
REMARK    2  A    between atoms: C_2  and  C_3
REMARK    3  A    between atoms: C_3  and  C_4
REMARK    4  A    between atoms: C_3  and  C_5
REMARK    5  A    between atoms: C_5  and  N_6
REMARK    6  A    between atoms: C_5  and  C_34
REMARK    7  A    between atoms: C_7  and  C_9
REMARK    8  A    between atoms: C_9  and  C_10
REMARK    9  A    between atoms: C_9  and  N_18
REMARK   10  A    between atoms: C_10  and  C_11
REMARK   11  A    between atoms: C_14  and  O_15
REMARK   12  A    between atoms: C_19  and  C_21
REMARK   13  A    between atoms: C_21  and  C_22
REMARK   14  A    between atoms: C_22  and  S_23
REMARK   15  A    between atoms: S_23  and  C_24
REMARK   16  A    between atoms: C_24  and  C_25
REMARK   17  A    between atoms: C_25  and  C_26
REMARK   18  A    between atoms: N_36  and  C_37
REMARK   19  A    between atoms: C_37  and  C_38
REMARK   20  A    between atoms: C_37  and  C_82
REMARK   21  A    between atoms: N_40  and  C_41
REMARK   22  A    between atoms: C_41  and  C_42
REMARK   23  A    between atoms: C_41  and  C_46
REMARK   24  A    between atoms: C_42  and  C_43
REMARK   25  A    between atoms: N_48  and  C_49
REMARK   26  A    between atoms: C_49  and  C_50
REMARK   27  A    between atoms: C_49  and  C_52
REMARK   28  A    between atoms: C_50  and  S_51
REMARK   29  A    between atoms: N_54  and  C_55
REMARK   30  A    between atoms: C_55  and  C_56
REMARK   31  A    between atoms: N_58  and  C_59
REMARK   32  A    between atoms: C_59  and  C_60
REMARK   33  A    between atoms: C_59  and  C_64
REMARK   34  A    between atoms: C_60  and  C_61
REMARK   35  A    between atoms: C_61  and  C_62
REMARK   36  A    between atoms: C_62  and  N_63
REMARK   37  A    between atoms: N_66  and  C_67
REMARK   38  A    between atoms: C_67  and  C_68
REMARK   39  A    between atoms: C_67  and  C_79
REMARK   40  A    between atoms: C_68  and  C_69
REMARK   41  A    between atoms: C_72  and  N_73
REMARK   42  A    between atoms: C_82  and  C_83
REMARK   43  A    between atoms: C_82  and  O_84
REMARK                            x       y       z     vdW  Elec       q    Type
REMARK                         _______ _______ _______ _____ _____    ______ ____
ROOT
ATOM      1  C   UNL     1      -8.196   2.050 126.691  0.00  0.00    +0.000 C 
ENDROOT
BRANCH   1   4
ATOM      2  C   UNL     1      -8.453   3.122 129.104  0.00  0.00    +0.000 C 
ATOM      3  O   UNL     1      -7.871   4.175 128.794  0.00  0.00    +0.000 OA
ATOM      4  N   UNL     1      -8.388   2.054 128.213  0.00  0.00    +0.000 N 
ATOM      5  H   UNL     1      -8.830   1.179 128.467  0.00  0.00    +0.000 HD
BRANCH   2   6
ATOM      6  C   UNL     1      -9.332   3.117 130.500  0.00  0.00    +0.000 C 
BRANCH   6   9
ATOM      7  C   UNL     1     -11.046   5.172 130.610  0.00  0.00    +0.000 C 
ATOM      8  O   UNL     1     -12.217   5.392 130.304  0.00  0.00    +0.000 OA
ATOM      9  N   UNL     1     -10.640   3.855 130.723  0.00  0.00    +0.000 N 
ATOM     10  H   UNL     1     -11.479   3.295 130.615  0.00  0.00    +0.000 HD
BRANCH   7  11
ATOM     11  C   UNL     1     -10.067   6.292 130.980  0.00  0.00    +0.000 C 
BRANCH  11  12
ATOM     12  N   UNL     1      -8.767   6.035 131.499  0.00  0.00    +0.000 N 
ATOM     13  C   UNL     1      -8.645   5.937 132.868  0.00  0.00    +0.000 C 
ATOM     14  O   UNL     1      -9.438   6.399 133.684  0.00  0.00    +0.000 OA
ATOM     15  H   UNL     1      -8.129   5.513 130.902  0.00  0.00    +0.000 HD
BRANCH  13  16
ATOM     16  C   UNL     1      -7.364   5.298 133.326  0.00  0.00    +0.000 C 
BRANCH  16  17
ATOM     17  N   UNL     1      -6.331   6.052 132.622  0.00  0.00    +0.000 N 
ATOM     18  C   UNL     1      -5.745   5.377 131.570  0.00  0.00    +0.000 C 
ATOM     19  O   UNL     1      -5.937   4.173 131.430  0.00  0.00    +0.000 OA
ATOM     20  H   UNL     1      -6.478   7.047 132.513  0.00  0.00    +0.000 HD
BRANCH  18  21
ATOM     21  C   UNL     1      -4.847   6.190 130.671  0.00  0.00    +0.000 C 
BRANCH  21  22
ATOM     22  C   UNL     1      -3.339   6.123 131.108  0.00  0.00    +0.000 C 
ATOM     23  C   UNL     1      -3.134   7.235 132.167  0.00  0.00    +0.000 C 
ATOM     24  C   UNL     1      -1.834   7.135 132.957  0.00  0.00    +0.000 C 
ATOM     25  C   UNL     1      -1.562   5.740 133.513  0.00  0.00    +0.000 C 
ATOM     26  C   UNL     1      -1.784   4.603 132.543  0.00  0.00    +0.000 C 
ATOM     27  C   UNL     1      -3.072   4.746 131.776  0.00  0.00    +0.000 C 
BRANCH  22  28
ATOM     28  S   UNL     1      -2.326   6.482 129.540  0.00  0.00    +0.000 S 
BRANCH  28  29
ATOM     29  C   UNL     1      -3.198   5.645 128.184  0.00  0.00    +0.000 C 
BRANCH  29  30
ATOM     30  C   UNL     1      -2.659   4.299 127.758  0.00  0.00    +0.000 C 
BRANCH  30  31
ATOM     31  C   UNL     1      -3.700   3.188 127.904  0.00  0.00    +0.000 C 
ATOM     32  N   UNL     1      -3.546   2.013 127.224  0.00  0.00    +0.000 N 
ATOM     33  O   UNL     1      -4.689   3.323 128.623  0.00  0.00    +0.000 OA
ATOM     34  H   UNL     1      -2.780   1.766 126.615  0.00  0.00    +0.000 HD
ATOM     35  H   UNL     1      -4.263   1.310 127.358  0.00  0.00    +0.000 HD
ENDBRANCH  30  31
ENDBRANCH  29  30
ENDBRANCH  28  29
ENDBRANCH  22  28
ENDBRANCH  21  22
ENDBRANCH  18  21
ENDBRANCH  16  17
BRANCH  16  36
ATOM     36  C   UNL     1      -7.256   5.412 134.850  0.00  0.00    +0.000 C 
BRANCH  36  37
ATOM     37  C   UNL     1      -6.066   4.709 135.434  0.00  0.00    +0.000 A 
ATOM     38  C   UNL     1      -5.388   5.231 136.541  0.00  0.00    +0.000 A 
ATOM     39  C   UNL     1      -4.319   4.563 137.100  0.00  0.00    +0.000 A 
ATOM     40  C   UNL     1      -3.931   3.350 136.559  0.00  0.00    +0.000 A 
ATOM     41  C   UNL     1      -4.562   2.823 135.437  0.00  0.00    +0.000 A 
ATOM     42  C   UNL     1      -5.627   3.508 134.860  0.00  0.00    +0.000 A 
BRANCH  40  43
ATOM     43  O   UNL     1      -2.924   2.636 137.133  0.00  0.00    +0.000 OA
ATOM     44  H   UNL     1      -3.107   1.695 136.976  0.00  0.00    +0.000 HD
ENDBRANCH  40  43
ENDBRANCH  36  37
ENDBRANCH  16  36
ENDBRANCH  13  16
ENDBRANCH  11  12
BRANCH  11  45
ATOM     45  C   UNL     1      -9.768   7.158 129.788  0.00  0.00    +0.000 C 
ATOM     46  C   UNL     1      -8.368   7.537 130.152  0.00  0.00    +0.000 C 
BRANCH  45  48
ATOM     47  C   UNL     1     -10.855   8.396 127.868  0.00  0.00    +0.000 C 
ATOM     48  C   UNL     1     -11.010   8.075 129.335  0.00  0.00    +0.000 C 
ENDBRANCH  45  48
ENDBRANCH  11  45
ENDBRANCH   7  11
ENDBRANCH   6   9
BRANCH   6  49
ATOM     49  C   UNL     1      -9.415   1.807 131.290  0.00  0.00    +0.000 C 
ATOM     50  C   UNL     1      -8.252   1.605 132.227  0.00  0.00    +0.000 C 
BRANCH  49  51
ATOM     51  O   UNL     1     -10.600   1.817 132.110  0.00  0.00    +0.000 OA
ATOM     52  H   UNL     1     -10.343   1.999 133.031  0.00  0.00    +0.000 HD
ENDBRANCH  49  51
ENDBRANCH   6  49
ENDBRANCH   2   6
ENDBRANCH   1   4
BRANCH   1  53
ATOM     53  C   UNL     1      -8.974   0.832 126.183  0.00  0.00    +0.000 C 
ATOM     54  O   UNL     1     -10.057   0.974 125.617  0.00  0.00    +0.000 OA
ATOM     55  N   UNL     1      -8.330  -0.382 126.259  0.00  0.00    +0.000 N 
ATOM     56  H   UNL     1      -7.435  -0.487 126.740  0.00  0.00    +0.000 HD
BRANCH  55  57
ATOM     57  C   UNL     1      -8.972  -1.627 125.818  0.00  0.00    +0.000 C 
BRANCH  57  58
ATOM     58  C   UNL     1      -8.559  -2.747 126.828  0.00  0.00    +0.000 C 
ATOM     59  O   UNL     1      -8.613  -3.939 126.520  0.00  0.00    +0.000 OA
ATOM     60  N   UNL     1      -8.126  -2.340 128.070  0.00  0.00    +0.000 N 
ATOM     61  H   UNL     1      -8.018  -1.352 128.291  0.00  0.00    +0.000 HD
BRANCH  60  62
ATOM     62  C   UNL     1      -7.647  -3.274 129.105  0.00  0.00    +0.000 C 
BRANCH  62  63
ATOM     63  C   UNL     1      -7.652  -2.563 130.473  0.00  0.00    +0.000 C 
ATOM     64  O   UNL     1      -8.221  -1.475 130.594  0.00  0.00    +0.000 OA
ATOM     65  N   UNL     1      -7.033  -3.200 131.534  0.00  0.00    +0.000 N 
ATOM     66  H   UNL     1      -6.404  -3.984 131.367  0.00  0.00    +0.000 HD
BRANCH  65  67
ATOM     67  C   UNL     1      -7.163  -2.780 132.958  0.00  0.00    +0.000 C 
BRANCH  67  68
ATOM     68  C   UNL     1      -5.770  -2.706 133.601  0.00  0.00    +0.000 C 
ATOM     69  O   UNL     1      -5.171  -3.758 133.809  0.00  0.00    +0.000 OA
ATOM     70  N   UNL     1      -5.332  -1.462 134.033  0.00  0.00    +0.000 N 
ATOM     71  H   UNL     1      -6.018  -0.735 134.130  0.00  0.00    +0.000 HD
BRANCH  70  72
ATOM     72  C   UNL     1      -3.979  -1.223 134.600  0.00  0.00    +0.000 C 
BRANCH  72  73
ATOM     73  C   UNL     1      -3.957  -0.661 136.052  0.00  0.00    +0.000 C 
ATOM     74  N   UNL     1      -2.760  -0.326 136.615  0.00  0.00    +0.000 N 
ATOM     75  O   UNL     1      -4.978  -0.507 136.721  0.00  0.00    +0.000 OA
ATOM     76  H   UNL     1      -1.855  -0.378 136.185  0.00  0.00    +0.000 HD
ATOM     77  H   UNL     1      -2.793   0.028 137.566  0.00  0.00    +0.000 HD
ENDBRANCH  72  73
BRANCH  72  78
ATOM     78  C   UNL     1      -3.153  -0.233 133.726  0.00  0.00    +0.000 C 
BRANCH  78  79
ATOM     79  C   UNL     1      -3.653  -0.117 132.304  0.00  0.00    +0.000 A 
ATOM     80  C   UNL     1      -4.460   0.947 131.904  0.00  0.00    +0.000 A 
ATOM     81  C   UNL     1      -5.122   0.890 130.671  0.00  0.00    +0.000 A 
ATOM     82  C   UNL     1      -5.008  -0.211 129.787  0.00  0.00    +0.000 A 
ATOM     83  C   UNL     1      -4.153  -1.259 130.188  0.00  0.00    +0.000 A 
ATOM     84  I   UNL     1      -3.851  -3.113 129.220  0.00  0.00    +0.000 I 
ATOM     85  C   UNL     1      -3.474  -1.191 131.422  0.00  0.00    +0.000 A 
BRANCH  82  86
ATOM     86  N   UNL     1      -5.834  -0.087 128.646  0.00  0.00    +0.000 NA
ATOM     87  N   UNL     1      -5.517  -0.646 127.586  0.00  0.00    +0.000 NA
ATOM     88  N   UNL     1      -5.297  -1.136 126.579  0.00  0.00    +0.000 NA
ENDBRANCH  82  86
ENDBRANCH  78  79
ENDBRANCH  72  78
ENDBRANCH  70  72
ENDBRANCH  67  68
BRANCH  67  89
ATOM     89  C   UNL     1      -7.878  -3.833 133.819  0.00  0.00    +0.000 C 
BRANCH  89  90
ATOM     90  C   UNL     1      -8.360  -3.255 135.125  0.00  0.00    +0.000 C 
BRANCH  90  91
ATOM     91  C   UNL     1      -8.530  -4.273 136.222  0.00  0.00    +0.000 C 
BRANCH  91  92
ATOM     92  N   UNL     1      -9.682  -5.082 135.858  0.00  0.00    +0.000 NA
ATOM     93  H   UNL     1      -9.419  -5.762 135.145  0.00  0.00    +0.000 HD
ATOM     94  H   UNL     1     -10.415  -4.498 135.468  0.00  0.00    +0.000 HD
ENDBRANCH  91  92
ENDBRANCH  90  91
ENDBRANCH  89  90
ENDBRANCH  67  89
ENDBRANCH  65  67
ENDBRANCH  62  63
ENDBRANCH  60  62
ENDBRANCH  57  58
BRANCH  57  95
ATOM     95  C   UNL     1      -8.596  -2.066 124.384  0.00  0.00    +0.000 C 
BRANCH  95  96
ATOM     96  S   UNL     1      -7.337  -1.153 123.420  0.00  0.00    +0.000 S 
ATOM     97  H   UNL     1      -7.678   0.089 123.815  0.00  0.00    +0.000 HD
ENDBRANCH  95  96
ENDBRANCH  57  95
ENDBRANCH  55  57
ENDBRANCH   1  53
BRANCH   1  98
ATOM     98  C   UNL     1      -6.798   2.241 126.145  0.00  0.00    +0.000 C 
BRANCH  98  99
ATOM     99  C   UNL     1      -6.461   3.467 125.317  0.00  0.00    +0.000 C 
ATOM    100  N   UNL     1      -7.490   4.217 124.873  0.00  0.00    +0.000 N 
ATOM    101  O   UNL     1      -5.328   3.773 124.969  0.00  0.00    +0.000 OA
ATOM    102  H   UNL     1      -7.982   4.535 125.682  0.00  0.00    +0.000 HD
ATOM    103  H   UNL     1      -7.122   5.052 124.422  0.00  0.00    +0.000 HD
ENDBRANCH  98  99
ENDBRANCH   1  98
TORSDOF 40
ENDMDL
MODEL 3
REMARK VINA RESULT:      -8.0      3.230      8.362
REMARK  Name = CHEMBL2370342
REMARK  43 active torsions:
REMARK  status: ('A' for Active; 'I' for Inactive)
REMARK    1  A    between atoms: C_1  and  C_2
REMARK    2  A    between atoms: C_2  and  C_3
REMARK    3  A    between atoms: C_3  and  C_4
REMARK    4  A    between atoms: C_3  and  C_5
REMARK    5  A    between atoms: C_5  and  N_6
REMARK    6  A    between atoms: C_5  and  C_34
REMARK    7  A    between atoms: C_7  and  C_9
REMARK    8  A    between atoms: C_9  and  C_10
REMARK    9  A    between atoms: C_9  and  N_18
REMARK   10  A    between atoms: C_10  and  C_11
REMARK   11  A    between atoms: C_14  and  O_15
REMARK   12  A    between atoms: C_19  and  C_21
REMARK   13  A    between atoms: C_21  and  C_22
REMARK   14  A    between atoms: C_22  and  S_23
REMARK   15  A    between atoms: S_23  and  C_24
REMARK   16  A    between atoms: C_24  and  C_25
REMARK   17  A    between atoms: C_25  and  C_26
REMARK   18  A    between atoms: N_36  and  C_37
REMARK   19  A    between atoms: C_37  and  C_38
REMARK   20  A    between atoms: C_37  and  C_82
REMARK   21  A    between atoms: N_40  and  C_41
REMARK   22  A    between atoms: C_41  and  C_42
REMARK   23  A    between atoms: C_41  and  C_46
REMARK   24  A    between atoms: C_42  and  C_43
REMARK   25  A    between atoms: N_48  and  C_49
REMARK   26  A    between atoms: C_49  and  C_50
REMARK   27  A    between atoms: C_49  and  C_52
REMARK   28  A    between atoms: C_50  and  S_51
REMARK   29  A    between atoms: N_54  and  C_55
REMARK   30  A    between atoms: C_55  and  C_56
REMARK   31  A    between atoms: N_58  and  C_59
REMARK   32  A    between atoms: C_59  and  C_60
REMARK   33  A    between atoms: C_59  and  C_64
REMARK   34  A    between atoms: C_60  and  C_61
REMARK   35  A    between atoms: C_61  and  C_62
REMARK   36  A    between atoms: C_62  and  N_63
REMARK   37  A    between atoms: N_66  and  C_67
REMARK   38  A    between atoms: C_67  and  C_68
REMARK   39  A    between atoms: C_67  and  C_79
REMARK   40  A    between atoms: C_68  and  C_69
REMARK   41  A    between atoms: C_72  and  N_73
REMARK   42  A    between atoms: C_82  and  C_83
REMARK   43  A    between atoms: C_82  and  O_84
REMARK                            x       y       z     vdW  Elec       q    Type
REMARK                         _______ _______ _______ _____ _____    ______ ____
ROOT
ATOM      1  C   UNL     1      -5.720   3.443 123.623  0.00  0.00    +0.000 C 
ENDROOT
BRANCH   1   4
ATOM      2  C   UNL     1      -7.444   1.504 123.067  0.00  0.00    +0.000 C 
ATOM      3  O   UNL     1      -6.565   0.709 122.696  0.00  0.00    +0.000 OA
ATOM      4  N   UNL     1      -7.081   2.835 123.261  0.00  0.00    +0.000 N 
ATOM      5  H   UNL     1      -7.794   3.500 123.532  0.00  0.00    +0.000 HD
BRANCH   2   6
ATOM      6  C   UNL     1      -8.941   0.891 123.391  0.00  0.00    +0.000 C 
BRANCH   6   9
ATOM      7  C   UNL     1      -8.919  -1.716 124.002  0.00  0.00    +0.000 C 
ATOM      8  O   UNL     1      -9.743  -2.614 124.169  0.00  0.00    +0.000 OA
ATOM      9  N   UNL     1      -9.326  -0.577 123.334  0.00  0.00    +0.000 N 
ATOM     10  H   UNL     1     -10.268  -0.766 123.008  0.00  0.00    +0.000 HD
BRANCH   7  11
ATOM     11  C   UNL     1      -7.446  -1.866 124.400  0.00  0.00    +0.000 C 
BRANCH  11  12
ATOM     12  N   UNL     1      -7.028  -2.023 125.752  0.00  0.00    +0.000 N 
ATOM     13  C   UNL     1      -6.167  -1.073 126.257  0.00  0.00    +0.000 C 
ATOM     14  O   UNL     1      -5.451  -0.338 125.583  0.00  0.00    +0.000 OA
ATOM     15  H   UNL     1      -7.673  -2.497 126.380  0.00  0.00    +0.000 HD
BRANCH  13  16
ATOM     16  C   UNL     1      -6.068  -1.069 127.756  0.00  0.00    +0.000 C 
BRANCH  16  17
ATOM     17  N   UNL     1      -6.841   0.106 128.150  0.00  0.00    +0.000 N 
ATOM     18  C   UNL     1      -6.135   1.036 128.887  0.00  0.00    +0.000 C 
ATOM     19  O   UNL     1      -5.036   0.747 129.348  0.00  0.00    +0.000 OA
ATOM     20  H   UNL     1      -7.521   0.455 127.487  0.00  0.00    +0.000 HD
BRANCH  18  21
ATOM     21  C   UNL     1      -6.815   2.363 129.115  0.00  0.00    +0.000 C 
BRANCH  21  22
ATOM     22  C   UNL     1      -7.526   2.442 130.515  0.00  0.00    +0.000 C 
ATOM     23  C   UNL     1      -8.899   3.117 130.278  0.00  0.00    +0.000 C 
ATOM     24  C   UNL     1      -9.879   2.998 131.440  0.00  0.00    +0.000 C 
ATOM     25  C   UNL     1     -10.012   1.580 131.986  0.00  0.00    +0.000 C 
ATOM     26  C   UNL     1      -8.708   0.846 132.200  0.00  0.00    +0.000 C 
ATOM     27  C   UNL     1      -7.765   0.998 131.037  0.00  0.00    +0.000 C 
BRANCH  22  28
ATOM     28  S   UNL     1      -6.411   3.531 131.604  0.00  0.00    +0.000 S 
BRANCH  28  29
ATOM     29  C   UNL     1      -6.461   5.189 130.863  0.00  0.00    +0.000 C 
BRANCH  29  30
ATOM     30  C   UNL     1      -6.936   6.315 131.751  0.00  0.00    +0.000 C 
BRANCH  30  31
ATOM     31  C   UNL     1      -8.457   6.480 131.712  0.00  0.00    +0.000 C 
ATOM     32  N   UNL     1      -9.083   6.783 130.537  0.00  0.00    +0.000 N 
ATOM     33  O   UNL     1      -9.143   6.349 132.725  0.00  0.00    +0.000 OA
ATOM     34  H   UNL     1      -8.644   6.905 129.635  0.00  0.00    +0.000 HD
ATOM     35  H   UNL     1     -10.091   6.879 130.568  0.00  0.00    +0.000 HD
ENDBRANCH  30  31
ENDBRANCH  29  30
ENDBRANCH  28  29
ENDBRANCH  22  28
ENDBRANCH  21  22
ENDBRANCH  18  21
ENDBRANCH  16  17
BRANCH  16  36
ATOM     36  C   UNL     1      -6.643  -2.378 128.308  0.00  0.00    +0.000 C 
BRANCH  36  37
ATOM     37  C   UNL     1      -5.824  -2.993 129.403  0.00  0.00    +0.000 A 
ATOM     38  C   UNL     1      -4.466  -2.689 129.549  0.00  0.00    +0.000 A 
ATOM     39  C   UNL     1      -3.724  -3.225 130.581  0.00  0.00    +0.000 A 
ATOM     40  C   UNL     1      -4.348  -4.062 131.489  0.00  0.00    +0.000 A 
ATOM     41  C   UNL     1      -5.687  -4.411 131.349  0.00  0.00    +0.000 A 
ATOM     42  C   UNL     1      -6.430  -3.887 130.296  0.00  0.00    +0.000 A 
BRANCH  40  43
ATOM     43  O   UNL     1      -3.657  -4.550 132.556  0.00  0.00    +0.000 OA
ATOM     44  H   UNL     1      -3.872  -3.993 133.322  0.00  0.00    +0.000 HD
ENDBRANCH  40  43
ENDBRANCH  36  37
ENDBRANCH  16  36
ENDBRANCH  13  16
ENDBRANCH  11  12
BRANCH  11  45
ATOM     45  C   UNL     1      -6.832  -3.067 123.736  0.00  0.00    +0.000 C 
ATOM     46  C   UNL     1      -7.325  -4.107 124.691  0.00  0.00    +0.000 C 
BRANCH  45  48
ATOM     47  C   UNL     1      -4.472  -3.962 123.550  0.00  0.00    +0.000 C 
ATOM     48  C   UNL     1      -5.351  -2.796 123.167  0.00  0.00    +0.000 C 
ENDBRANCH  45  48
ENDBRANCH  11  45
ENDBRANCH   7  11
ENDBRANCH   6   9
BRANCH   6  49
ATOM     49  C   UNL     1      -9.741   1.521 124.535  0.00  0.00    +0.000 C 
ATOM     50  C   UNL     1      -9.391   0.953 125.887  0.00  0.00    +0.000 C 
BRANCH  49  51
ATOM     51  O   UNL     1      -9.456   2.931 124.601  0.00  0.00    +0.000 OA
ATOM     52  H   UNL     1      -8.589   3.096 124.190  0.00  0.00    +0.000 HD
ENDBRANCH  49  51
ENDBRANCH   6  49
ENDBRANCH   2   6
ENDBRANCH   1   4
BRANCH   1  53
ATOM     53  C   UNL     1      -5.662   3.435 125.153  0.00  0.00    +0.000 C 
ATOM     54  O   UNL     1      -6.610   3.009 125.811  0.00  0.00    +0.000 OA
ATOM     55  N   UNL     1      -4.456   3.777 125.723  0.00  0.00    +0.000 N 
ATOM     56  H   UNL     1      -3.681   4.137 125.165  0.00  0.00    +0.000 HD
BRANCH  55  57
ATOM     57  C   UNL     1      -4.275   3.820 127.180  0.00  0.00    +0.000 C 
BRANCH  57  58
ATOM     58  C   UNL     1      -4.205   5.327 127.595  0.00  0.00    +0.000 C 
ATOM     59  O   UNL     1      -4.721   6.206 126.903  0.00  0.00    +0.000 OA
ATOM     60  N   UNL     1      -3.550   5.621 128.770  0.00  0.00    +0.000 N 
ATOM     61  H   UNL     1      -3.189   4.882 129.369  0.00  0.00    +0.000 HD
BRANCH  60  62
ATOM     62  C   UNL     1      -3.454   6.985 129.321  0.00  0.00    +0.000 C 
BRANCH  62  63
ATOM     63  C   UNL     1      -2.572   6.962 130.585  0.00  0.00    +0.000 C 
ATOM     64  O   UNL     1      -1.547   6.274 130.602  0.00  0.00    +0.000 OA
ATOM     65  N   UNL     1      -2.957   7.748 131.656  0.00  0.00    +0.000 N 
ATOM     66  H   UNL     1      -3.897   8.139 131.695  0.00  0.00    +0.000 HD
BRANCH  65  67
ATOM     67  C   UNL     1      -2.097   8.035 132.840  0.00  0.00    +0.000 C 
BRANCH  67  68
ATOM     68  C   UNL     1      -2.410   7.027 133.957  0.00  0.00    +0.000 C 
ATOM     69  O   UNL     1      -1.530   6.779 134.777  0.00  0.00    +0.000 OA
ATOM     70  N   UNL     1      -3.623   6.357 133.890  0.00  0.00    +0.000 N 
ATOM     71  H   UNL     1      -4.117   6.374 133.015  0.00  0.00    +0.000 HD
BRANCH  70  72
ATOM     72  C   UNL     1      -4.096   5.415 134.938  0.00  0.00    +0.000 C 
BRANCH  72  73
ATOM     73  C   UNL     1      -3.557   3.959 134.816  0.00  0.00    +0.000 C 
ATOM     74  N   UNL     1      -3.430   3.202 135.945  0.00  0.00    +0.000 N 
ATOM     75  O   UNL     1      -3.235   3.458 133.740  0.00  0.00    +0.000 OA
ATOM     76  H   UNL     1      -3.671   3.470 136.881  0.00  0.00    +0.000 HD
ATOM     77  H   UNL     1      -3.066   2.263 135.818  0.00  0.00    +0.000 HD
ENDBRANCH  72  73
BRANCH  72  78
ATOM     78  C   UNL     1      -5.650   5.314 134.964  0.00  0.00    +0.000 C 
BRANCH  78  79
ATOM     79  C   UNL     1      -6.289   6.086 136.097  0.00  0.00    +0.000 A 
ATOM     80  C   UNL     1      -7.621   5.880 136.452  0.00  0.00    +0.000 A 
ATOM     81  C   UNL     1      -8.257   6.786 137.311  0.00  0.00    +0.000 A 
ATOM     82  C   UNL     1      -7.604   7.918 137.855  0.00  0.00    +0.000 A 
ATOM     83  C   UNL     1      -6.244   8.086 137.521  0.00  0.00    +0.000 A 
ATOM     84  I   UNL     1      -4.992   9.718 138.008  0.00  0.00    +0.000 I 
ATOM     85  C   UNL     1      -5.601   7.164 136.669  0.00  0.00    +0.000 A 
BRANCH  82  86
ATOM     86  N   UNL     1      -8.467   8.734 138.621  0.00  0.00    +0.000 NA
ATOM     87  N   UNL     1      -9.635   8.924 138.251  0.00  0.00    +0.000 NA
ATOM     88  N   UNL     1     -10.723   9.139 137.980  0.00  0.00    +0.000 NA
ENDBRANCH  82  86
ENDBRANCH  78  79
ENDBRANCH  72  78
ENDBRANCH  70  72
ENDBRANCH  67  68
BRANCH  67  89
ATOM     89  C   UNL     1      -2.433   9.383 133.497  0.00  0.00    +0.000 C 
BRANCH  89  90
ATOM     90  C   UNL     1      -1.190  10.166 133.833  0.00  0.00    +0.000 C 
BRANCH  90  91
ATOM     91  C   UNL     1      -0.898  11.294 132.878  0.00  0.00    +0.000 C 
BRANCH  91  92
ATOM     92  N   UNL     1      -2.173  11.674 132.289  0.00  0.00    +0.000 NA
ATOM     93  H   UNL     1      -2.940  11.290 132.840  0.00  0.00    +0.000 HD
ATOM     94  H   UNL     1      -2.254  11.300 131.349  0.00  0.00    +0.000 HD
ENDBRANCH  91  92
ENDBRANCH  90  91
ENDBRANCH  89  90
ENDBRANCH  67  89
ENDBRANCH  65  67
ENDBRANCH  62  63
ENDBRANCH  60  62
ENDBRANCH  57  58
BRANCH  57  95
ATOM     95  C   UNL     1      -3.011   3.090 127.688  0.00  0.00    +0.000 C 
BRANCH  95  96
ATOM     96  S   UNL     1      -1.524   2.937 126.631  0.00  0.00    +0.000 S 
ATOM     97  H   UNL     1      -2.106   2.295 125.599  0.00  0.00    +0.000 HD
ENDBRANCH  95  96
ENDBRANCH  57  95
ENDBRANCH  55  57
ENDBRANCH   1  53
BRANCH   1  98
ATOM     98  C   UNL     1      -5.301   4.722 122.932  0.00  0.00    +0.000 C 
BRANCH  98  99
ATOM     99  C   UNL     1      -4.876   4.702 121.475  0.00  0.00    +0.000 C 
ATOM    100  N   UNL     1      -4.162   5.752 121.024  0.00  0.00    +0.000 N 
ATOM    101  O   UNL     1      -5.200   3.834 120.675  0.00  0.00    +0.000 OA
ATOM    102  H   UNL     1      -3.329   5.790 121.573  0.00  0.00    +0.000 HD
ATOM    103  H   UNL     1      -3.861   5.565 120.070  0.00  0.00    +0.000 HD
ENDBRANCH  98  99
ENDBRANCH   1  98
TORSDOF 40
ENDMDL
MODEL 4
REMARK VINA RESULT:      -7.9      3.211      8.230
REMARK  Name = CHEMBL2370342
REMARK  43 active torsions:
REMARK  status: ('A' for Active; 'I' for Inactive)
REMARK    1  A    between atoms: C_1  and  C_2
REMARK    2  A    between atoms: C_2  and  C_3
REMARK    3  A    between atoms: C_3  and  C_4
REMARK    4  A    between atoms: C_3  and  C_5
REMARK    5  A    between atoms: C_5  and  N_6
REMARK    6  A    between atoms: C_5  and  C_34
REMARK    7  A    between atoms: C_7  and  C_9
REMARK    8  A    between atoms: C_9  and  C_10
REMARK    9  A    between atoms: C_9  and  N_18
REMARK   10  A    between atoms: C_10  and  C_11
REMARK   11  A    between atoms: C_14  and  O_15
REMARK   12  A    between atoms: C_19  and  C_21
REMARK   13  A    between atoms: C_21  and  C_22
REMARK   14  A    between atoms: C_22  and  S_23
REMARK   15  A    between atoms: S_23  and  C_24
REMARK   16  A    between atoms: C_24  and  C_25
REMARK   17  A    between atoms: C_25  and  C_26
REMARK   18  A    between atoms: N_36  and  C_37
REMARK   19  A    between atoms: C_37  and  C_38
REMARK   20  A    between atoms: C_37  and  C_82
REMARK   21  A    between atoms: N_40  and  C_41
REMARK   22  A    between atoms: C_41  and  C_42
REMARK   23  A    between atoms: C_41  and  C_46
REMARK   24  A    between atoms: C_42  and  C_43
REMARK   25  A    between atoms: N_48  and  C_49
REMARK   26  A    between atoms: C_49  and  C_50
REMARK   27  A    between atoms: C_49  and  C_52
REMARK   28  A    between atoms: C_50  and  S_51
REMARK   29  A    between atoms: N_54  and  C_55
REMARK   30  A    between atoms: C_55  and  C_56
REMARK   31  A    between atoms: N_58  and  C_59
REMARK   32  A    between atoms: C_59  and  C_60
REMARK   33  A    between atoms: C_59  and  C_64
REMARK   34  A    between atoms: C_60  and  C_61
REMARK   35  A    between atoms: C_61  and  C_62
REMARK   36  A    between atoms: C_62  and  N_63
REMARK   37  A    between atoms: N_66  and  C_67
REMARK   38  A    between atoms: C_67  and  C_68
REMARK   39  A    between atoms: C_67  and  C_79
REMARK   40  A    between atoms: C_68  and  C_69
REMARK   41  A    between atoms: C_72  and  N_73
REMARK   42  A    between atoms: C_82  and  C_83
REMARK   43  A    between atoms: C_82  and  O_84
REMARK                            x       y       z     vdW  Elec       q    Type
REMARK                         _______ _______ _______ _____ _____    ______ ____
ROOT
ATOM      1  C   UNL     1      -6.017   3.150 123.490  0.00  0.00    +0.000 C 
ENDROOT
BRANCH   1   4
ATOM      2  C   UNL     1      -7.678   1.099 123.214  0.00  0.00    +0.000 C 
ATOM      3  O   UNL     1      -6.785   0.310 122.865  0.00  0.00    +0.000 OA
ATOM      4  N   UNL     1      -7.367   2.456 123.265  0.00  0.00    +0.000 N 
ATOM      5  H   UNL     1      -8.094   3.114 123.517  0.00  0.00    +0.000 HD
BRANCH   2   6
ATOM      6  C   UNL     1      -9.125   0.459 123.679  0.00  0.00    +0.000 C 
BRANCH   6   9
ATOM      7  C   UNL     1      -8.934  -2.097 124.455  0.00  0.00    +0.000 C 
ATOM      8  O   UNL     1      -9.699  -3.011 124.761  0.00  0.00    +0.000 OA
ATOM      9  N   UNL     1      -9.452  -1.022 123.757  0.00  0.00    +0.000 N 
ATOM     10  H   UNL     1     -10.412  -1.268 123.540  0.00  0.00    +0.000 HD
BRANCH   7  11
ATOM     11  C   UNL     1      -7.424  -2.166 124.714  0.00  0.00    +0.000 C 
BRANCH  11  12
ATOM     12  N   UNL     1      -6.876  -2.380 126.010  0.00  0.00    +0.000 N 
ATOM     13  C   UNL     1      -6.197  -1.329 126.586  0.00  0.00    +0.000 C 
ATOM     14  O   UNL     1      -5.707  -0.384 125.975  0.00  0.00    +0.000 OA
ATOM     15  H   UNL     1      -7.356  -3.052 126.605  0.00  0.00    +0.000 HD
BRANCH  13  16
ATOM     16  C   UNL     1      -5.982  -1.474 128.066  0.00  0.00    +0.000 C 
BRANCH  16  17
ATOM     17  N   UNL     1      -7.055  -0.674 128.651  0.00  0.00    +0.000 N 
ATOM     18  C   UNL     1      -6.626   0.445 129.337  0.00  0.00    +0.000 C 
ATOM     19  O   UNL     1      -5.438   0.581 129.609  0.00  0.00    +0.000 OA
ATOM     20  H   UNL     1      -7.914  -0.596 128.122  0.00  0.00    +0.000 HD
BRANCH  18  21
ATOM     21  C   UNL     1      -7.696   1.422 129.755  0.00  0.00    +0.000 C 
BRANCH  21  22
ATOM     22  C   UNL     1      -7.992   1.368 131.297  0.00  0.00    +0.000 C 
ATOM     23  C   UNL     1      -6.742   1.937 132.011  0.00  0.00    +0.000 C 
ATOM     24  C   UNL     1      -6.943   2.276 133.484  0.00  0.00    +0.000 C 
ATOM     25  C   UNL     1      -8.198   3.100 133.756  0.00  0.00    +0.000 C 
ATOM     26  C   UNL     1      -9.449   2.624 133.054  0.00  0.00    +0.000 C 
ATOM     27  C   UNL     1      -9.204   2.289 131.607  0.00  0.00    +0.000 C 
BRANCH  22  28
ATOM     28  S   UNL     1      -8.235  -0.471 131.716  0.00  0.00    +0.000 S 
BRANCH  28  29
ATOM     29  C   UNL     1      -6.687  -1.011 132.499  0.00  0.00    +0.000 C 
BRANCH  29  30
ATOM     30  C   UNL     1      -6.761  -1.392 133.959  0.00  0.00    +0.000 C 
BRANCH  30  31
ATOM     31  C   UNL     1      -5.494  -2.104 134.435  0.00  0.00    +0.000 C 
ATOM     32  N   UNL     1      -5.574  -3.353 134.981  0.00  0.00    +0.000 N 
ATOM     33  O   UNL     1      -4.387  -1.576 134.343  0.00  0.00    +0.000 OA
ATOM     34  H   UNL     1      -6.412  -3.904 135.103  0.00  0.00    +0.000 HD
ATOM     35  H   UNL     1      -4.705  -3.780 135.278  0.00  0.00    +0.000 HD
ENDBRANCH  30  31
ENDBRANCH  29  30
ENDBRANCH  28  29
ENDBRANCH  22  28
ENDBRANCH  21  22
ENDBRANCH  18  21
ENDBRANCH  16  17
BRANCH  16  36
ATOM     36  C   UNL     1      -6.062  -2.956 128.449  0.00  0.00    +0.000 C 
BRANCH  36  37
ATOM     37  C   UNL     1      -5.321  -3.304 129.706  0.00  0.00    +0.000 A 
ATOM     38  C   UNL     1      -5.732  -4.367 130.517  0.00  0.00    +0.000 A 
ATOM     39  C   UNL     1      -5.027  -4.711 131.651  0.00  0.00    +0.000 A 
ATOM     40  C   UNL     1      -3.886  -3.995 131.972  0.00  0.00    +0.000 A 
ATOM     41  C   UNL     1      -3.473  -2.911 131.205  0.00  0.00    +0.000 A 
ATOM     42  C   UNL     1      -4.198  -2.551 130.073  0.00  0.00    +0.000 A 
BRANCH  40  43
ATOM     43  O   UNL     1      -3.132  -4.356 133.046  0.00  0.00    +0.000 OA
ATOM     44  H   UNL     1      -3.449  -3.847 133.810  0.00  0.00    +0.000 HD
ENDBRANCH  40  43
ENDBRANCH  36  37
ENDBRANCH  16  36
ENDBRANCH  13  16
ENDBRANCH  11  12
BRANCH  11  45
ATOM     45  C   UNL     1      -6.794  -3.274 123.916  0.00  0.00    +0.000 C 
ATOM     46  C   UNL     1      -7.253  -4.423 124.757  0.00  0.00    +0.000 C 
BRANCH  45  48
ATOM     47  C   UNL     1      -4.418  -4.088 123.613  0.00  0.00    +0.000 C 
ATOM     48  C   UNL     1      -5.328  -2.910 123.362  0.00  0.00    +0.000 C 
ENDBRANCH  45  48
ENDBRANCH  11  45
ENDBRANCH   7  11
ENDBRANCH   6   9
BRANCH   6  49
ATOM     49  C   UNL     1      -9.879   1.145 124.822  0.00  0.00    +0.000 C 
ATOM     50  C   UNL     1      -9.305   0.835 126.181  0.00  0.00    +0.000 C 
BRANCH  49  51
ATOM     51  O   UNL     1      -9.796   2.574 124.662  0.00  0.00    +0.000 OA
ATOM     52  H   UNL     1     -10.452   2.994 125.246  0.00  0.00    +0.000 HD
ENDBRANCH  49  51
ENDBRANCH   6  49
ENDBRANCH   2   6
ENDBRANCH   1   4
BRANCH   1  53
ATOM     53  C   UNL     1      -5.957   3.452 124.990  0.00  0.00    +0.000 C 
ATOM     54  O   UNL     1      -6.988   3.493 125.660  0.00  0.00    +0.000 OA
ATOM     55  N   UNL     1      -4.702   3.515 125.553  0.00  0.00    +0.000 N 
ATOM     56  H   UNL     1      -3.855   3.488 124.983  0.00  0.00    +0.000 HD
BRANCH  55  57
ATOM     57  C   UNL     1      -4.509   3.810 126.979  0.00  0.00    +0.000 C 
BRANCH  57  58
ATOM     58  C   UNL     1      -4.382   5.363 127.119  0.00  0.00    +0.000 C 
ATOM     59  O   UNL     1      -4.988   6.126 126.365  0.00  0.00    +0.000 OA
ATOM     60  N   UNL     1      -3.570   5.834 128.126  0.00  0.00    +0.000 N 
ATOM     61  H   UNL     1      -3.130   5.198 128.787  0.00  0.00    +0.000 HD
BRANCH  60  62
ATOM     62  C   UNL     1      -3.398   7.268 128.421  0.00  0.00    +0.000 C 
BRANCH  62  63
ATOM     63  C   UNL     1      -3.948   7.568 129.829  0.00  0.00    +0.000 C 
ATOM     64  O   UNL     1      -3.751   8.675 130.338  0.00  0.00    +0.000 OA
ATOM     65  N   UNL     1      -4.676   6.577 130.463  0.00  0.00    +0.000 N 
ATOM     66  H   UNL     1      -4.649   5.619 130.118  0.00  0.00    +0.000 HD
BRANCH  65  67
ATOM     67  C   UNL     1      -5.480   6.787 131.700  0.00  0.00    +0.000 C 
BRANCH  67  68
ATOM     68  C   UNL     1      -4.685   6.296 132.920  0.00  0.00    +0.000 C 
ATOM     69  O   UNL     1      -3.493   6.581 132.988  0.00  0.00    +0.000 OA
ATOM     70  N   UNL     1      -5.333   5.443 133.803  0.00  0.00    +0.000 N 
ATOM     71  H   UNL     1      -6.179   5.002 133.487  0.00  0.00    +0.000 HD
BRANCH  70  72
ATOM     72  C   UNL     1      -4.721   4.952 135.064  0.00  0.00    +0.000 C 
BRANCH  72  73
ATOM     73  C   UNL     1      -3.855   3.665 134.925  0.00  0.00    +0.000 C 
ATOM     74  N   UNL     1      -3.441   3.019 136.055  0.00  0.00    +0.000 N 
ATOM     75  O   UNL     1      -3.523   3.202 133.836  0.00  0.00    +0.000 OA
ATOM     76  H   UNL     1      -3.652   3.268 137.003  0.00  0.00    +0.000 HD
ATOM     77  H   UNL     1      -2.873   2.190 135.915  0.00  0.00    +0.000 HD
ENDBRANCH  72  73
BRANCH  72  78
ATOM     78  C   UNL     1      -5.796   4.651 136.150  0.00  0.00    +0.000 C 
BRANCH  78  79
ATOM     79  C   UNL     1      -6.353   5.891 136.813  0.00  0.00    +0.000 A 
ATOM     80  C   UNL     1      -7.725   6.069 136.979  0.00  0.00    +0.000 A 
ATOM     81  C   UNL     1      -8.221   7.327 137.346  0.00  0.00    +0.000 A 
ATOM     82  C   UNL     1      -7.386   8.448 137.567  0.00  0.00    +0.000 A 
ATOM     83  C   UNL     1      -5.996   8.239 137.438  0.00  0.00    +0.000 A 
ATOM     84  I   UNL     1      -4.463   9.689 137.538  0.00  0.00    +0.000 I 
ATOM     85  C   UNL     1      -5.498   6.968 137.086  0.00  0.00    +0.000 A 
BRANCH  82  86
ATOM     86  N   UNL     1      -8.113   9.630 137.839  0.00  0.00    +0.000 NA
ATOM     87  N   UNL     1      -9.333   9.574 138.048  0.00  0.00    +0.000 NA
ATOM     88  N   UNL     1     -10.455   9.603 138.258  0.00  0.00    +0.000 NA
ENDBRANCH  82  86
ENDBRANCH  78  79
ENDBRANCH  72  78
ENDBRANCH  70  72
ENDBRANCH  67  68
BRANCH  67  89
ATOM     89  C   UNL     1      -6.738   5.904 131.740  0.00  0.00    +0.000 C 
BRANCH  89  90
ATOM     90  C   UNL     1      -7.969   6.666 131.319  0.00  0.00    +0.000 C 
BRANCH  90  91
ATOM     91  C   UNL     1      -9.264   5.968 131.642  0.00  0.00    +0.000 C 
BRANCH  91  92
ATOM     92  N   UNL     1      -9.607   6.347 133.004  0.00  0.00    +0.000 NA
ATOM     93  H   UNL     1      -9.542   5.537 133.619  0.00  0.00    +0.000 HD
ATOM     94  H   UNL     1     -10.562   6.687 133.047  0.00  0.00    +0.000 HD
ENDBRANCH  91  92
ENDBRANCH  90  91
ENDBRANCH  89  90
ENDBRANCH  67  89
ENDBRANCH  65  67
ENDBRANCH  62  63
ENDBRANCH  60  62
ENDBRANCH  57  58
BRANCH  57  95
ATOM     95  C   UNL     1      -3.269   3.135 127.608  0.00  0.00    +0.000 C 
BRANCH  95  96
ATOM     96  S   UNL     1      -1.694   3.013 126.684  0.00  0.00    +0.000 S 
ATOM     97  H   UNL     1      -1.382   4.323 126.691  0.00  0.00    +0.000 HD
ENDBRANCH  95  96
ENDBRANCH  57  95
ENDBRANCH  55  57
ENDBRANCH   1  53
BRANCH   1  98
ATOM     98  C   UNL     1      -5.625   4.272 122.553  0.00  0.00    +0.000 C 
BRANCH  98  99
ATOM     99  C   UNL     1      -6.034   4.228 121.093  0.00  0.00    +0.000 C 
ATOM    100  N   UNL     1      -5.170   4.737 120.192  0.00  0.00    +0.000 N 
ATOM    101  O   UNL     1      -7.120   3.829 120.693  0.00  0.00    +0.000 OA
ATOM    102  H   UNL     1      -4.325   4.211 120.277  0.00  0.00    +0.000 HD
ATOM    103  H   UNL     1      -5.521   4.554 119.254  0.00  0.00    +0.000 HD
ENDBRANCH  98  99
ENDBRANCH   1  98
TORSDOF 40
ENDMDL
MODEL 5
REMARK VINA RESULT:      -7.8      3.097      8.545
REMARK  Name = CHEMBL2370342
REMARK  43 active torsions:
REMARK  status: ('A' for Active; 'I' for Inactive)
REMARK    1  A    between atoms: C_1  and  C_2
REMARK    2  A    between atoms: C_2  and  C_3
REMARK    3  A    between atoms: C_3  and  C_4
REMARK    4  A    between atoms: C_3  and  C_5
REMARK    5  A    between atoms: C_5  and  N_6
REMARK    6  A    between atoms: C_5  and  C_34
REMARK    7  A    between atoms: C_7  and  C_9
REMARK    8  A    between atoms: C_9  and  C_10
REMARK    9  A    between atoms: C_9  and  N_18
REMARK   10  A    between atoms: C_10  and  C_11
REMARK   11  A    between atoms: C_14  and  O_15
REMARK   12  A    between atoms: C_19  and  C_21
REMARK   13  A    between atoms: C_21  and  C_22
REMARK   14  A    between atoms: C_22  and  S_23
REMARK   15  A    between atoms: S_23  and  C_24
REMARK   16  A    between atoms: C_24  and  C_25
REMARK   17  A    between atoms: C_25  and  C_26
REMARK   18  A    between atoms: N_36  and  C_37
REMARK   19  A    between atoms: C_37  and  C_38
REMARK   20  A    between atoms: C_37  and  C_82
REMARK   21  A    between atoms: N_40  and  C_41
REMARK   22  A    between atoms: C_41  and  C_42
REMARK   23  A    between atoms: C_41  and  C_46
REMARK   24  A    between atoms: C_42  and  C_43
REMARK   25  A    between atoms: N_48  and  C_49
REMARK   26  A    between atoms: C_49  and  C_50
REMARK   27  A    between atoms: C_49  and  C_52
REMARK   28  A    between atoms: C_50  and  S_51
REMARK   29  A    between atoms: N_54  and  C_55
REMARK   30  A    between atoms: C_55  and  C_56
REMARK   31  A    between atoms: N_58  and  C_59
REMARK   32  A    between atoms: C_59  and  C_60
REMARK   33  A    between atoms: C_59  and  C_64
REMARK   34  A    between atoms: C_60  and  C_61
REMARK   35  A    between atoms: C_61  and  C_62
REMARK   36  A    between atoms: C_62  and  N_63
REMARK   37  A    between atoms: N_66  and  C_67
REMARK   38  A    between atoms: C_67  and  C_68
REMARK   39  A    between atoms: C_67  and  C_79
REMARK   40  A    between atoms: C_68  and  C_69
REMARK   41  A    between atoms: C_72  and  N_73
REMARK   42  A    between atoms: C_82  and  C_83
REMARK   43  A    between atoms: C_82  and  O_84
REMARK                            x       y       z     vdW  Elec       q    Type
REMARK                         _______ _______ _______ _____ _____    ______ ____
ROOT
ATOM      1  C   UNL     1      -5.600   3.761 123.873  0.00  0.00    +0.000 C 
ENDROOT
BRANCH   1   4
ATOM      2  C   UNL     1      -7.351   2.044 122.861  0.00  0.00    +0.000 C 
ATOM      3  O   UNL     1      -6.479   1.321 122.351  0.00  0.00    +0.000 OA
ATOM      4  N   UNL     1      -6.962   3.289 123.349  0.00  0.00    +0.000 N 
ATOM      5  H   UNL     1      -7.668   3.903 123.738  0.00  0.00    +0.000 HD
BRANCH   2   6
ATOM      6  C   UNL     1      -8.873   1.424 123.001  0.00  0.00    +0.000 C 
BRANCH   6   9
ATOM      7  C   UNL     1      -8.968  -1.179 123.623  0.00  0.00    +0.000 C 
ATOM      8  O   UNL     1      -9.810  -2.076 123.640  0.00  0.00    +0.000 OA
ATOM      9  N   UNL     1      -9.243  -0.044 122.883  0.00  0.00    +0.000 N 
ATOM     10  H   UNL     1     -10.108  -0.236 122.389  0.00  0.00    +0.000 HD
BRANCH   7  11
ATOM     11  C   UNL     1      -7.595  -1.326 124.289  0.00  0.00    +0.000 C 
BRANCH  11  12
ATOM     12  N   UNL     1      -7.418  -1.283 125.701  0.00  0.00    +0.000 N 
ATOM     13  C   UNL     1      -6.954  -0.102 126.240  0.00  0.00    +0.000 C 
ATOM     14  O   UNL     1      -6.345   0.766 125.622  0.00  0.00    +0.000 OA
ATOM     15  H   UNL     1      -8.022  -1.884 126.258  0.00  0.00    +0.000 HD
BRANCH  13  16
ATOM     16  C   UNL     1      -7.150   0.013 127.725  0.00  0.00    +0.000 C 
BRANCH  16  17
ATOM     17  N   UNL     1      -8.067   1.141 127.867  0.00  0.00    +0.000 N 
ATOM     18  C   UNL     1      -7.830   1.937 128.969  0.00  0.00    +0.000 C 
ATOM     19  O   UNL     1      -7.065   1.556 129.849  0.00  0.00    +0.000 OA
ATOM     20  H   UNL     1      -8.370   1.599 127.017  0.00  0.00    +0.000 HD
BRANCH  18  21
ATOM     21  C   UNL     1      -8.593   3.237 129.031  0.00  0.00    +0.000 C 
BRANCH  21  22
ATOM     22  C   UNL     1      -9.140   3.546 130.472  0.00  0.00    +0.000 C 
ATOM     23  C   UNL     1      -9.539   2.187 131.096  0.00  0.00    +0.000 C 
ATOM     24  C   UNL     1      -9.786   2.221 132.601  0.00  0.00    +0.000 C 
ATOM     25  C   UNL     1      -8.684   2.925 133.386  0.00  0.00    +0.000 C 
ATOM     26  C   UNL     1      -8.215   4.240 132.806  0.00  0.00    +0.000 C 
ATOM     27  C   UNL     1      -7.994   4.165 131.319  0.00  0.00    +0.000 C 
BRANCH  22  28
ATOM     28  S   UNL     1     -10.664   4.654 130.223  0.00  0.00    +0.000 S 
BRANCH  28  29
ATOM     29  C   UNL     1     -10.030   6.354 130.116  0.00  0.00    +0.000 C 
BRANCH  29  30
ATOM     30  C   UNL     1     -10.817   7.320 129.263  0.00  0.00    +0.000 C 
BRANCH  30  31
ATOM     31  C   UNL     1     -10.473   7.192 127.778  0.00  0.00    +0.000 C 
ATOM     32  N   UNL     1     -11.094   7.990 126.860  0.00  0.00    +0.000 N 
ATOM     33  O   UNL     1      -9.643   6.376 127.378  0.00  0.00    +0.000 OA
ATOM     34  H   UNL     1     -11.780   8.706 127.051  0.00  0.00    +0.000 HD
ATOM     35  H   UNL     1     -10.828   7.865 125.891  0.00  0.00    +0.000 HD
ENDBRANCH  30  31
ENDBRANCH  29  30
ENDBRANCH  28  29
ENDBRANCH  22  28
ENDBRANCH  21  22
ENDBRANCH  18  21
ENDBRANCH  16  17
BRANCH  16  36
ATOM     36  C   UNL     1      -7.726  -1.300 128.266  0.00  0.00    +0.000 C 
BRANCH  36  37
ATOM     37  C   UNL     1      -6.769  -2.086 129.111  0.00  0.00    +0.000 A 
ATOM     38  C   UNL     1      -5.402  -1.789 129.124  0.00  0.00    +0.000 A 
ATOM     39  C   UNL     1      -4.529  -2.487 129.932  0.00  0.00    +0.000 A 
ATOM     40  C   UNL     1      -5.029  -3.484 130.751  0.00  0.00    +0.000 A 
ATOM     41  C   UNL     1      -6.377  -3.827 130.734  0.00  0.00    +0.000 A 
ATOM     42  C   UNL     1      -7.253  -3.136 129.903  0.00  0.00    +0.000 A 
BRANCH  40  43
ATOM     43  O   UNL     1      -4.202  -4.143 131.609  0.00  0.00    +0.000 OA
ATOM     44  H   UNL     1      -4.742  -4.453 132.354  0.00  0.00    +0.000 HD
ENDBRANCH  40  43
ENDBRANCH  36  37
ENDBRANCH  16  36
ENDBRANCH  13  16
ENDBRANCH  11  12
BRANCH  11  45
ATOM     45  C   UNL     1      -6.964  -2.643 123.930  0.00  0.00    +0.000 C 
ATOM     46  C   UNL     1      -7.368  -3.407 125.151  0.00  0.00    +0.000 C 
BRANCH  45  48
ATOM     47  C   UNL     1      -4.688  -3.694 123.590  0.00  0.00    +0.000 C 
ATOM     48  C   UNL     1      -5.526  -2.492 123.226  0.00  0.00    +0.000 C 
ENDBRANCH  45  48
ENDBRANCH  11  45
ENDBRANCH   7  11
ENDBRANCH   6   9
BRANCH   6  49
ATOM     49  C   UNL     1      -9.804   2.038 124.050  0.00  0.00    +0.000 C 
ATOM     50  C   UNL     1     -11.042   1.215 124.298  0.00  0.00    +0.000 C 
BRANCH  49  51
ATOM     51  O   UNL     1      -9.114   2.126 125.311  0.00  0.00    +0.000 OA
ATOM     52  H   UNL     1      -8.986   1.227 125.661  0.00  0.00    +0.000 HD
ENDBRANCH  49  51
ENDBRANCH   6  49
ENDBRANCH   2   6
ENDBRANCH   1   4
BRANCH   1  53
ATOM     53  C   UNL     1      -5.765   3.883 125.391  0.00  0.00    +0.000 C 
ATOM     54  O   UNL     1      -6.842   4.227 125.876  0.00  0.00    +0.000 OA
ATOM     55  N   UNL     1      -4.711   3.444 126.160  0.00  0.00    +0.000 N 
ATOM     56  H   UNL     1      -3.820   3.169 125.744  0.00  0.00    +0.000 HD
BRANCH  55  57
ATOM     57  C   UNL     1      -4.741   3.518 127.626  0.00  0.00    +0.000 C 
BRANCH  57  58
ATOM     58  C   UNL     1      -4.241   4.945 128.029  0.00  0.00    +0.000 C 
ATOM     59  O   UNL     1      -5.032   5.834 128.351  0.00  0.00    +0.000 OA
ATOM     60  N   UNL     1      -2.880   5.157 128.016  0.00  0.00    +0.000 N 
ATOM     61  H   UNL     1      -2.233   4.398 127.817  0.00  0.00    +0.000 HD
BRANCH  60  62
ATOM     62  C   UNL     1      -2.257   6.427 128.428  0.00  0.00    +0.000 C 
BRANCH  62  63
ATOM     63  C   UNL     1      -1.987   6.393 129.945  0.00  0.00    +0.000 C 
ATOM     64  O   UNL     1      -0.825   6.431 130.360  0.00  0.00    +0.000 OA
ATOM     65  N   UNL     1      -3.078   6.351 130.794  0.00  0.00    +0.000 N 
ATOM     66  H   UNL     1      -4.001   6.116 130.434  0.00  0.00    +0.000 HD
BRANCH  65  67
ATOM     67  C   UNL     1      -3.005   6.566 132.268  0.00  0.00    +0.000 C 
BRANCH  67  68
ATOM     68  C   UNL     1      -4.306   6.078 132.924  0.00  0.00    +0.000 C 
ATOM     69  O   UNL     1      -5.366   6.308 132.350  0.00  0.00    +0.000 OA
ATOM     70  N   UNL     1      -4.211   5.526 134.194  0.00  0.00    +0.000 N 
ATOM     71  H   UNL     1      -3.366   5.690 134.711  0.00  0.00    +0.000 HD
BRANCH  70  72
ATOM     72  C   UNL     1      -5.369   4.940 134.919  0.00  0.00    +0.000 C 
BRANCH  72  73
ATOM     73  C   UNL     1      -6.186   5.942 135.786  0.00  0.00    +0.000 C 
ATOM     74  N   UNL     1      -7.526   5.738 135.949  0.00  0.00    +0.000 N 
ATOM     75  O   UNL     1      -5.676   6.919 136.332  0.00  0.00    +0.000 OA
ATOM     76  H   UNL     1      -8.069   4.979 135.583  0.00  0.00    +0.000 HD
ATOM     77  H   UNL     1      -8.019   6.422 136.515  0.00  0.00    +0.000 HD
ENDBRANCH  72  73
BRANCH  72  78
ATOM     78  C   UNL     1      -4.931   3.784 135.867  0.00  0.00    +0.000 C 
BRANCH  78  79
ATOM     79  C   UNL     1      -5.005   2.415 135.229  0.00  0.00    +0.000 A 
ATOM     80  C   UNL     1      -5.251   2.264 133.866  0.00  0.00    +0.000 A 
ATOM     81  C   UNL     1      -5.579   1.001 133.356  0.00  0.00    +0.000 A 
ATOM     82  C   UNL     1      -5.671  -0.156 134.168  0.00  0.00    +0.000 A 
ATOM     83  C   UNL     1      -5.376   0.007 135.538  0.00  0.00    +0.000 A 
ATOM     84  I   UNL     1      -5.553  -1.436 137.072  0.00  0.00    +0.000 I 
ATOM     85  C   UNL     1      -5.029   1.276 136.046  0.00  0.00    +0.000 A 
BRANCH  82  86
ATOM     86  N   UNL     1      -6.102  -1.296 133.453  0.00  0.00    +0.000 NA
ATOM     87  N   UNL     1      -7.215  -1.790 133.683  0.00  0.00    +0.000 NA
ATOM     88  N   UNL     1      -8.227  -2.297 133.833  0.00  0.00    +0.000 NA
ENDBRANCH  82  86
ENDBRANCH  78  79
ENDBRANCH  72  78
ENDBRANCH  70  72
ENDBRANCH  67  68
BRANCH  67  89
ATOM     89  C   UNL     1      -2.976   8.056 132.644  0.00  0.00    +0.000 C 
BRANCH  89  90
ATOM     90  C   UNL     1      -1.662   8.449 133.271  0.00  0.00    +0.000 C 
BRANCH  90  91
ATOM     91  C   UNL     1      -0.870   7.290 133.814  0.00  0.00    +0.000 C 
BRANCH  91  92
ATOM     92  N   UNL     1       0.362   7.235 133.042  0.00  0.00    +0.000 NA
ATOM     93  H   UNL     1       0.851   8.127 133.103  0.00  0.00    +0.000 HD
ATOM     94  H   UNL     1       0.158   7.064 132.063  0.00  0.00    +0.000 HD
ENDBRANCH  91  92
ENDBRANCH  90  91
ENDBRANCH  89  90
ENDBRANCH  67  89
ENDBRANCH  65  67
ENDBRANCH  62  63
ENDBRANCH  60  62
ENDBRANCH  57  58
BRANCH  57  95
ATOM     95  C   UNL     1      -3.876   2.453 128.338  0.00  0.00    +0.000 C 
BRANCH  95  96
ATOM     96  S   UNL     1      -3.962   2.230 130.153  0.00  0.00    +0.000 S 
ATOM     97  H   UNL     1      -2.731   1.711 130.326  0.00  0.00    +0.000 HD
ENDBRANCH  95  96
ENDBRANCH  57  95
ENDBRANCH  55  57
ENDBRANCH   1  53
BRANCH   1  98
ATOM     98  C   UNL     1      -4.923   4.915 123.168  0.00  0.00    +0.000 C 
BRANCH  98  99
ATOM     99  C   UNL     1      -4.730   4.885 121.663  0.00  0.00    +0.000 C 
ATOM    100  N   UNL     1      -4.816   3.687 121.051  0.00  0.00    +0.000 N 
ATOM    101  O   UNL     1      -4.433   5.861 120.987  0.00  0.00    +0.000 OA
ATOM    102  H   UNL     1      -5.733   3.335 121.237  0.00  0.00    +0.000 HD
ATOM    103  H   UNL     1      -4.768   3.823 120.044  0.00  0.00    +0.000 HD
ENDBRANCH  98  99
ENDBRANCH   1  98
TORSDOF 40
ENDMDL
MODEL 6
REMARK VINA RESULT:      -7.6      2.365      5.448
REMARK  Name = CHEMBL2370342
REMARK  43 active torsions:
REMARK  status: ('A' for Active; 'I' for Inactive)
REMARK    1  A    between atoms: C_1  and  C_2
REMARK    2  A    between atoms: C_2  and  C_3
REMARK    3  A    between atoms: C_3  and  C_4
REMARK    4  A    between atoms: C_3  and  C_5
REMARK    5  A    between atoms: C_5  and  N_6
REMARK    6  A    between atoms: C_5  and  C_34
REMARK    7  A    between atoms: C_7  and  C_9
REMARK    8  A    between atoms: C_9  and  C_10
REMARK    9  A    between atoms: C_9  and  N_18
REMARK   10  A    between atoms: C_10  and  C_11
REMARK   11  A    between atoms: C_14  and  O_15
REMARK   12  A    between atoms: C_19  and  C_21
REMARK   13  A    between atoms: C_21  and  C_22
REMARK   14  A    between atoms: C_22  and  S_23
REMARK   15  A    between atoms: S_23  and  C_24
REMARK   16  A    between atoms: C_24  and  C_25
REMARK   17  A    between atoms: C_25  and  C_26
REMARK   18  A    between atoms: N_36  and  C_37
REMARK   19  A    between atoms: C_37  and  C_38
REMARK   20  A    between atoms: C_37  and  C_82
REMARK   21  A    between atoms: N_40  and  C_41
REMARK   22  A    between atoms: C_41  and  C_42
REMARK   23  A    between atoms: C_41  and  C_46
REMARK   24  A    between atoms: C_42  and  C_43
REMARK   25  A    between atoms: N_48  and  C_49
REMARK   26  A    between atoms: C_49  and  C_50
REMARK   27  A    between atoms: C_49  and  C_52
REMARK   28  A    between atoms: C_50  and  S_51
REMARK   29  A    between atoms: N_54  and  C_55
REMARK   30  A    between atoms: C_55  and  C_56
REMARK   31  A    between atoms: N_58  and  C_59
REMARK   32  A    between atoms: C_59  and  C_60
REMARK   33  A    between atoms: C_59  and  C_64
REMARK   34  A    between atoms: C_60  and  C_61
REMARK   35  A    between atoms: C_61  and  C_62
REMARK   36  A    between atoms: C_62  and  N_63
REMARK   37  A    between atoms: N_66  and  C_67
REMARK   38  A    between atoms: C_67  and  C_68
REMARK   39  A    between atoms: C_67  and  C_79
REMARK   40  A    between atoms: C_68  and  C_69
REMARK   41  A    between atoms: C_72  and  N_73
REMARK   42  A    between atoms: C_82  and  C_83
REMARK   43  A    between atoms: C_82  and  O_84
REMARK                            x       y       z     vdW  Elec       q    Type
REMARK                         _______ _______ _______ _____ _____    ______ ____
ROOT
ATOM      1  C   UNL     1      -4.536   2.091 133.441  0.00  0.00    +0.000 C 
ENDROOT
BRANCH   1   4
ATOM      2  C   UNL     1      -3.367  -0.183 134.152  0.00  0.00    +0.000 C 
ATOM      3  O   UNL     1      -3.504   0.025 135.369  0.00  0.00    +0.000 OA
ATOM      4  N   UNL     1      -3.620   0.871 133.277  0.00  0.00    +0.000 N 
ATOM      5  H   UNL     1      -3.482   0.725 132.284  0.00  0.00    +0.000 HD
BRANCH   2   6
ATOM      6  C   UNL     1      -2.993  -1.717 133.676  0.00  0.00    +0.000 C 
BRANCH   6   9
ATOM      7  C   UNL     1      -3.592  -2.208 131.113  0.00  0.00    +0.000 C 
ATOM      8  O   UNL     1      -3.048  -2.088 130.016  0.00  0.00    +0.000 OA
ATOM      9  N   UNL     1      -2.794  -2.173 132.241  0.00  0.00    +0.000 N 
ATOM     10  H   UNL     1      -1.837  -2.149 131.906  0.00  0.00    +0.000 HD
BRANCH   7  11
ATOM     11  C   UNL     1      -5.087  -2.510 131.261  0.00  0.00    +0.000 C 
BRANCH  11  12
ATOM     12  N   UNL     1      -6.020  -2.311 130.204  0.00  0.00    +0.000 N 
ATOM     13  C   UNL     1      -6.201  -1.018 129.762  0.00  0.00    +0.000 C 
ATOM     14  O   UNL     1      -5.936  -0.007 130.406  0.00  0.00    +0.000 OA
ATOM     15  H   UNL     1      -6.149  -3.084 129.554  0.00  0.00    +0.000 HD
BRANCH  13  16
ATOM     16  C   UNL     1      -6.882  -0.916 128.427  0.00  0.00    +0.000 C 
BRANCH  16  17
ATOM     17  N   UNL     1      -6.518   0.417 127.954  0.00  0.00    +0.000 N 
ATOM     18  C   UNL     1      -7.574   1.159 127.461  0.00  0.00    +0.000 C 
ATOM     19  O   UNL     1      -8.652   0.619 127.237  0.00  0.00    +0.000 OA
ATOM     20  H   UNL     1      -5.803   0.912 128.472  0.00  0.00    +0.000 HD
BRANCH  18  21
ATOM     21  C   UNL     1      -7.295   2.614 127.182  0.00  0.00    +0.000 C 
BRANCH  21  22
ATOM     22  C   UNL     1      -7.124   2.911 125.648  0.00  0.00    +0.000 C 
ATOM     23  C   UNL     1      -6.499   1.643 125.017  0.00  0.00    +0.000 C 
ATOM     24  C   UNL     1      -6.550   1.594 123.494  0.00  0.00    +0.000 C 
ATOM     25  C   UNL     1      -7.924   1.917 122.917  0.00  0.00    +0.000 C 
ATOM     26  C   UNL     1      -8.612   3.121 123.520  0.00  0.00    +0.000 C 
ATOM     27  C   UNL     1      -8.528   3.137 125.023  0.00  0.00    +0.000 C 
BRANCH  22  28
ATOM     28  S   UNL     1      -5.930   4.387 125.533  0.00  0.00    +0.000 S 
BRANCH  28  29
ATOM     29  C   UNL     1      -5.285   4.635 127.213  0.00  0.00    +0.000 C 
BRANCH  29  30
ATOM     30  C   UNL     1      -3.793   4.490 127.396  0.00  0.00    +0.000 C 
BRANCH  30  31
ATOM     31  C   UNL     1      -3.390   3.057 127.750  0.00  0.00    +0.000 C 
ATOM     32  N   UNL     1      -2.222   2.535 127.272  0.00  0.00    +0.000 N 
ATOM     33  O   UNL     1      -4.100   2.348 128.462  0.00  0.00    +0.000 OA
ATOM     34  H   UNL     1      -1.544   3.009 126.692  0.00  0.00    +0.000 HD
ATOM     35  H   UNL     1      -2.004   1.583 127.538  0.00  0.00    +0.000 HD
ENDBRANCH  30  31
ENDBRANCH  29  30
ENDBRANCH  28  29
ENDBRANCH  22  28
ENDBRANCH  21  22
ENDBRANCH  18  21
ENDBRANCH  16  17
BRANCH  16  36
ATOM     36  C   UNL     1      -6.378  -2.035 127.510  0.00  0.00    +0.000 C 
BRANCH  36  37
ATOM     37  C   UNL     1      -7.356  -2.447 126.451  0.00  0.00    +0.000 A 
ATOM     38  C   UNL     1      -8.638  -2.895 126.785  0.00  0.00    +0.000 A 
ATOM     39  C   UNL     1      -9.550  -3.236 125.808  0.00  0.00    +0.000 A 
ATOM     40  C   UNL     1      -9.184  -3.113 124.479  0.00  0.00    +0.000 A 
ATOM     41  C   UNL     1      -7.904  -2.705 124.116  0.00  0.00    +0.000 A 
ATOM     42  C   UNL     1      -6.978  -2.382 125.103  0.00  0.00    +0.000 A 
BRANCH  40  43
ATOM     43  O   UNL     1     -10.085  -3.376 123.494  0.00  0.00    +0.000 OA
ATOM     44  H   UNL     1     -10.413  -4.280 123.632  0.00  0.00    +0.000 HD
ENDBRANCH  40  43
ENDBRANCH  36  37
ENDBRANCH  16  36
ENDBRANCH  13  16
ENDBRANCH  11  12
BRANCH  11  45
ATOM     45  C   UNL     1      -5.310  -3.956 131.611  0.00  0.00    +0.000 C 
ATOM     46  C   UNL     1      -6.000  -4.371 130.351  0.00  0.00    +0.000 C 
BRANCH  45  48
ATOM     47  C   UNL     1      -7.130  -3.671 133.345  0.00  0.00    +0.000 C 
ATOM     48  C   UNL     1      -5.724  -4.185 133.149  0.00  0.00    +0.000 C 
ENDBRANCH  45  48
ENDBRANCH  11  45
ENDBRANCH   7  11
ENDBRANCH   6   9
BRANCH   6  49
ATOM     49  C   UNL     1      -2.014  -2.518 134.541  0.00  0.00    +0.000 C 
ATOM     50  C   UNL     1      -2.250  -4.005 134.481  0.00  0.00    +0.000 C 
BRANCH  49  51
ATOM     51  O   UNL     1      -0.670  -2.300 134.070  0.00  0.00    +0.000 OA
ATOM     52  H   UNL     1      -0.708  -1.926 133.173  0.00  0.00    +0.000 HD
ENDBRANCH  49  51
ENDBRANCH   6  49
ENDBRANCH   2   6
ENDBRANCH   1   4
BRANCH   1  53
ATOM     53  C   UNL     1      -3.647   3.193 134.026  0.00  0.00    +0.000 C 
ATOM     54  O   UNL     1      -3.567   3.349 135.244  0.00  0.00    +0.000 OA
ATOM     55  N   UNL     1      -2.848   3.874 133.135  0.00  0.00    +0.000 N 
ATOM     56  H   UNL     1      -2.932   3.740 132.126  0.00  0.00    +0.000 HD
BRANCH  55  57
ATOM     57  C   UNL     1      -1.961   4.961 133.569  0.00  0.00    +0.000 C 
BRANCH  57  58
ATOM     58  C   UNL     1      -2.826   5.961 134.405  0.00  0.00    +0.000 C 
ATOM     59  O   UNL     1      -3.685   6.666 133.872  0.00  0.00    +0.000 OA
ATOM     60  N   UNL     1      -2.590   6.009 135.761  0.00  0.00    +0.000 N 
ATOM     61  H   UNL     1      -1.929   5.372 136.201  0.00  0.00    +0.000 HD
BRANCH  60  62
ATOM     62  C   UNL     1      -3.364   6.855 136.686  0.00  0.00    +0.000 C 
BRANCH  62  63
ATOM     63  C   UNL     1      -4.742   6.209 136.934  0.00  0.00    +0.000 C 
ATOM     64  O   UNL     1      -5.089   5.935 138.087  0.00  0.00    +0.000 OA
ATOM     65  N   UNL     1      -5.557   5.988 135.839  0.00  0.00    +0.000 N 
ATOM     66  H   UNL     1      -5.175   6.030 134.896  0.00  0.00    +0.000 HD
BRANCH  65  67
ATOM     67  C   UNL     1      -6.998   5.613 135.926  0.00  0.00    +0.000 C 
BRANCH  67  68
ATOM     68  C   UNL     1      -7.489   5.135 134.551  0.00  0.00    +0.000 C 
ATOM     69  O   UNL     1      -8.476   4.407 134.508  0.00  0.00    +0.000 OA
ATOM     70  N   UNL     1      -6.703   5.447 133.450  0.00  0.00    +0.000 N 
ATOM     71  H   UNL     1      -5.759   5.744 133.621  0.00  0.00    +0.000 HD
BRANCH  70  72
ATOM     72  C   UNL     1      -7.089   5.123 132.052  0.00  0.00    +0.000 C 
BRANCH  72  73
ATOM     73  C   UNL     1      -5.983   4.430 131.202  0.00  0.00    +0.000 C 
ATOM     74  N   UNL     1      -6.281   3.270 130.546  0.00  0.00    +0.000 N 
ATOM     75  O   UNL     1      -4.845   4.882 131.096  0.00  0.00    +0.000 OA
ATOM     76  H   UNL     1      -7.167   2.800 130.524  0.00  0.00    +0.000 HD
ATOM     77  H   UNL     1      -5.527   2.850 130.011  0.00  0.00    +0.000 HD
ENDBRANCH  72  73
BRANCH  72  78
ATOM     78  C   UNL     1      -7.526   6.393 131.264  0.00  0.00    +0.000 C 
BRANCH  78  79
ATOM     79  C   UNL     1      -8.822   6.219 130.503  0.00  0.00    +0.000 A 
ATOM     80  C   UNL     1      -8.829   5.797 129.174  0.00  0.00    +0.000 A 
ATOM     81  C   UNL     1     -10.006   5.902 128.420  0.00  0.00    +0.000 A 
ATOM     82  C   UNL     1     -11.214   6.418 128.949  0.00  0.00    +0.000 A 
ATOM     83  C   UNL     1     -11.200   6.799 130.307  0.00  0.00    +0.000 A 
ATOM     84  I   UNL     1     -12.747   7.744 131.393  0.00  0.00    +0.000 I 
ATOM     85  C   UNL     1     -10.019   6.676 131.068  0.00  0.00    +0.000 A 
BRANCH  82  86
ATOM     86  N   UNL     1     -12.240   6.511 127.981  0.00  0.00    +0.000 NA
ATOM     87  N   UNL     1     -11.991   6.952 126.850  0.00  0.00    +0.000 NA
ATOM     88  N   UNL     1     -11.838   7.338 125.787  0.00  0.00    +0.000 NA
ENDBRANCH  82  86
ENDBRANCH  78  79
ENDBRANCH  72  78
ENDBRANCH  70  72
ENDBRANCH  67  68
BRANCH  67  89
ATOM     89  C   UNL     1      -7.904   6.822 136.208  0.00  0.00    +0.000 C 
BRANCH  89  90
ATOM     90  C   UNL     1      -8.391   6.836 137.634  0.00  0.00    +0.000 C 
BRANCH  90  91
ATOM     91  C   UNL     1      -9.207   8.050 137.992  0.00  0.00    +0.000 C 
BRANCH  91  92
ATOM     92  N   UNL     1      -9.779   8.543 136.748  0.00  0.00    +0.000 NA
ATOM     93  H   UNL     1     -10.563   7.956 136.468  0.00  0.00    +0.000 HD
ATOM     94  H   UNL     1      -9.089   8.508 136.004  0.00  0.00    +0.000 HD
ENDBRANCH  91  92
ENDBRANCH  90  91
ENDBRANCH  89  90
ENDBRANCH  67  89
ENDBRANCH  65  67
ENDBRANCH  62  63
ENDBRANCH  60  62
ENDBRANCH  57  58
BRANCH  57  95
ATOM     95  C   UNL     1      -1.273   5.723 132.413  0.00  0.00    +0.000 C 
BRANCH  95  96
ATOM     96  S   UNL     1      -0.357   7.276 132.725  0.00  0.00    +0.000 S 
ATOM     97  H   UNL     1      -1.280   8.128 132.236  0.00  0.00    +0.000 HD
ENDBRANCH  95  96
ENDBRANCH  57  95
ENDBRANCH  55  57
ENDBRANCH   1  53
BRANCH   1  98
ATOM     98  C   UNL     1      -5.887   1.889 134.090  0.00  0.00    +0.000 C 
BRANCH  98  99
ATOM     99  C   UNL     1      -7.003   1.192 133.334  0.00  0.00    +0.000 C 
ATOM    100  N   UNL     1      -6.928  -0.150 133.218  0.00  0.00    +0.000 N 
ATOM    101  O   UNL     1      -7.920   1.773 132.769  0.00  0.00    +0.000 OA
ATOM    102  H   UNL     1      -6.926  -0.519 134.146  0.00  0.00    +0.000 HD
ATOM    103  H   UNL     1      -7.781  -0.494 132.781  0.00  0.00    +0.000 HD
ENDBRANCH  98  99
ENDBRANCH   1  98
TORSDOF 40
ENDMDL
MODEL 7
REMARK VINA RESULT:      -7.6      3.337      8.411
REMARK  Name = CHEMBL2370342
REMARK  43 active torsions:
REMARK  status: ('A' for Active; 'I' for Inactive)
REMARK    1  A    between atoms: C_1  and  C_2
REMARK    2  A    between atoms: C_2  and  C_3
REMARK    3  A    between atoms: C_3  and  C_4
REMARK    4  A    between atoms: C_3  and  C_5
REMARK    5  A    between atoms: C_5  and  N_6
REMARK    6  A    between atoms: C_5  and  C_34
REMARK    7  A    between atoms: C_7  and  C_9
REMARK    8  A    between atoms: C_9  and  C_10
REMARK    9  A    between atoms: C_9  and  N_18
REMARK   10  A    between atoms: C_10  and  C_11
REMARK   11  A    between atoms: C_14  and  O_15
REMARK   12  A    between atoms: C_19  and  C_21
REMARK   13  A    between atoms: C_21  and  C_22
REMARK   14  A    between atoms: C_22  and  S_23
REMARK   15  A    between atoms: S_23  and  C_24
REMARK   16  A    between atoms: C_24  and  C_25
REMARK   17  A    between atoms: C_25  and  C_26
REMARK   18  A    between atoms: N_36  and  C_37
REMARK   19  A    between atoms: C_37  and  C_38
REMARK   20  A    between atoms: C_37  and  C_82
REMARK   21  A    between atoms: N_40  and  C_41
REMARK   22  A    between atoms: C_41  and  C_42
REMARK   23  A    between atoms: C_41  and  C_46
REMARK   24  A    between atoms: C_42  and  C_43
REMARK   25  A    between atoms: N_48  and  C_49
REMARK   26  A    between atoms: C_49  and  C_50
REMARK   27  A    between atoms: C_49  and  C_52
REMARK   28  A    between atoms: C_50  and  S_51
REMARK   29  A    between atoms: N_54  and  C_55
REMARK   30  A    between atoms: C_55  and  C_56
REMARK   31  A    between atoms: N_58  and  C_59
REMARK   32  A    between atoms: C_59  and  C_60
REMARK   33  A    between atoms: C_59  and  C_64
REMARK   34  A    between atoms: C_60  and  C_61
REMARK   35  A    between atoms: C_61  and  C_62
REMARK   36  A    between atoms: C_62  and  N_63
REMARK   37  A    between atoms: N_66  and  C_67
REMARK   38  A    between atoms: C_67  and  C_68
REMARK   39  A    between atoms: C_67  and  C_79
REMARK   40  A    between atoms: C_68  and  C_69
REMARK   41  A    between atoms: C_72  and  N_73
REMARK   42  A    between atoms: C_82  and  C_83
REMARK   43  A    between atoms: C_82  and  O_84
REMARK                            x       y       z     vdW  Elec       q    Type
REMARK                         _______ _______ _______ _____ _____    ______ ____
ROOT
ATOM      1  C   UNL     1      -5.857   3.242 123.518  0.00  0.00    +0.000 C 
ENDROOT
BRANCH   1   4
ATOM      2  C   UNL     1      -7.556   1.235 123.166  0.00  0.00    +0.000 C 
ATOM      3  O   UNL     1      -6.677   0.439 122.799  0.00  0.00    +0.000 OA
ATOM      4  N   UNL     1      -7.219   2.583 123.263  0.00  0.00    +0.000 N 
ATOM      5  H   UNL     1      -7.934   3.247 123.530  0.00  0.00    +0.000 HD
BRANCH   2   6
ATOM      6  C   UNL     1      -9.019   0.610 123.602  0.00  0.00    +0.000 C 
BRANCH   6   9
ATOM      7  C   UNL     1      -8.948  -1.960 124.354  0.00  0.00    +0.000 C 
ATOM      8  O   UNL     1      -9.755  -2.863 124.572  0.00  0.00    +0.000 OA
ATOM      9  N   UNL     1      -9.378  -0.866 123.626  0.00  0.00    +0.000 N 
ATOM     10  H   UNL     1     -10.317  -1.090 123.314  0.00  0.00    +0.000 HD
BRANCH   7  11
ATOM     11  C   UNL     1      -7.472  -2.061 124.754  0.00  0.00    +0.000 C 
BRANCH  11  12
ATOM     12  N   UNL     1      -7.053  -2.286 126.095  0.00  0.00    +0.000 N 
ATOM     13  C   UNL     1      -6.415  -1.247 126.737  0.00  0.00    +0.000 C 
ATOM     14  O   UNL     1      -5.855  -0.309 126.179  0.00  0.00    +0.000 OA
ATOM     15  H   UNL     1      -7.598  -2.951 126.640  0.00  0.00    +0.000 HD
BRANCH  13  16
ATOM     16  C   UNL     1      -6.345  -1.398 128.231  0.00  0.00    +0.000 C 
BRANCH  16  17
ATOM     17  N   UNL     1      -7.475  -0.608 128.711  0.00  0.00    +0.000 N 
ATOM     18  C   UNL     1      -7.125   0.581 129.319  0.00  0.00    +0.000 C 
ATOM     19  O   UNL     1      -5.956   0.797 129.620  0.00  0.00    +0.000 OA
ATOM     20  H   UNL     1      -8.316  -0.614 128.149  0.00  0.00    +0.000 HD
BRANCH  18  21
ATOM     21  C   UNL     1      -8.254   1.535 129.619  0.00  0.00    +0.000 C 
BRANCH  21  22
ATOM     22  C   UNL     1      -8.065   2.280 130.990  0.00  0.00    +0.000 C 
ATOM     23  C   UNL     1      -7.648   1.206 132.025  0.00  0.00    +0.000 C 
ATOM     24  C   UNL     1      -7.100   1.759 133.336  0.00  0.00    +0.000 C 
ATOM     25  C   UNL     1      -6.035   2.835 133.149  0.00  0.00    +0.000 C 
ATOM     26  C   UNL     1      -6.360   3.894 132.119  0.00  0.00    +0.000 C 
ATOM     27  C   UNL     1      -6.908   3.307 130.846  0.00  0.00    +0.000 C 
BRANCH  22  28
ATOM     28  S   UNL     1      -9.764   3.017 131.422  0.00  0.00    +0.000 S 
BRANCH  28  29
ATOM     29  C   UNL     1      -9.910   4.536 130.436  0.00  0.00    +0.000 C 
BRANCH  29  30
ATOM     30  C   UNL     1     -11.280   5.168 130.362  0.00  0.00    +0.000 C 
BRANCH  30  31
ATOM     31  C   UNL     1     -11.584   6.032 131.588  0.00  0.00    +0.000 C 
ATOM     32  N   UNL     1     -10.698   6.085 132.625  0.00  0.00    +0.000 N 
ATOM     33  O   UNL     1     -12.622   6.688 131.670  0.00  0.00    +0.000 OA
ATOM     34  H   UNL     1      -9.808   5.610 132.682  0.00  0.00    +0.000 HD
ATOM     35  H   UNL     1     -10.948   6.674 133.411  0.00  0.00    +0.000 HD
ENDBRANCH  30  31
ENDBRANCH  29  30
ENDBRANCH  28  29
ENDBRANCH  22  28
ENDBRANCH  21  22
ENDBRANCH  18  21
ENDBRANCH  16  17
BRANCH  16  36
ATOM     36  C   UNL     1      -6.452  -2.882 128.598  0.00  0.00    +0.000 C 
BRANCH  36  37
ATOM     37  C   UNL     1      -5.578  -3.294 129.745  0.00  0.00    +0.000 A 
ATOM     38  C   UNL     1      -4.432  -2.565 130.080  0.00  0.00    +0.000 A 
ATOM     39  C   UNL     1      -3.652  -2.921 131.160  0.00  0.00    +0.000 A 
ATOM     40  C   UNL     1      -4.028  -4.010 131.926  0.00  0.00    +0.000 A 
ATOM     41  C   UNL     1      -5.142  -4.776 131.597  0.00  0.00    +0.000 A 
ATOM     42  C   UNL     1      -5.917  -4.428 130.494  0.00  0.00    +0.000 A 
BRANCH  40  43
ATOM     43  O   UNL     1      -3.316  -4.343 133.037  0.00  0.00    +0.000 OA
ATOM     44  H   UNL     1      -3.952  -4.524 133.748  0.00  0.00    +0.000 HD
ENDBRANCH  40  43
ENDBRANCH  36  37
ENDBRANCH  16  36
ENDBRANCH  13  16
ENDBRANCH  11  12
BRANCH  11  45
ATOM     45  C   UNL     1      -6.793  -3.183 124.017  0.00  0.00    +0.000 C 
ATOM     46  C   UNL     1      -7.353  -4.321 124.809  0.00  0.00    +0.000 C 
BRANCH  45  48
ATOM     47  C   UNL     1      -4.481  -4.135 123.628  0.00  0.00    +0.000 C 
ATOM     48  C   UNL     1      -5.273  -2.850 123.605  0.00  0.00    +0.000 C 
ENDBRANCH  45  48
ENDBRANCH  11  45
ENDBRANCH   7  11
ENDBRANCH   6   9
BRANCH   6  49
ATOM     49  C   UNL     1      -9.765   1.271 124.765  0.00  0.00    +0.000 C 
ATOM     50  C   UNL     1      -9.179   0.935 126.113  0.00  0.00    +0.000 C 
BRANCH  49  51
ATOM     51  O   UNL     1      -9.685   2.703 124.633  0.00  0.00    +0.000 OA
ATOM     52  H   UNL     1     -10.539   3.036 124.305  0.00  0.00    +0.000 HD
ENDBRANCH  49  51
ENDBRANCH   6  49
ENDBRANCH   2   6
ENDBRANCH   1   4
BRANCH   1  53
ATOM     53  C   UNL     1      -5.812   3.518 125.024  0.00  0.00    +0.000 C 
ATOM     54  O   UNL     1      -6.852   3.579 125.678  0.00  0.00    +0.000 OA
ATOM     55  N   UNL     1      -4.565   3.535 125.607  0.00  0.00    +0.000 N 
ATOM     56  H   UNL     1      -3.710   3.492 125.050  0.00  0.00    +0.000 HD
BRANCH  55  57
ATOM     57  C   UNL     1      -4.386   3.801 127.040  0.00  0.00    +0.000 C 
BRANCH  57  58
ATOM     58  C   UNL     1      -4.154   5.340 127.202  0.00  0.00    +0.000 C 
ATOM     59  O   UNL     1      -4.921   6.160 126.692  0.00  0.00    +0.000 OA
ATOM     60  N   UNL     1      -3.062   5.732 127.943  0.00  0.00    +0.000 N 
ATOM     61  H   UNL     1      -2.476   5.049 128.417  0.00  0.00    +0.000 HD
BRANCH  60  62
ATOM     62  C   UNL     1      -2.748   7.143 128.233  0.00  0.00    +0.000 C 
BRANCH  62  63
ATOM     63  C   UNL     1      -3.472   7.570 129.525  0.00  0.00    +0.000 C 
ATOM     64  O   UNL     1      -4.601   8.064 129.457  0.00  0.00    +0.000 OA
ATOM     65  N   UNL     1      -2.827   7.352 130.729  0.00  0.00    +0.000 N 
ATOM     66  H   UNL     1      -1.831   7.138 130.748  0.00  0.00    +0.000 HD
BRANCH  65  67
ATOM     67  C   UNL     1      -3.479   7.471 132.065  0.00  0.00    +0.000 C 
BRANCH  67  68
ATOM     68  C   UNL     1      -2.684   8.453 132.939  0.00  0.00    +0.000 C 
ATOM     69  O   UNL     1      -2.332   9.518 132.440  0.00  0.00    +0.000 OA
ATOM     70  N   UNL     1      -2.296   8.017 134.198  0.00  0.00    +0.000 N 
ATOM     71  H   UNL     1      -2.334   7.029 134.380  0.00  0.00    +0.000 HD
BRANCH  70  72
ATOM     72  C   UNL     1      -1.594   8.880 135.183  0.00  0.00    +0.000 C 
BRANCH  72  73
ATOM     73  C   UNL     1      -0.044   8.733 135.209  0.00  0.00    +0.000 C 
ATOM     74  N   UNL     1       0.721   9.831 135.480  0.00  0.00    +0.000 N 
ATOM     75  O   UNL     1       0.526   7.666 134.992  0.00  0.00    +0.000 OA
ATOM     76  H   UNL     1       0.396  10.755 135.695  0.00  0.00    +0.000 HD
ATOM     77  H   UNL     1       1.727   9.689 135.478  0.00  0.00    +0.000 HD
ENDBRANCH  72  73
BRANCH  72  78
ATOM     78  C   UNL     1      -2.091   8.621 136.636  0.00  0.00    +0.000 C 
BRANCH  78  79
ATOM     79  C   UNL     1      -3.582   8.808 136.810  0.00  0.00    +0.000 A 
ATOM     80  C   UNL     1      -4.104   9.968 137.380  0.00  0.00    +0.000 A 
ATOM     81  C   UNL     1      -5.448  10.004 137.772  0.00  0.00    +0.000 A 
ATOM     82  C   UNL     1      -6.325   8.904 137.612  0.00  0.00    +0.000 A 
ATOM     83  C   UNL     1      -5.792   7.753 136.993  0.00  0.00    +0.000 A 
ATOM     84  I   UNL     1      -6.738   5.883 136.725  0.00  0.00    +0.000 I 
ATOM     85  C   UNL     1      -4.443   7.726 136.583  0.00  0.00    +0.000 A 
BRANCH  82  86
ATOM     86  N   UNL     1      -7.607   9.139 138.160  0.00  0.00    +0.000 NA
ATOM     87  N   UNL     1      -8.613   9.074 137.438  0.00  0.00    +0.000 NA
ATOM     88  N   UNL     1      -9.584   9.025 136.842  0.00  0.00    +0.000 NA
ENDBRANCH  82  86
ENDBRANCH  78  79
ENDBRANCH  72  78
ENDBRANCH  70  72
ENDBRANCH  67  68
BRANCH  67  89
ATOM     89  C   UNL     1      -3.405   6.165 132.872  0.00  0.00    +0.000 C 
BRANCH  89  90
ATOM     90  C   UNL     1      -2.820   5.037 132.061  0.00  0.00    +0.000 C 
BRANCH  90  91
ATOM     91  C   UNL     1      -1.501   4.528 132.580  0.00  0.00    +0.000 C 
BRANCH  91  92
ATOM     92  N   UNL     1      -1.158   5.362 133.722  0.00  0.00    +0.000 NA
ATOM     93  H   UNL     1      -1.982   5.513 134.303  0.00  0.00    +0.000 HD
ATOM     94  H   UNL     1      -0.833   6.272 133.410  0.00  0.00    +0.000 HD
ENDBRANCH  91  92
ENDBRANCH  90  91
ENDBRANCH  89  90
ENDBRANCH  67  89
ENDBRANCH  65  67
ENDBRANCH  62  63
ENDBRANCH  60  62
ENDBRANCH  57  58
BRANCH  57  95
ATOM     95  C   UNL     1      -3.212   3.035 127.690  0.00  0.00    +0.000 C 
BRANCH  95  96
ATOM     96  S   UNL     1      -1.611   2.852 126.821  0.00  0.00    +0.000 S 
ATOM     97  H   UNL     1      -1.048   4.001 127.243  0.00  0.00    +0.000 HD
ENDBRANCH  95  96
ENDBRANCH  57  95
ENDBRANCH  55  57
ENDBRANCH   1  53
BRANCH   1  98
ATOM     98  C   UNL     1      -5.426   4.369 122.606  0.00  0.00    +0.000 C 
BRANCH  98  99
ATOM     99  C   UNL     1      -5.439   4.183 121.100  0.00  0.00    +0.000 C 
ATOM    100  N   UNL     1      -5.167   5.263 120.340  0.00  0.00    +0.000 N 
ATOM    101  O   UNL     1      -5.748   3.141 120.537  0.00  0.00    +0.000 OA
ATOM    102  H   UNL     1      -4.249   5.566 120.591  0.00  0.00    +0.000 HD
ATOM    103  H   UNL     1      -5.111   4.978 119.364  0.00  0.00    +0.000 HD
ENDBRANCH  98  99
ENDBRANCH   1  98
TORSDOF 40
ENDMDL
MODEL 8
REMARK VINA RESULT:      -7.5      3.102      7.766
REMARK  Name = CHEMBL2370342
REMARK  43 active torsions:
REMARK  status: ('A' for Active; 'I' for Inactive)
REMARK    1  A    between atoms: C_1  and  C_2
REMARK    2  A    between atoms: C_2  and  C_3
REMARK    3  A    between atoms: C_3  and  C_4
REMARK    4  A    between atoms: C_3  and  C_5
REMARK    5  A    between atoms: C_5  and  N_6
REMARK    6  A    between atoms: C_5  and  C_34
REMARK    7  A    between atoms: C_7  and  C_9
REMARK    8  A    between atoms: C_9  and  C_10
REMARK    9  A    between atoms: C_9  and  N_18
REMARK   10  A    between atoms: C_10  and  C_11
REMARK   11  A    between atoms: C_14  and  O_15
REMARK   12  A    between atoms: C_19  and  C_21
REMARK   13  A    between atoms: C_21  and  C_22
REMARK   14  A    between atoms: C_22  and  S_23
REMARK   15  A    between atoms: S_23  and  C_24
REMARK   16  A    between atoms: C_24  and  C_25
REMARK   17  A    between atoms: C_25  and  C_26
REMARK   18  A    between atoms: N_36  and  C_37
REMARK   19  A    between atoms: C_37  and  C_38
REMARK   20  A    between atoms: C_37  and  C_82
REMARK   21  A    between atoms: N_40  and  C_41
REMARK   22  A    between atoms: C_41  and  C_42
REMARK   23  A    between atoms: C_41  and  C_46
REMARK   24  A    between atoms: C_42  and  C_43
REMARK   25  A    between atoms: N_48  and  C_49
REMARK   26  A    between atoms: C_49  and  C_50
REMARK   27  A    between atoms: C_49  and  C_52
REMARK   28  A    between atoms: C_50  and  S_51
REMARK   29  A    between atoms: N_54  and  C_55
REMARK   30  A    between atoms: C_55  and  C_56
REMARK   31  A    between atoms: N_58  and  C_59
REMARK   32  A    between atoms: C_59  and  C_60
REMARK   33  A    between atoms: C_59  and  C_64
REMARK   34  A    between atoms: C_60  and  C_61
REMARK   35  A    between atoms: C_61  and  C_62
REMARK   36  A    between atoms: C_62  and  N_63
REMARK   37  A    between atoms: N_66  and  C_67
REMARK   38  A    between atoms: C_67  and  C_68
REMARK   39  A    between atoms: C_67  and  C_79
REMARK   40  A    between atoms: C_68  and  C_69
REMARK   41  A    between atoms: C_72  and  N_73
REMARK   42  A    between atoms: C_82  and  C_83
REMARK   43  A    between atoms: C_82  and  O_84
REMARK                            x       y       z     vdW  Elec       q    Type
REMARK                         _______ _______ _______ _____ _____    ______ ____
ROOT
ATOM      1  C   UNL     1      -5.890   3.199 123.627  0.00  0.00    +0.000 C 
ENDROOT
BRANCH   1   4
ATOM      2  C   UNL     1      -7.577   1.181 123.279  0.00  0.00    +0.000 C 
ATOM      3  O   UNL     1      -6.695   0.394 122.899  0.00  0.00    +0.000 OA
ATOM      4  N   UNL     1      -7.249   2.531 123.380  0.00  0.00    +0.000 N 
ATOM      5  H   UNL     1      -7.967   3.189 123.658  0.00  0.00    +0.000 HD
BRANCH   2   6
ATOM      6  C   UNL     1      -9.032   0.543 123.723  0.00  0.00    +0.000 C 
BRANCH   6   9
ATOM      7  C   UNL     1      -8.951  -2.058 124.357  0.00  0.00    +0.000 C 
ATOM      8  O   UNL     1      -9.756  -2.967 124.557  0.00  0.00    +0.000 OA
ATOM      9  N   UNL     1      -9.397  -0.931 123.691  0.00  0.00    +0.000 N 
ATOM     10  H   UNL     1     -10.346  -1.138 123.397  0.00  0.00    +0.000 HD
BRANCH   7  11
ATOM     11  C   UNL     1      -7.465  -2.182 124.710  0.00  0.00    +0.000 C 
BRANCH  11  12
ATOM     12  N   UNL     1      -7.009  -2.452 126.031  0.00  0.00    +0.000 N 
ATOM     13  C   UNL     1      -6.197  -1.508 126.620  0.00  0.00    +0.000 C 
ATOM     14  O   UNL     1      -5.541  -0.663 126.017  0.00  0.00    +0.000 OA
ATOM     15  H   UNL     1      -7.612  -3.028 126.616  0.00  0.00    +0.000 HD
BRANCH  13  16
ATOM     16  C   UNL     1      -6.067  -1.653 128.110  0.00  0.00    +0.000 C 
BRANCH  16  17
ATOM     17  N   UNL     1      -6.661  -0.425 128.631  0.00  0.00    +0.000 N 
ATOM     18  C   UNL     1      -5.795   0.368 129.357  0.00  0.00    +0.000 C 
ATOM     19  O   UNL     1      -4.707  -0.074 129.710  0.00  0.00    +0.000 OA
ATOM     20  H   UNL     1      -7.342   0.043 128.046  0.00  0.00    +0.000 HD
BRANCH  18  21
ATOM     21  C   UNL     1      -6.291   1.747 129.713  0.00  0.00    +0.000 C 
BRANCH  21  22
ATOM     22  C   UNL     1      -7.200   1.748 130.995  0.00  0.00    +0.000 C 
ATOM     23  C   UNL     1      -8.082   3.017 130.914  0.00  0.00    +0.000 C 
ATOM     24  C   UNL     1      -9.258   3.043 131.885  0.00  0.00    +0.000 C 
ATOM     25  C   UNL     1     -10.080   1.759 131.884  0.00  0.00    +0.000 C 
ATOM     26  C   UNL     1      -9.278   0.478 131.919  0.00  0.00    +0.000 C 
ATOM     27  C   UNL     1      -8.122   0.498 130.955  0.00  0.00    +0.000 C 
BRANCH  22  28
ATOM     28  S   UNL     1      -6.010   1.840 132.476  0.00  0.00    +0.000 S 
BRANCH  28  29
ATOM     29  C   UNL     1      -5.808   0.130 133.056  0.00  0.00    +0.000 C 
BRANCH  29  30
ATOM     30  C   UNL     1      -4.579  -0.166 133.882  0.00  0.00    +0.000 C 
BRANCH  30  31
ATOM     31  C   UNL     1      -3.828  -1.401 133.380  0.00  0.00    +0.000 C 
ATOM     32  N   UNL     1      -3.429  -1.476 132.076  0.00  0.00    +0.000 N 
ATOM     33  O   UNL     1      -3.571  -2.345 134.126  0.00  0.00    +0.000 OA
ATOM     34  H   UNL     1      -3.562  -0.772 131.364  0.00  0.00    +0.000 HD
ATOM     35  H   UNL     1      -2.935  -2.315 131.796  0.00  0.00    +0.000 HD
ENDBRANCH  30  31
ENDBRANCH  29  30
ENDBRANCH  28  29
ENDBRANCH  22  28
ENDBRANCH  21  22
ENDBRANCH  18  21
ENDBRANCH  16  17
BRANCH  16  36
ATOM     36  C   UNL     1      -6.806  -2.916 128.565  0.00  0.00    +0.000 C 
BRANCH  36  37
ATOM     37  C   UNL     1      -6.483  -3.343 129.965  0.00  0.00    +0.000 A 
ATOM     38  C   UNL     1      -7.259  -2.918 131.049  0.00  0.00    +0.000 A 
ATOM     39  C   UNL     1      -6.985  -3.344 132.332  0.00  0.00    +0.000 A 
ATOM     40  C   UNL     1      -5.932  -4.219 132.535  0.00  0.00    +0.000 A 
ATOM     41  C   UNL     1      -5.121  -4.632 131.483  0.00  0.00    +0.000 A 
ATOM     42  C   UNL     1      -5.385  -4.184 130.192  0.00  0.00    +0.000 A 
BRANCH  40  43
ATOM     43  O   UNL     1      -5.681  -4.710 133.779  0.00  0.00    +0.000 OA
ATOM     44  H   UNL     1      -5.911  -5.654 133.773  0.00  0.00    +0.000 HD
ENDBRANCH  40  43
ENDBRANCH  36  37
ENDBRANCH  16  36
ENDBRANCH  13  16
ENDBRANCH  11  12
BRANCH  11  45
ATOM     45  C   UNL     1      -6.817  -3.285 123.919  0.00  0.00    +0.000 C 
ATOM     46  C   UNL     1      -7.250  -4.434 124.773  0.00  0.00    +0.000 C 
BRANCH  45  48
ATOM     47  C   UNL     1      -4.422  -4.049 123.629  0.00  0.00    +0.000 C 
ATOM     48  C   UNL     1      -5.361  -2.898 123.356  0.00  0.00    +0.000 C 
ENDBRANCH  45  48
ENDBRANCH  11  45
ENDBRANCH   7  11
ENDBRANCH   6   9
BRANCH   6  49
ATOM     49  C   UNL     1      -9.745   1.155 124.933  0.00  0.00    +0.000 C 
ATOM     50  C   UNL     1      -9.104   0.787 126.247  0.00  0.00    +0.000 C 
BRANCH  49  51
ATOM     51  O   UNL     1      -9.693   2.592 124.844  0.00  0.00    +0.000 OA
ATOM     52  H   UNL     1      -8.810   2.855 124.530  0.00  0.00    +0.000 HD
ENDBRANCH  49  51
ENDBRANCH   6  49
ENDBRANCH   2   6
ENDBRANCH   1   4
BRANCH   1  53
ATOM     53  C   UNL     1      -5.800   3.396 125.143  0.00  0.00    +0.000 C 
ATOM     54  O   UNL     1      -6.809   3.318 125.843  0.00  0.00    +0.000 OA
ATOM     55  N   UNL     1      -4.535   3.507 125.674  0.00  0.00    +0.000 N 
ATOM     56  H   UNL     1      -3.707   3.579 125.080  0.00  0.00    +0.000 HD
BRANCH  55  57
ATOM     57  C   UNL     1      -4.316   3.711 127.111  0.00  0.00    +0.000 C 
BRANCH  57  58
ATOM     58  C   UNL     1      -4.139   5.249 127.340  0.00  0.00    +0.000 C 
ATOM     59  O   UNL     1      -4.874   6.068 126.785  0.00  0.00    +0.000 OA
ATOM     60  N   UNL     1      -3.133   5.642 128.194  0.00  0.00    +0.000 N 
ATOM     61  H   UNL     1      -2.577   4.957 128.701  0.00  0.00    +0.000 HD
BRANCH  60  62
ATOM     62  C   UNL     1      -2.883   7.049 128.554  0.00  0.00    +0.000 C 
BRANCH  62  63
ATOM     63  C   UNL     1      -3.748   7.423 129.774  0.00  0.00    +0.000 C 
ATOM     64  O   UNL     1      -4.531   8.374 129.698  0.00  0.00    +0.000 OA
ATOM     65  N   UNL     1      -3.629   6.646 130.912  0.00  0.00    +0.000 N 
ATOM     66  H   UNL     1      -2.843   6.008 131.020  0.00  0.00    +0.000 HD
BRANCH  65  67
ATOM     67  C   UNL     1      -4.560   6.712 132.075  0.00  0.00    +0.000 C 
BRANCH  67  68
ATOM     68  C   UNL     1      -3.779   6.461 133.374  0.00  0.00    +0.000 C 
ATOM     69  O   UNL     1      -3.262   5.359 133.535  0.00  0.00    +0.000 OA
ATOM     70  N   UNL     1      -3.821   7.452 134.345  0.00  0.00    +0.000 N 
ATOM     71  H   UNL     1      -4.535   8.154 134.263  0.00  0.00    +0.000 HD
BRANCH  70  72
ATOM     72  C   UNL     1      -3.052   7.385 135.615  0.00  0.00    +0.000 C 
BRANCH  72  73
ATOM     73  C   UNL     1      -3.834   7.824 136.888  0.00  0.00    +0.000 C 
ATOM     74  N   UNL     1      -5.179   7.598 136.951  0.00  0.00    +0.000 N 
ATOM     75  O   UNL     1      -3.291   8.371 137.846  0.00  0.00    +0.000 OA
ATOM     76  H   UNL     1      -5.747   7.147 136.259  0.00  0.00    +0.000 HD
ATOM     77  H   UNL     1      -5.648   7.908 137.797  0.00  0.00    +0.000 HD
ENDBRANCH  72  73
BRANCH  72  78
ATOM     78  C   UNL     1      -1.766   8.260 135.558  0.00  0.00    +0.000 C 
BRANCH  78  79
ATOM     79  C   UNL     1      -1.931   9.531 134.755  0.00  0.00    +0.000 A 
ATOM     80  C   UNL     1      -1.880   9.518 133.362  0.00  0.00    +0.000 A 
ATOM     81  C   UNL     1      -1.767  10.726 132.661  0.00  0.00    +0.000 A 
ATOM     82  C   UNL     1      -1.705  11.985 133.305  0.00  0.00    +0.000 A 
ATOM     83  C   UNL     1      -1.802  11.983 134.712  0.00  0.00    +0.000 A 
ATOM     84  I   UNL     1      -1.596  13.632 136.018  0.00  0.00    +0.000 I 
ATOM     85  C   UNL     1      -1.933  10.767 135.414  0.00  0.00    +0.000 A 
BRANCH  82  86
ATOM     86  N   UNL     1      -1.502  13.054 132.402  0.00  0.00    +0.000 NA
ATOM     87  N   UNL     1      -0.554  13.023 131.604  0.00  0.00    +0.000 NA
ATOM     88  N   UNL     1       0.290  13.062 130.836  0.00  0.00    +0.000 NA
ENDBRANCH  82  86
ENDBRANCH  78  79
ENDBRANCH  72  78
ENDBRANCH  70  72
ENDBRANCH  67  68
BRANCH  67  89
ATOM     89  C   UNL     1      -5.587   5.568 132.072  0.00  0.00    +0.000 C 
BRANCH  89  90
ATOM     90  C   UNL     1      -6.975   6.061 132.391  0.00  0.00    +0.000 C 
BRANCH  90  91
ATOM     91  C   UNL     1      -7.460   5.683 133.766  0.00  0.00    +0.000 C 
BRANCH  91  92
ATOM     92  N   UNL     1      -8.856   6.084 133.835  0.00  0.00    +0.000 NA
ATOM     93  H   UNL     1      -9.054   6.507 134.741  0.00  0.00    +0.000 HD
ATOM     94  H   UNL     1      -9.461   5.274 133.737  0.00  0.00    +0.000 HD
ENDBRANCH  91  92
ENDBRANCH  90  91
ENDBRANCH  89  90
ENDBRANCH  67  89
ENDBRANCH  65  67
ENDBRANCH  62  63
ENDBRANCH  60  62
ENDBRANCH  57  58
BRANCH  57  95
ATOM     95  C   UNL     1      -3.089   2.965 127.683  0.00  0.00    +0.000 C 
BRANCH  95  96
ATOM     96  S   UNL     1      -1.533   2.840 126.726  0.00  0.00    +0.000 S 
ATOM     97  H   UNL     1      -0.998   1.798 127.393  0.00  0.00    +0.000 HD
ENDBRANCH  95  96
ENDBRANCH  57  95
ENDBRANCH  55  57
ENDBRANCH   1  53
BRANCH   1  98
ATOM     98  C   UNL     1      -5.505   4.379 122.763  0.00  0.00    +0.000 C 
BRANCH  98  99
ATOM     99  C   UNL     1      -5.358   4.213 121.261  0.00  0.00    +0.000 C 
ATOM    100  N   UNL     1      -4.912   5.276 120.562  0.00  0.00    +0.000 N 
ATOM    101  O   UNL     1      -5.685   3.208 120.644  0.00  0.00    +0.000 OA
ATOM    102  H   UNL     1      -4.007   5.497 120.923  0.00  0.00    +0.000 HD
ATOM    103  H   UNL     1      -4.767   4.999 119.593  0.00  0.00    +0.000 HD
ENDBRANCH  98  99
ENDBRANCH   1  98
TORSDOF 40
ENDMDL
MODEL 9
REMARK VINA RESULT:      -7.5      1.715      2.174
REMARK  Name = CHEMBL2370342
REMARK  43 active torsions:
REMARK  status: ('A' for Active; 'I' for Inactive)
REMARK    1  A    between atoms: C_1  and  C_2
REMARK    2  A    between atoms: C_2  and  C_3
REMARK    3  A    between atoms: C_3  and  C_4
REMARK    4  A    between atoms: C_3  and  C_5
REMARK    5  A    between atoms: C_5  and  N_6
REMARK    6  A    between atoms: C_5  and  C_34
REMARK    7  A    between atoms: C_7  and  C_9
REMARK    8  A    between atoms: C_9  and  C_10
REMARK    9  A    between atoms: C_9  and  N_18
REMARK   10  A    between atoms: C_10  and  C_11
REMARK   11  A    between atoms: C_14  and  O_15
REMARK   12  A    between atoms: C_19  and  C_21
REMARK   13  A    between atoms: C_21  and  C_22
REMARK   14  A    between atoms: C_22  and  S_23
REMARK   15  A    between atoms: S_23  and  C_24
REMARK   16  A    between atoms: C_24  and  C_25
REMARK   17  A    between atoms: C_25  and  C_26
REMARK   18  A    between atoms: N_36  and  C_37
REMARK   19  A    between atoms: C_37  and  C_38
REMARK   20  A    between atoms: C_37  and  C_82
REMARK   21  A    between atoms: N_40  and  C_41
REMARK   22  A    between atoms: C_41  and  C_42
REMARK   23  A    between atoms: C_41  and  C_46
REMARK   24  A    between atoms: C_42  and  C_43
REMARK   25  A    between atoms: N_48  and  C_49
REMARK   26  A    between atoms: C_49  and  C_50
REMARK   27  A    between atoms: C_49  and  C_52
REMARK   28  A    between atoms: C_50  and  S_51
REMARK   29  A    between atoms: N_54  and  C_55
REMARK   30  A    between atoms: C_55  and  C_56
REMARK   31  A    between atoms: N_58  and  C_59
REMARK   32  A    between atoms: C_59  and  C_60
REMARK   33  A    between atoms: C_59  and  C_64
REMARK   34  A    between atoms: C_60  and  C_61
REMARK   35  A    between atoms: C_61  and  C_62
REMARK   36  A    between atoms: C_62  and  N_63
REMARK   37  A    between atoms: N_66  and  C_67
REMARK   38  A    between atoms: C_67  and  C_68
REMARK   39  A    between atoms: C_67  and  C_79
REMARK   40  A    between atoms: C_68  and  C_69
REMARK   41  A    between atoms: C_72  and  N_73
REMARK   42  A    between atoms: C_82  and  C_83
REMARK   43  A    between atoms: C_82  and  O_84
REMARK                            x       y       z     vdW  Elec       q    Type
REMARK                         _______ _______ _______ _____ _____    ______ ____
ROOT
ATOM      1  C   UNL     1      -3.202   2.625 133.460  0.00  0.00    +0.000 C 
ENDROOT
BRANCH   1   4
ATOM      2  C   UNL     1      -3.632   0.032 133.821  0.00  0.00    +0.000 C 
ATOM      3  O   UNL     1      -4.868   0.148 133.831  0.00  0.00    +0.000 OA
ATOM      4  N   UNL     1      -2.866   1.193 133.894  0.00  0.00    +0.000 N 
ATOM      5  H   UNL     1      -1.857   1.111 133.920  0.00  0.00    +0.000 HD
BRANCH   2   6
ATOM      6  C   UNL     1      -3.008  -1.482 133.623  0.00  0.00    +0.000 C 
BRANCH   6   9
ATOM      7  C   UNL     1      -3.517  -2.515 131.205  0.00  0.00    +0.000 C 
ATOM      8  O   UNL     1      -2.991  -2.520 130.093  0.00  0.00    +0.000 OA
ATOM      9  N   UNL     1      -2.739  -2.160 132.291  0.00  0.00    +0.000 N 
ATOM     10  H   UNL     1      -1.794  -2.059 131.935  0.00  0.00    +0.000 HD
BRANCH   7  11
ATOM     11  C   UNL     1      -4.953  -2.998 131.438  0.00  0.00    +0.000 C 
BRANCH  11  12
ATOM     12  N   UNL     1      -5.948  -2.970 130.419  0.00  0.00    +0.000 N 
ATOM     13  C   UNL     1      -6.779  -1.872 130.383  0.00  0.00    +0.000 C 
ATOM     14  O   UNL     1      -6.994  -1.116 131.327  0.00  0.00    +0.000 OA
ATOM     15  H   UNL     1      -5.733  -3.463 129.555  0.00  0.00    +0.000 HD
BRANCH  13  16
ATOM     16  C   UNL     1      -7.532  -1.714 129.093  0.00  0.00    +0.000 C 
BRANCH  16  17
ATOM     17  N   UNL     1      -7.592  -0.267 128.902  0.00  0.00    +0.000 N 
ATOM     18  C   UNL     1      -6.477   0.277 128.295  0.00  0.00    +0.000 C 
ATOM     19  O   UNL     1      -5.458  -0.393 128.166  0.00  0.00    +0.000 OA
ATOM     20  H   UNL     1      -8.492   0.131 128.667  0.00  0.00    +0.000 HD
BRANCH  18  21
ATOM     21  C   UNL     1      -6.588   1.719 127.866  0.00  0.00    +0.000 C 
BRANCH  21  22
ATOM     22  C   UNL     1      -7.202   1.873 126.427  0.00  0.00    +0.000 C 
ATOM     23  C   UNL     1      -6.452   0.872 125.515  0.00  0.00    +0.000 C 
ATOM     24  C   UNL     1      -7.107   0.626 124.160  0.00  0.00    +0.000 C 
ATOM     25  C   UNL     1      -8.601   0.331 124.247  0.00  0.00    +0.000 C 
ATOM     26  C   UNL     1      -9.389   1.246 125.157  0.00  0.00    +0.000 C 
ATOM     27  C   UNL     1      -8.702   1.471 126.478  0.00  0.00    +0.000 C 
BRANCH  22  28
ATOM     28  S   UNL     1      -6.853   3.667 125.901  0.00  0.00    +0.000 S 
BRANCH  28  29
ATOM     29  C   UNL     1      -5.291   4.125 126.709  0.00  0.00    +0.000 C 
BRANCH  29  30
ATOM     30  C   UNL     1      -4.018   3.724 126.002  0.00  0.00    +0.000 C 
BRANCH  30  31
ATOM     31  C   UNL     1      -2.987   3.129 126.963  0.00  0.00    +0.000 C 
ATOM     32  N   UNL     1      -3.341   2.114 127.806  0.00  0.00    +0.000 N 
ATOM     33  O   UNL     1      -1.830   3.547 127.004  0.00  0.00    +0.000 OA
ATOM     34  H   UNL     1      -4.247   1.671 127.867  0.00  0.00    +0.000 HD
ATOM     35  H   UNL     1      -2.619   1.757 128.420  0.00  0.00    +0.000 HD
ENDBRANCH  30  31
ENDBRANCH  29  30
ENDBRANCH  28  29
ENDBRANCH  22  28
ENDBRANCH  21  22
ENDBRANCH  18  21
ENDBRANCH  16  17
BRANCH  16  36
ATOM     36  C   UNL     1      -6.777  -2.435 127.971  0.00  0.00    +0.000 C 
BRANCH  36  37
ATOM     37  C   UNL     1      -7.619  -2.754 126.772  0.00  0.00    +0.000 A 
ATOM     38  C   UNL     1      -9.004  -2.919 126.883  0.00  0.00    +0.000 A 
ATOM     39  C   UNL     1      -9.782  -3.172 125.773  0.00  0.00    +0.000 A 
ATOM     40  C   UNL     1      -9.173  -3.247 124.533  0.00  0.00    +0.000 A 
ATOM     41  C   UNL     1      -7.794  -3.123 124.395  0.00  0.00    +0.000 A 
ATOM     42  C   UNL     1      -7.007  -2.889 125.519  0.00  0.00    +0.000 A 
BRANCH  40  43
ATOM     43  O   UNL     1      -9.924  -3.427 123.412  0.00  0.00    +0.000 OA
ATOM     44  H   UNL     1     -10.331  -4.307 123.472  0.00  0.00    +0.000 HD
ENDBRANCH  40  43
ENDBRANCH  36  37
ENDBRANCH  16  36
ENDBRANCH  13  16
ENDBRANCH  11  12
BRANCH  11  45
ATOM     45  C   UNL     1      -4.971  -4.441 131.860  0.00  0.00    +0.000 C 
ATOM     46  C   UNL     1      -5.616  -5.007 130.635  0.00  0.00    +0.000 C 
BRANCH  45  48
ATOM     47  C   UNL     1      -6.172  -3.482 133.870  0.00  0.00    +0.000 C 
ATOM     48  C   UNL     1      -5.328  -4.648 133.415  0.00  0.00    +0.000 C 
ENDBRANCH  45  48
ENDBRANCH  11  45
ENDBRANCH   7  11
ENDBRANCH   6   9
BRANCH   6  49
ATOM     49  C   UNL     1      -1.910  -1.938 134.588  0.00  0.00    +0.000 C 
ATOM     50  C   UNL     1      -1.579  -3.403 134.461  0.00  0.00    +0.000 C 
BRANCH  49  51
ATOM     51  O   UNL     1      -0.693  -1.221 134.303  0.00  0.00    +0.000 OA
ATOM     52  H   UNL     1      -0.680  -0.403 134.831  0.00  0.00    +0.000 HD
ENDBRANCH  49  51
ENDBRANCH   6  49
ENDBRANCH   2   6
ENDBRANCH   1   4
BRANCH   1  53
ATOM     53  C   UNL     1      -4.137   3.172 134.544  0.00  0.00    +0.000 C 
ATOM     54  O   UNL     1      -5.337   2.901 134.528  0.00  0.00    +0.000 OA
ATOM     55  N   UNL     1      -3.539   3.836 135.591  0.00  0.00    +0.000 N 
ATOM     56  H   UNL     1      -2.543   4.061 135.587  0.00  0.00    +0.000 HD
BRANCH  55  57
ATOM     57  C   UNL     1      -4.325   4.418 136.686  0.00  0.00    +0.000 C 
BRANCH  57  58
ATOM     58  C   UNL     1      -5.363   5.396 136.044  0.00  0.00    +0.000 C 
ATOM     59  O   UNL     1      -5.018   6.494 135.602  0.00  0.00    +0.000 OA
ATOM     60  N   UNL     1      -6.671   4.972 135.989  0.00  0.00    +0.000 N 
ATOM     61  H   UNL     1      -6.933   4.037 136.293  0.00  0.00    +0.000 HD
BRANCH  60  62
ATOM     62  C   UNL     1      -7.749   5.756 135.361  0.00  0.00    +0.000 C 
BRANCH  62  63
ATOM     63  C   UNL     1      -7.833   5.397 133.864  0.00  0.00    +0.000 C 
ATOM     64  O   UNL     1      -8.661   4.564 133.482  0.00  0.00    +0.000 OA
ATOM     65  N   UNL     1      -6.984   6.055 132.993  0.00  0.00    +0.000 N 
ATOM     66  H   UNL     1      -6.185   6.576 133.349  0.00  0.00    +0.000 HD
BRANCH  65  67
ATOM     67  C   UNL     1      -7.107   6.014 131.508  0.00  0.00    +0.000 C 
BRANCH  67  68
ATOM     68  C   UNL     1      -5.937   6.781 130.873  0.00  0.00    +0.000 C 
ATOM     69  O   UNL     1      -6.172   7.865 130.345  0.00  0.00    +0.000 OA
ATOM     70  N   UNL     1      -4.708   6.138 130.818  0.00  0.00    +0.000 N 
ATOM     71  H   UNL     1      -4.696   5.144 130.962  0.00  0.00    +0.000 HD
BRANCH  70  72
ATOM     72  C   UNL     1      -3.470   6.782 130.307  0.00  0.00    +0.000 C 
BRANCH  72  73
ATOM     73  C   UNL     1      -3.250   6.674 128.769  0.00  0.00    +0.000 C 
ATOM     74  N   UNL     1      -2.014   6.337 128.299  0.00  0.00    +0.000 N 
ATOM     75  O   UNL     1      -4.146   6.883 127.953  0.00  0.00    +0.000 OA
ATOM     76  H   UNL     1      -1.200   6.120 128.843  0.00  0.00    +0.000 HD
ATOM     77  H   UNL     1      -1.915   6.286 127.289  0.00  0.00    +0.000 HD
ENDBRANCH  72  73
BRANCH  72  78
ATOM     78  C   UNL     1      -2.194   6.198 130.982  0.00  0.00    +0.000 C 
BRANCH  78  79
ATOM     79  C   UNL     1      -1.845   6.860 132.296  0.00  0.00    +0.000 A 
ATOM     80  C   UNL     1      -1.698   6.115 133.465  0.00  0.00    +0.000 A 
ATOM     81  C   UNL     1      -1.642   6.771 134.702  0.00  0.00    +0.000 A 
ATOM     82  C   UNL     1      -1.724   8.178 134.831  0.00  0.00    +0.000 A 
ATOM     83  C   UNL     1      -1.828   8.919 133.635  0.00  0.00    +0.000 A 
ATOM     84  I   UNL     1      -2.124  11.002 133.434  0.00  0.00    +0.000 I 
ATOM     85  C   UNL     1      -1.867   8.258 132.390  0.00  0.00    +0.000 A 
BRANCH  82  86
ATOM     86  N   UNL     1      -1.736   8.607 136.178  0.00  0.00    +0.000 NA
ATOM     87  N   UNL     1      -2.807   8.908 136.725  0.00  0.00    +0.000 NA
ATOM     88  N   UNL     1      -3.751   9.193 137.299  0.00  0.00    +0.000 NA
ENDBRANCH  82  86
ENDBRANCH  78  79
ENDBRANCH  72  78
ENDBRANCH  70  72
ENDBRANCH  67  68
BRANCH  67  89
ATOM     89  C   UNL     1      -8.334   6.787 130.997  0.00  0.00    +0.000 C 
BRANCH  89  90
ATOM     90  C   UNL     1      -9.141   5.973 130.019  0.00  0.00    +0.000 C 
BRANCH  90  91
ATOM     91  C   UNL     1     -10.303   5.242 130.640  0.00  0.00    +0.000 C 
BRANCH  91  92
ATOM     92  N   UNL     1     -11.395   5.316 129.682  0.00  0.00    +0.000 NA
ATOM     93  H   UNL     1     -11.296   4.581 128.982  0.00  0.00    +0.000 HD
ATOM     94  H   UNL     1     -11.378   6.207 129.195  0.00  0.00    +0.000 HD
ENDBRANCH  91  92
ENDBRANCH  90  91
ENDBRANCH  89  90
ENDBRANCH  67  89
ENDBRANCH  65  67
ENDBRANCH  62  63
ENDBRANCH  60  62
ENDBRANCH  57  58
BRANCH  57  95
ATOM     95  C   UNL     1      -3.488   5.178 137.740  0.00  0.00    +0.000 C 
BRANCH  95  96
ATOM     96  S   UNL     1      -4.289   5.979 139.178  0.00  0.00    +0.000 S 
ATOM     97  H   UNL     1      -3.757   5.195 140.136  0.00  0.00    +0.000 HD
ENDBRANCH  95  96
ENDBRANCH  57  95
ENDBRANCH  55  57
ENDBRANCH   1  53
BRANCH   1  98
ATOM     98  C   UNL     1      -3.615   2.859 132.024  0.00  0.00    +0.000 C 
BRANCH  98  99
ATOM     99  C   UNL     1      -4.439   1.821 131.285  0.00  0.00    +0.000 C 
ATOM    100  N   UNL     1      -5.766   1.802 131.520  0.00  0.00    +0.000 N 
ATOM    101  O   UNL     1      -3.968   0.962 130.552  0.00  0.00    +0.000 OA
ATOM    102  H   UNL     1      -6.117   2.699 131.255  0.00  0.00    +0.000 HD
ATOM    103  H   UNL     1      -6.206   1.132 130.892  0.00  0.00    +0.000 HD
ENDBRANCH  98  99
ENDBRANCH   1  98
TORSDOF 40
ENDMDL
