MODEL 1
REMARK VINA RESULT:      -8.4      0.000      0.000
REMARK  Name = CHEMBL2037491
REMARK  11 active torsions:
REMARK  status: ('A' for Active; 'I' for Inactive)
REMARK    1  A    between atoms: C_1  and  C_2
REMARK    2  A    between atoms: C_5  and  C_6
REMARK    3  A    between atoms: C_6  and  C_7
REMARK    4  A    between atoms: C_6  and  N_12
REMARK    5  A    between atoms: N_9  and  C_10
REMARK    6  A    between atoms: N_9  and  C_11
REMARK    7  A    between atoms: C_15  and  C_16
REMARK    8  A    between atoms: CA_28  and  CB_29
REMARK    9  A    between atoms: CB_29  and  CG_30
REMARK   10  A    between atoms: CG_30  and  CD1_31
REMARK   11  A    between atoms: CG_30  and  CD2_32
REMARK                            x       y       z     vdW  Elec       q    Type
REMARK                         _______ _______ _______ _____ _____    ______ ____
ROOT
ATOM      1  N   LEU A   1      -8.366   4.397 130.520  0.00  0.00    +0.000 N 
ATOM      2  C   UNK A   2      -8.916   3.403 129.691  0.00  0.00    +0.000 C 
ATOM      3  O   UNK A   2     -10.131   3.191 129.686  0.00  0.00    +0.000 OA
ATOM      4  C   UNK A   2      -7.859   2.379 129.123  0.00  0.00    +0.000 C 
ATOM      5  N   UNK A   2      -6.885   3.139 128.417  0.00  0.00    +0.000 N 
ATOM      6  C   LEU A   1      -6.189   4.063 129.100  0.00  0.00    +0.000 C 
ATOM      7  O   LEU A   1      -5.126   4.464 128.590  0.00  0.00    +0.000 OA
ATOM      8  CA  LEU A   1      -6.837   4.557 130.443  0.00  0.00    +0.000 C 
ATOM      9  H   UNK A   2      -6.604   2.956 127.459  0.00  0.00    +0.000 HD
ENDROOT
BRANCH   4  10
ATOM     10  C   UNK A   2      -8.430   1.315 128.228  0.00  0.00    +0.000 C 
ATOM     11  C   UNK A   2      -8.245   1.611 126.729  0.00  0.00    +0.000 C 
ATOM     12  C   UNK A   2      -8.085   0.232 126.196  0.00  0.00    +0.000 A 
ATOM     13  C   UNK A   2      -8.123  -0.174 124.880  0.00  0.00    +0.000 A 
ATOM     14  C   UNK A   2      -7.924  -1.529 124.618  0.00  0.00    +0.000 A 
ATOM     15  C   UNK A   2      -7.640  -2.435 125.655  0.00  0.00    +0.000 A 
ATOM     16  C   UNK A   2      -7.557  -2.006 126.972  0.00  0.00    +0.000 A 
ATOM     17  C   UNK A   2      -7.813  -0.679 127.223  0.00  0.00    +0.000 A 
ATOM     18  C   UNK A   2      -7.762  -0.029 128.550  0.00  0.00    +0.000 C 
ENDBRANCH   4  10
BRANCH   1  19
ATOM     19  C   UNK A   0      -9.346   5.062 131.584  0.00  0.00    +0.000 C 
BRANCH  19  24
ATOM     20  C   UNK A   0     -12.954   8.829 128.916  0.00  0.00    +0.000 C 
ATOM     21  C   UNK A   0     -11.967   7.988 129.673  0.00  0.00    +0.000 A 
ATOM     22  C   UNK A   0     -12.440   7.257 130.737  0.00  0.00    +0.000 A 
ATOM     23  C   UNK A   0     -11.569   6.481 131.517  0.00  0.00    +0.000 A 
ATOM     24  C   UNK A   0     -10.234   6.300 131.105  0.00  0.00    +0.000 A 
ATOM     25  C   UNK A   0      -9.834   7.181 130.092  0.00  0.00    +0.000 A 
ATOM     26  N   UNK A   0     -10.655   8.018 129.383  0.00  0.00    +0.000 NA
ENDBRANCH  19  24
BRANCH  19  27
ATOM     27  C   UNK A   0      -8.827   5.376 133.101  0.00  0.00    +0.000 C 
ATOM     28  O   UNK A   0      -9.074   6.501 133.568  0.00  0.00    +0.000 OA
ATOM     29  N   UNK A   0      -8.149   4.489 133.927  0.00  0.00    +0.000 N 
ATOM     30  C   UNK A   0      -7.998   3.091 133.745  0.00  0.00    +0.000 C 
ATOM     31  C   UNK A   0      -7.756   4.882 135.259  0.00  0.00    +0.000 C 
ENDBRANCH  19  27
ENDBRANCH   1  19
BRANCH   8  32
ATOM     32  CB  LEU A   1      -6.524   6.039 130.491  0.00  0.00    +0.000 C 
BRANCH  32  33
ATOM     33  CG  LEU A   1      -5.577   6.606 131.566  0.00  0.00    +0.000 C 
ATOM     34  CD1 LEU A   1      -5.017   5.497 132.502  0.00  0.00    +0.000 C 
ATOM     35  CD2 LEU A   1      -4.358   7.362 131.067  0.00  0.00    +0.000 C 
ENDBRANCH  32  33
ENDBRANCH   8  32
TORSDOF 6
ENDMDL
MODEL 2
REMARK VINA RESULT:      -8.3      2.055      2.980
REMARK  Name = CHEMBL2037491
REMARK  11 active torsions:
REMARK  status: ('A' for Active; 'I' for Inactive)
REMARK    1  A    between atoms: C_1  and  C_2
REMARK    2  A    between atoms: C_5  and  C_6
REMARK    3  A    between atoms: C_6  and  C_7
REMARK    4  A    between atoms: C_6  and  N_12
REMARK    5  A    between atoms: N_9  and  C_10
REMARK    6  A    between atoms: N_9  and  C_11
REMARK    7  A    between atoms: C_15  and  C_16
REMARK    8  A    between atoms: CA_28  and  CB_29
REMARK    9  A    between atoms: CB_29  and  CG_30
REMARK   10  A    between atoms: CG_30  and  CD1_31
REMARK   11  A    between atoms: CG_30  and  CD2_32
REMARK                            x       y       z     vdW  Elec       q    Type
REMARK                         _______ _______ _______ _____ _____    ______ ____
ROOT
ATOM      1  N   LEU A   1      -6.062   2.873 129.960  0.00  0.00    +0.000 N 
ATOM      2  C   UNK A   2      -6.458   1.598 129.518  0.00  0.00    +0.000 C 
ATOM      3  O   UNK A   2      -7.607   1.195 129.711  0.00  0.00    +0.000 OA
ATOM      4  C   UNK A   2      -5.258   0.642 129.150  0.00  0.00    +0.000 C 
ATOM      5  N   UNK A   2      -4.493   1.305 128.151  0.00  0.00    +0.000 N 
ATOM      6  C   LEU A   1      -3.950   2.495 128.458  0.00  0.00    +0.000 C 
ATOM      7  O   LEU A   1      -3.015   2.894 127.738  0.00  0.00    +0.000 OA
ATOM      8  CA  LEU A   1      -4.600   3.255 129.669  0.00  0.00    +0.000 C 
ATOM      9  H   UNK A   2      -4.238   0.892 127.259  0.00  0.00    +0.000 HD
ENDROOT
BRANCH   4  10
ATOM     10  C   UNK A   2      -5.665  -0.722 128.666  0.00  0.00    +0.000 C 
ATOM     11  C   UNK A   2      -6.457  -1.532 129.707  0.00  0.00    +0.000 C 
ATOM     12  C   UNK A   2      -7.366  -2.304 128.818  0.00  0.00    +0.000 A 
ATOM     13  C   UNK A   2      -8.154  -3.384 129.151  0.00  0.00    +0.000 A 
ATOM     14  C   UNK A   2      -8.948  -3.936 128.146  0.00  0.00    +0.000 A 
ATOM     15  C   UNK A   2      -8.981  -3.375 126.857  0.00  0.00    +0.000 A 
ATOM     16  C   UNK A   2      -8.219  -2.258 126.547  0.00  0.00    +0.000 A 
ATOM     17  C   UNK A   2      -7.397  -1.759 127.530  0.00  0.00    +0.000 A 
ATOM     18  C   UNK A   2      -6.522  -0.574 127.400  0.00  0.00    +0.000 C 
ENDBRANCH   4  10
BRANCH   1  19
ATOM     19  C   UNK A   0      -7.088   3.654 130.894  0.00  0.00    +0.000 C 
BRANCH  19  24
ATOM     20  C   UNK A   0     -10.790   7.884 129.241  0.00  0.00    +0.000 C 
ATOM     21  C   UNK A   0      -9.747   6.849 129.548  0.00  0.00    +0.000 A 
ATOM     22  C   UNK A   0      -8.951   7.058 130.649  0.00  0.00    +0.000 A 
ATOM     23  C   UNK A   0      -7.927   6.155 130.974  0.00  0.00    +0.000 A 
ATOM     24  C   UNK A   0      -7.826   4.932 130.282  0.00  0.00    +0.000 A 
ATOM     25  C   UNK A   0      -8.598   4.882 129.115  0.00  0.00    +0.000 A 
ATOM     26  N   UNK A   0      -9.535   5.804 128.729  0.00  0.00    +0.000 NA
ENDBRANCH  19  24
BRANCH  19  27
ATOM     27  C   UNK A   0      -6.698   3.996 132.443  0.00  0.00    +0.000 C 
ATOM     28  O   UNK A   0      -5.596   4.535 132.649  0.00  0.00    +0.000 OA
ATOM     29  N   UNK A   0      -7.497   3.758 133.554  0.00  0.00    +0.000 N 
ATOM     30  C   UNK A   0      -8.875   3.425 133.563  0.00  0.00    +0.000 C 
ATOM     31  C   UNK A   0      -7.044   4.123 134.875  0.00  0.00    +0.000 C 
ENDBRANCH  19  27
ENDBRANCH   1  19
BRANCH   8  32
ATOM     32  CB  LEU A   1      -4.577   4.713 129.256  0.00  0.00    +0.000 C 
BRANCH  32  33
ATOM     33  CG  LEU A   1      -3.686   5.725 130.000  0.00  0.00    +0.000 C 
ATOM     34  CD1 LEU A   1      -2.427   6.120 129.175  0.00  0.00    +0.000 C 
ATOM     35  CD2 LEU A   1      -4.334   7.041 130.395  0.00  0.00    +0.000 C 
ENDBRANCH  32  33
ENDBRANCH   8  32
TORSDOF 6
ENDMDL
MODEL 3
REMARK VINA RESULT:      -8.2      2.086      3.862
REMARK  Name = CHEMBL2037491
REMARK  11 active torsions:
REMARK  status: ('A' for Active; 'I' for Inactive)
REMARK    1  A    between atoms: C_1  and  C_2
REMARK    2  A    between atoms: C_5  and  C_6
REMARK    3  A    between atoms: C_6  and  C_7
REMARK    4  A    between atoms: C_6  and  N_12
REMARK    5  A    between atoms: N_9  and  C_10
REMARK    6  A    between atoms: N_9  and  C_11
REMARK    7  A    between atoms: C_15  and  C_16
REMARK    8  A    between atoms: CA_28  and  CB_29
REMARK    9  A    between atoms: CB_29  and  CG_30
REMARK   10  A    between atoms: CG_30  and  CD1_31
REMARK   11  A    between atoms: CG_30  and  CD2_32
REMARK                            x       y       z     vdW  Elec       q    Type
REMARK                         _______ _______ _______ _____ _____    ______ ____
ROOT
ATOM      1  N   LEU A   1      -6.999   2.722 130.836  0.00  0.00    +0.000 N 
ATOM      2  C   UNK A   2      -6.736   1.947 129.693  0.00  0.00    +0.000 C 
ATOM      3  O   UNK A   2      -6.113   2.421 128.741  0.00  0.00    +0.000 OA
ATOM      4  C   UNK A   2      -7.614   0.640 129.585  0.00  0.00    +0.000 C 
ATOM      5  N   UNK A   2      -7.381  -0.114 130.769  0.00  0.00    +0.000 N 
ATOM      6  C   LEU A   1      -7.687   0.453 131.948  0.00  0.00    +0.000 C 
ATOM      7  O   LEU A   1      -7.819  -0.308 132.925  0.00  0.00    +0.000 OA
ATOM      8  CA  LEU A   1      -7.794   2.020 131.950  0.00  0.00    +0.000 C 
ATOM      9  H   UNK A   2      -7.103  -1.090 130.778  0.00  0.00    +0.000 HD
ENDROOT
BRANCH   4  10
ATOM     10  C   UNK A   2      -7.339  -0.206 128.374  0.00  0.00    +0.000 C 
ATOM     11  C   UNK A   2      -7.668  -1.696 128.577  0.00  0.00    +0.000 C 
ATOM     12  C   UNK A   2      -8.110  -2.067 127.206  0.00  0.00    +0.000 A 
ATOM     13  C   UNK A   2      -8.307  -3.332 126.698  0.00  0.00    +0.000 A 
ATOM     14  C   UNK A   2      -8.749  -3.434 125.380  0.00  0.00    +0.000 A 
ATOM     15  C   UNK A   2      -9.034  -2.287 124.618  0.00  0.00    +0.000 A 
ATOM     16  C   UNK A   2      -8.877  -1.018 125.157  0.00  0.00    +0.000 A 
ATOM     17  C   UNK A   2      -8.385  -0.931 126.438  0.00  0.00    +0.000 A 
ATOM     18  C   UNK A   2      -8.160   0.323 127.189  0.00  0.00    +0.000 C 
ENDBRANCH   4  10
BRANCH   1  19
ATOM     19  C   UNK A   0      -6.650   4.273 130.741  0.00  0.00    +0.000 C 
BRANCH  19  24
ATOM     20  C   UNK A   0     -11.587   7.258 129.724  0.00  0.00    +0.000 C 
ATOM     21  C   UNK A   0     -10.266   6.556 129.852  0.00  0.00    +0.000 A 
ATOM     22  C   UNK A   0      -9.373   7.046 130.774  0.00  0.00    +0.000 A 
ATOM     23  C   UNK A   0      -8.103   6.468 130.919  0.00  0.00    +0.000 A 
ATOM     24  C   UNK A   0      -7.801   5.265 130.250  0.00  0.00    +0.000 A 
ATOM     25  C   UNK A   0      -8.726   4.929 129.254  0.00  0.00    +0.000 A 
ATOM     26  N   UNK A   0      -9.930   5.544 129.033  0.00  0.00    +0.000 NA
ENDBRANCH  19  24
BRANCH  19  27
ATOM     27  C   UNK A   0      -5.245   4.763 130.064  0.00  0.00    +0.000 C 
ATOM     28  O   UNK A   0      -5.318   5.547 129.102  0.00  0.00    +0.000 OA
ATOM     29  N   UNK A   0      -3.972   4.397 130.481  0.00  0.00    +0.000 N 
ATOM     30  C   UNK A   0      -3.618   3.758 131.696  0.00  0.00    +0.000 C 
ATOM     31  C   UNK A   0      -2.804   4.913 129.808  0.00  0.00    +0.000 C 
ENDBRANCH  19  27
ENDBRANCH   1  19
BRANCH   8  32
ATOM     32  CB  LEU A   1      -7.196   2.437 133.278  0.00  0.00    +0.000 C 
BRANCH  32  33
ATOM     33  CG  LEU A   1      -7.919   3.460 134.177  0.00  0.00    +0.000 C 
ATOM     34  CD1 LEU A   1      -7.084   4.757 134.381  0.00  0.00    +0.000 C 
ATOM     35  CD2 LEU A   1      -9.284   3.932 133.708  0.00  0.00    +0.000 C 
ENDBRANCH  32  33
ENDBRANCH   8  32
TORSDOF 6
ENDMDL
MODEL 4
REMARK VINA RESULT:      -8.1      2.573      7.448
REMARK  Name = CHEMBL2037491
REMARK  11 active torsions:
REMARK  status: ('A' for Active; 'I' for Inactive)
REMARK    1  A    between atoms: C_1  and  C_2
REMARK    2  A    between atoms: C_5  and  C_6
REMARK    3  A    between atoms: C_6  and  C_7
REMARK    4  A    between atoms: C_6  and  N_12
REMARK    5  A    between atoms: N_9  and  C_10
REMARK    6  A    between atoms: N_9  and  C_11
REMARK    7  A    between atoms: C_15  and  C_16
REMARK    8  A    between atoms: CA_28  and  CB_29
REMARK    9  A    between atoms: CB_29  and  CG_30
REMARK   10  A    between atoms: CG_30  and  CD1_31
REMARK   11  A    between atoms: CG_30  and  CD2_32
REMARK                            x       y       z     vdW  Elec       q    Type
REMARK                         _______ _______ _______ _____ _____    ______ ____
ROOT
ATOM      1  N   LEU A   1      -7.964   3.470 129.644  0.00  0.00    +0.000 N 
ATOM      2  C   UNK A   2      -8.971   4.445 129.539  0.00  0.00    +0.000 C 
ATOM      3  O   UNK A   2      -8.983   5.237 128.594  0.00  0.00    +0.000 OA
ATOM      4  C   UNK A   2      -9.784   4.678 130.871  0.00  0.00    +0.000 C 
ATOM      5  N   UNK A   2     -10.338   3.420 131.242  0.00  0.00    +0.000 N 
ATOM      6  C   LEU A   1      -9.492   2.406 131.486  0.00  0.00    +0.000 C 
ATOM      7  O   LEU A   1      -9.937   1.442 132.137  0.00  0.00    +0.000 OA
ATOM      8  CA  LEU A   1      -8.053   2.548 130.873  0.00  0.00    +0.000 C 
ATOM      9  H   UNK A   2     -11.321   3.267 131.441  0.00  0.00    +0.000 HD
ENDROOT
BRANCH   4  10
ATOM     10  C   UNK A   2     -10.872   5.710 130.773  0.00  0.00    +0.000 C 
ATOM     11  C   UNK A   2     -10.364   7.099 130.347  0.00  0.00    +0.000 C 
ATOM     12  C   UNK A   2     -11.531   7.589 129.567  0.00  0.00    +0.000 A 
ATOM     13  C   UNK A   2     -11.774   8.872 129.128  0.00  0.00    +0.000 A 
ATOM     14  C   UNK A   2     -12.934   9.091 128.388  0.00  0.00    +0.000 A 
ATOM     15  C   UNK A   2     -13.795   8.030 128.056  0.00  0.00    +0.000 A 
ATOM     16  C   UNK A   2     -13.515   6.733 128.462  0.00  0.00    +0.000 A 
ATOM     17  C   UNK A   2     -12.398   6.541 129.241  0.00  0.00    +0.000 A 
ATOM     18  C   UNK A   2     -11.926   5.239 129.760  0.00  0.00    +0.000 C 
ENDBRANCH   4  10
BRANCH   1  19
ATOM     19  C   UNK A   0      -6.748   3.587 128.622  0.00  0.00    +0.000 C 
BRANCH  19  24
ATOM     20  C   UNK A   0      -2.083   5.845 131.354  0.00  0.00    +0.000 C 
ATOM     21  C   UNK A   0      -3.278   5.396 130.564  0.00  0.00    +0.000 A 
ATOM     22  C   UNK A   0      -3.084   4.411 129.625  0.00  0.00    +0.000 A 
ATOM     23  C   UNK A   0      -4.145   3.970 128.820  0.00  0.00    +0.000 A 
ATOM     24  C   UNK A   0      -5.458   4.402 129.093  0.00  0.00    +0.000 A 
ATOM     25  C   UNK A   0      -5.519   5.486 129.978  0.00  0.00    +0.000 A 
ATOM     26  N   UNK A   0      -4.473   5.994 130.702  0.00  0.00    +0.000 NA
ENDBRANCH  19  24
BRANCH  19  27
ATOM     27  C   UNK A   0      -7.021   3.947 127.052  0.00  0.00    +0.000 C 
ATOM     28  O   UNK A   0      -6.477   4.968 126.597  0.00  0.00    +0.000 OA
ATOM     29  N   UNK A   0      -7.793   3.201 126.170  0.00  0.00    +0.000 N 
ATOM     30  C   UNK A   0      -8.275   1.881 126.358  0.00  0.00    +0.000 C 
ATOM     31  C   UNK A   0      -7.944   3.617 124.796  0.00  0.00    +0.000 C 
ENDBRANCH  19  27
ENDBRANCH   1  19
BRANCH   8  32
ATOM     32  CB  LEU A   1      -7.692   1.146 130.427  0.00  0.00    +0.000 C 
BRANCH  32  33
ATOM     33  CG  LEU A   1      -6.289   0.572 130.704  0.00  0.00    +0.000 C 
ATOM     34  CD1 LEU A   1      -5.555   0.157 129.396  0.00  0.00    +0.000 C 
ATOM     35  CD2 LEU A   1      -5.316   1.479 131.437  0.00  0.00    +0.000 C 
ENDBRANCH  32  33
ENDBRANCH   8  32
TORSDOF 6
ENDMDL
MODEL 5
REMARK VINA RESULT:      -8.1      2.518      7.405
REMARK  Name = CHEMBL2037491
REMARK  11 active torsions:
REMARK  status: ('A' for Active; 'I' for Inactive)
REMARK    1  A    between atoms: C_1  and  C_2
REMARK    2  A    between atoms: C_5  and  C_6
REMARK    3  A    between atoms: C_6  and  C_7
REMARK    4  A    between atoms: C_6  and  N_12
REMARK    5  A    between atoms: N_9  and  C_10
REMARK    6  A    between atoms: N_9  and  C_11
REMARK    7  A    between atoms: C_15  and  C_16
REMARK    8  A    between atoms: CA_28  and  CB_29
REMARK    9  A    between atoms: CB_29  and  CG_30
REMARK   10  A    between atoms: CG_30  and  CD1_31
REMARK   11  A    between atoms: CG_30  and  CD2_32
REMARK                            x       y       z     vdW  Elec       q    Type
REMARK                         _______ _______ _______ _____ _____    ______ ____
ROOT
ATOM      1  N   LEU A   1      -6.659   4.778 130.987  0.00  0.00    +0.000 N 
ATOM      2  C   UNK A   2      -5.652   5.755 130.900  0.00  0.00    +0.000 C 
ATOM      3  O   UNK A   2      -5.812   6.764 130.211  0.00  0.00    +0.000 OA
ATOM      4  C   UNK A   2      -4.237   5.268 131.401  0.00  0.00    +0.000 C 
ATOM      5  N   UNK A   2      -4.402   4.833 132.746  0.00  0.00    +0.000 N 
ATOM      6  C   LEU A   1      -5.257   3.824 132.983  0.00  0.00    +0.000 C 
ATOM      7  O   LEU A   1      -5.138   3.223 134.067  0.00  0.00    +0.000 OA
ATOM      8  CA  LEU A   1      -6.334   3.561 131.870  0.00  0.00    +0.000 C 
ATOM      9  H   UNK A   2      -3.838   5.160 133.524  0.00  0.00    +0.000 HD
ENDROOT
BRANCH   4  10
ATOM     10  C   UNK A   2      -3.150   6.304 131.325  0.00  0.00    +0.000 C 
ATOM     11  C   UNK A   2      -3.556   7.664 131.921  0.00  0.00    +0.000 C 
ATOM     12  C   UNK A   2      -2.251   8.123 132.466  0.00  0.00    +0.000 A 
ATOM     13  C   UNK A   2      -1.919   9.384 132.911  0.00  0.00    +0.000 A 
ATOM     14  C   UNK A   2      -0.629   9.575 133.404  0.00  0.00    +0.000 A 
ATOM     15  C   UNK A   2       0.279   8.505 133.493  0.00  0.00    +0.000 A 
ATOM     16  C   UNK A   2      -0.082   7.229 133.085  0.00  0.00    +0.000 A 
ATOM     17  C   UNK A   2      -1.336   7.067 132.547  0.00  0.00    +0.000 A 
ATOM     18  C   UNK A   2      -1.909   5.791 132.070  0.00  0.00    +0.000 C 
ENDBRANCH   4  10
BRANCH   1  19
ATOM     19  C   UNK A   0      -7.894   4.938 129.994  0.00  0.00    +0.000 C 
BRANCH  19  24
ATOM     20  C   UNK A   0     -13.014   7.463 131.312  0.00  0.00    +0.000 C 
ATOM     21  C   UNK A   0     -11.639   6.960 130.980  0.00  0.00    +0.000 A 
ATOM     22  C   UNK A   0     -10.939   6.321 131.976  0.00  0.00    +0.000 A 
ATOM     23  C   UNK A   0      -9.632   5.862 131.751  0.00  0.00    +0.000 A 
ATOM     24  C   UNK A   0      -9.095   5.888 130.449  0.00  0.00    +0.000 A 
ATOM     25  C   UNK A   0      -9.838   6.664 129.550  0.00  0.00    +0.000 A 
ATOM     26  N   UNK A   0     -11.075   7.204 129.784  0.00  0.00    +0.000 NA
ENDBRANCH  19  24
BRANCH  19  27
ATOM     27  C   UNK A   0      -8.541   3.627 129.264  0.00  0.00    +0.000 C 
ATOM     28  O   UNK A   0      -9.758   3.428 129.423  0.00  0.00    +0.000 OA
ATOM     29  N   UNK A   0      -7.856   2.723 128.462  0.00  0.00    +0.000 N 
ATOM     30  C   UNK A   0      -6.561   2.879 127.908  0.00  0.00    +0.000 C 
ATOM     31  C   UNK A   0      -8.547   1.609 127.858  0.00  0.00    +0.000 C 
ENDBRANCH  19  27
ENDBRANCH   1  19
BRANCH   8  32
ATOM     32  CB  LEU A   1      -7.589   3.199 132.638  0.00  0.00    +0.000 C 
BRANCH  32  33
ATOM     33  CG  LEU A   1      -8.160   1.769 132.578  0.00  0.00    +0.000 C 
ATOM     34  CD1 LEU A   1      -9.695   1.759 132.321  0.00  0.00    +0.000 C 
ATOM     35  CD2 LEU A   1      -7.573   0.846 131.524  0.00  0.00    +0.000 C 
ENDBRANCH  32  33
ENDBRANCH   8  32
TORSDOF 6
ENDMDL
MODEL 6
REMARK VINA RESULT:      -8.1      3.411      7.122
REMARK  Name = CHEMBL2037491
REMARK  11 active torsions:
REMARK  status: ('A' for Active; 'I' for Inactive)
REMARK    1  A    between atoms: C_1  and  C_2
REMARK    2  A    between atoms: C_5  and  C_6
REMARK    3  A    between atoms: C_6  and  C_7
REMARK    4  A    between atoms: C_6  and  N_12
REMARK    5  A    between atoms: N_9  and  C_10
REMARK    6  A    between atoms: N_9  and  C_11
REMARK    7  A    between atoms: C_15  and  C_16
REMARK    8  A    between atoms: CA_28  and  CB_29
REMARK    9  A    between atoms: CB_29  and  CG_30
REMARK   10  A    between atoms: CG_30  and  CD1_31
REMARK   11  A    between atoms: CG_30  and  CD2_32
REMARK                            x       y       z     vdW  Elec       q    Type
REMARK                         _______ _______ _______ _____ _____    ______ ____
ROOT
ATOM      1  N   LEU A   1      -7.770   4.504 130.964  0.00  0.00    +0.000 N 
ATOM      2  C   UNK A   2      -8.904   5.244 130.587  0.00  0.00    +0.000 C 
ATOM      3  O   UNK A   2      -8.797   6.223 129.844  0.00  0.00    +0.000 OA
ATOM      4  C   UNK A   2     -10.178   4.972 131.477  0.00  0.00    +0.000 C 
ATOM      5  N   UNK A   2     -10.441   3.575 131.404  0.00  0.00    +0.000 N 
ATOM      6  C   LEU A   1      -9.490   2.730 131.834  0.00  0.00    +0.000 C 
ATOM      7  O   LEU A   1      -9.844   1.566 132.099  0.00  0.00    +0.000 OA
ATOM      8  CA  LEU A   1      -8.033   3.313 131.903  0.00  0.00    +0.000 C 
ATOM      9  H   UNK A   2     -11.341   3.177 131.152  0.00  0.00    +0.000 HD
ENDROOT
BRANCH   4  10
ATOM     10  C   UNK A   2     -11.402   5.748 131.080  0.00  0.00    +0.000 C 
ATOM     11  C   UNK A   2     -11.193   7.273 131.093  0.00  0.00    +0.000 C 
ATOM     12  C   UNK A   2     -12.086   7.679 129.975  0.00  0.00    +0.000 A 
ATOM     13  C   UNK A   2     -12.509   8.950 129.653  0.00  0.00    +0.000 A 
ATOM     14  C   UNK A   2     -13.333   9.092 128.538  0.00  0.00    +0.000 A 
ATOM     15  C   UNK A   2     -13.673   7.984 127.742  0.00  0.00    +0.000 A 
ATOM     16  C   UNK A   2     -13.202   6.715 128.049  0.00  0.00    +0.000 A 
ATOM     17  C   UNK A   2     -12.438   6.581 129.184  0.00  0.00    +0.000 A 
ATOM     18  C   UNK A   2     -11.836   5.321 129.671  0.00  0.00    +0.000 C 
ENDBRANCH   4  10
BRANCH   1  19
ATOM     19  C   UNK A   0      -6.354   5.117 130.569  0.00  0.00    +0.000 C 
BRANCH  19  24
ATOM     20  C   UNK A   0      -2.712   3.438 126.298  0.00  0.00    +0.000 C 
ATOM     21  C   UNK A   0      -3.723   3.734 127.368  0.00  0.00    +0.000 A 
ATOM     22  C   UNK A   0      -3.328   3.580 128.675  0.00  0.00    +0.000 A 
ATOM     23  C   UNK A   0      -4.230   3.797 129.727  0.00  0.00    +0.000 A 
ATOM     24  C   UNK A   0      -5.497   4.353 129.459  0.00  0.00    +0.000 A 
ATOM     25  C   UNK A   0      -5.835   4.351 128.100  0.00  0.00    +0.000 A 
ATOM     26  N   UNK A   0      -4.994   4.047 127.062  0.00  0.00    +0.000 NA
ENDBRANCH  19  24
BRANCH  19  27
ATOM     27  C   UNK A   0      -5.325   5.632 131.729  0.00  0.00    +0.000 C 
ATOM     28  O   UNK A   0      -5.216   4.928 132.749  0.00  0.00    +0.000 OA
ATOM     29  N   UNK A   0      -4.543   6.778 131.671  0.00  0.00    +0.000 N 
ATOM     30  C   UNK A   0      -4.277   7.578 130.531  0.00  0.00    +0.000 C 
ATOM     31  C   UNK A   0      -3.657   7.117 132.759  0.00  0.00    +0.000 C 
ENDBRANCH  19  27
ENDBRANCH   1  19
BRANCH   8  32
ATOM     32  CB  LEU A   1      -7.146   2.168 131.456  0.00  0.00    +0.000 C 
BRANCH  32  33
ATOM     33  CG  LEU A   1      -6.384   1.318 132.490  0.00  0.00    +0.000 C 
ATOM     34  CD1 LEU A   1      -4.861   1.241 132.181  0.00  0.00    +0.000 C 
ATOM     35  CD2 LEU A   1      -6.476   1.764 133.939  0.00  0.00    +0.000 C 
ENDBRANCH  32  33
ENDBRANCH   8  32
TORSDOF 6
ENDMDL
MODEL 7
REMARK VINA RESULT:      -8.1      4.262      7.381
REMARK  Name = CHEMBL2037491
REMARK  11 active torsions:
REMARK  status: ('A' for Active; 'I' for Inactive)
REMARK    1  A    between atoms: C_1  and  C_2
REMARK    2  A    between atoms: C_5  and  C_6
REMARK    3  A    between atoms: C_6  and  C_7
REMARK    4  A    between atoms: C_6  and  N_12
REMARK    5  A    between atoms: N_9  and  C_10
REMARK    6  A    between atoms: N_9  and  C_11
REMARK    7  A    between atoms: C_15  and  C_16
REMARK    8  A    between atoms: CA_28  and  CB_29
REMARK    9  A    between atoms: CB_29  and  CG_30
REMARK   10  A    between atoms: CG_30  and  CD1_31
REMARK   11  A    between atoms: CG_30  and  CD2_32
REMARK                            x       y       z     vdW  Elec       q    Type
REMARK                         _______ _______ _______ _____ _____    ______ ____
ROOT
ATOM      1  N   LEU A   1      -5.955   1.694 126.393  0.00  0.00    +0.000 N 
ATOM      2  C   UNK A   2      -6.113   2.687 125.410  0.00  0.00    +0.000 C 
ATOM      3  O   UNK A   2      -5.699   3.832 125.601  0.00  0.00    +0.000 OA
ATOM      4  C   UNK A   2      -7.167   2.325 124.292  0.00  0.00    +0.000 C 
ATOM      5  N   UNK A   2      -6.742   1.099 123.706  0.00  0.00    +0.000 N 
ATOM      6  C   LEU A   1      -6.645   0.020 124.500  0.00  0.00    +0.000 C 
ATOM      7  O   LEU A   1      -6.625  -1.093 123.943  0.00  0.00    +0.000 OA
ATOM      8  CA  LEU A   1      -6.524   0.309 126.040  0.00  0.00    +0.000 C 
ATOM      9  H   UNK A   2      -6.613   0.959 122.709  0.00  0.00    +0.000 HD
ENDROOT
BRANCH   4  10
ATOM     10  C   UNK A   2      -7.340   3.371 123.228  0.00  0.00    +0.000 C 
ATOM     11  C   UNK A   2      -6.162   3.445 122.241  0.00  0.00    +0.000 C 
ATOM     12  C   UNK A   2      -6.875   3.827 120.993  0.00  0.00    +0.000 A 
ATOM     13  C   UNK A   2      -6.326   4.276 119.812  0.00  0.00    +0.000 A 
ATOM     14  C   UNK A   2      -7.198   4.554 118.761  0.00  0.00    +0.000 A 
ATOM     15  C   UNK A   2      -8.581   4.331 118.887  0.00  0.00    +0.000 A 
ATOM     16  C   UNK A   2      -9.117   3.833 120.065  0.00  0.00    +0.000 A 
ATOM     17  C   UNK A   2      -8.253   3.618 121.113  0.00  0.00    +0.000 A 
ATOM     18  C   UNK A   2      -8.626   3.082 122.439  0.00  0.00    +0.000 C 
ENDBRANCH   4  10
BRANCH   1  19
ATOM     19  C   UNK A   0      -5.426   2.177 127.815  0.00  0.00    +0.000 C 
BRANCH  19  24
ATOM     20  C   UNK A   0      -9.357   0.542 131.840  0.00  0.00    +0.000 C 
ATOM     21  C   UNK A   0      -8.358   1.105 130.871  0.00  0.00    +0.000 A 
ATOM     22  C   UNK A   0      -7.034   0.802 131.076  0.00  0.00    +0.000 A 
ATOM     23  C   UNK A   0      -6.040   1.327 130.237  0.00  0.00    +0.000 A 
ATOM     24  C   UNK A   0      -6.407   2.020 129.066  0.00  0.00    +0.000 A 
ATOM     25  C   UNK A   0      -7.761   2.374 129.024  0.00  0.00    +0.000 A 
ATOM     26  N   UNK A   0      -8.731   1.949 129.893  0.00  0.00    +0.000 NA
ENDBRANCH  19  24
BRANCH  19  27
ATOM     27  C   UNK A   0      -4.649   3.607 127.965  0.00  0.00    +0.000 C 
ATOM     28  O   UNK A   0      -5.266   4.537 128.512  0.00  0.00    +0.000 OA
ATOM     29  N   UNK A   0      -3.350   3.872 127.553  0.00  0.00    +0.000 N 
ATOM     30  C   UNK A   0      -2.362   2.930 127.170  0.00  0.00    +0.000 C 
ATOM     31  C   UNK A   0      -2.768   5.177 127.758  0.00  0.00    +0.000 C 
ENDBRANCH  19  27
ENDBRANCH   1  19
BRANCH   8  32
ATOM     32  CB  LEU A   1      -5.546  -0.734 126.543  0.00  0.00    +0.000 C 
BRANCH  32  33
ATOM     33  CG  LEU A   1      -5.863  -1.563 127.803  0.00  0.00    +0.000 C 
ATOM     34  CD1 LEU A   1      -7.143  -2.431 127.629  0.00  0.00    +0.000 C 
ATOM     35  CD2 LEU A   1      -4.787  -2.526 128.271  0.00  0.00    +0.000 C 
ENDBRANCH  32  33
ENDBRANCH   8  32
TORSDOF 6
ENDMDL
MODEL 8
REMARK VINA RESULT:      -8.0      2.783      7.988
REMARK  Name = CHEMBL2037491
REMARK  11 active torsions:
REMARK  status: ('A' for Active; 'I' for Inactive)
REMARK    1  A    between atoms: C_1  and  C_2
REMARK    2  A    between atoms: C_5  and  C_6
REMARK    3  A    between atoms: C_6  and  C_7
REMARK    4  A    between atoms: C_6  and  N_12
REMARK    5  A    between atoms: N_9  and  C_10
REMARK    6  A    between atoms: N_9  and  C_11
REMARK    7  A    between atoms: C_15  and  C_16
REMARK    8  A    between atoms: CA_28  and  CB_29
REMARK    9  A    between atoms: CB_29  and  CG_30
REMARK   10  A    between atoms: CG_30  and  CD1_31
REMARK   11  A    between atoms: CG_30  and  CD2_32
REMARK                            x       y       z     vdW  Elec       q    Type
REMARK                         _______ _______ _______ _____ _____    ______ ____
ROOT
ATOM      1  N   LEU A   1      -7.867   2.736 131.026  0.00  0.00    +0.000 N 
ATOM      2  C   UNK A   2      -8.941   3.365 130.372  0.00  0.00    +0.000 C 
ATOM      3  O   UNK A   2      -9.228   3.071 129.210  0.00  0.00    +0.000 OA
ATOM      4  C   UNK A   2      -9.442   4.685 131.077  0.00  0.00    +0.000 C 
ATOM      5  N   UNK A   2      -9.800   4.332 132.408  0.00  0.00    +0.000 N 
ATOM      6  C   LEU A   1      -8.849   3.815 133.202  0.00  0.00    +0.000 C 
ATOM      7  O   LEU A   1      -9.059   3.840 134.429  0.00  0.00    +0.000 OA
ATOM      8  CA  LEU A   1      -7.603   3.198 132.470  0.00  0.00    +0.000 C 
ATOM      9  H   UNK A   2     -10.698   4.545 132.832  0.00  0.00    +0.000 HD
ENDROOT
BRANCH   4  10
ATOM     10  C   UNK A   2     -10.596   5.364 130.396  0.00  0.00    +0.000 C 
ATOM     11  C   UNK A   2     -11.502   6.151 131.360  0.00  0.00    +0.000 C 
ATOM     12  C   UNK A   2     -11.928   7.272 130.481  0.00  0.00    +0.000 A 
ATOM     13  C   UNK A   2     -12.937   8.182 130.704  0.00  0.00    +0.000 A 
ATOM     14  C   UNK A   2     -13.140   9.169 129.740  0.00  0.00    +0.000 A 
ATOM     15  C   UNK A   2     -12.309   9.261 128.611  0.00  0.00    +0.000 A 
ATOM     16  C   UNK A   2     -11.264   8.368 128.420  0.00  0.00    +0.000 A 
ATOM     17  C   UNK A   2     -11.111   7.365 129.348  0.00  0.00    +0.000 A 
ATOM     18  C   UNK A   2     -10.057   6.329 129.329  0.00  0.00    +0.000 C 
ENDBRANCH   4  10
BRANCH   1  19
ATOM     19  C   UNK A   0      -6.931   1.810 130.131  0.00  0.00    +0.000 C 
BRANCH  19  24
ATOM     20  C   UNK A   0      -6.387  -4.022 130.284  0.00  0.00    +0.000 C 
ATOM     21  C   UNK A   0      -6.596  -2.539 130.385  0.00  0.00    +0.000 A 
ATOM     22  C   UNK A   0      -5.503  -1.763 130.689  0.00  0.00    +0.000 A 
ATOM     23  C   UNK A   0      -5.631  -0.374 130.842  0.00  0.00    +0.000 A 
ATOM     24  C   UNK A   0      -6.844   0.259 130.504  0.00  0.00    +0.000 A 
ATOM     25  C   UNK A   0      -7.911  -0.630 130.330  0.00  0.00    +0.000 A 
ATOM     26  N   UNK A   0      -7.821  -1.996 130.274  0.00  0.00    +0.000 NA
ENDBRANCH  19  24
BRANCH  19  27
ATOM     27  C   UNK A   0      -5.432   2.309 129.714  0.00  0.00    +0.000 C 
ATOM     28  O   UNK A   0      -4.718   2.785 130.614  0.00  0.00    +0.000 OA
ATOM     29  N   UNK A   0      -4.873   2.231 128.446  0.00  0.00    +0.000 N 
ATOM     30  C   UNK A   0      -5.360   1.491 127.338  0.00  0.00    +0.000 C 
ATOM     31  C   UNK A   0      -3.526   2.693 128.208  0.00  0.00    +0.000 C 
ENDBRANCH  19  27
ENDBRANCH   1  19
BRANCH   8  32
ATOM     32  CB  LEU A   1      -7.251   1.973 133.290  0.00  0.00    +0.000 C 
BRANCH  32  33
ATOM     33  CG  LEU A   1      -5.864   1.841 133.946  0.00  0.00    +0.000 C 
ATOM     34  CD1 LEU A   1      -5.602   2.955 135.000  0.00  0.00    +0.000 C 
ATOM     35  CD2 LEU A   1      -5.573   0.535 134.665  0.00  0.00    +0.000 C 
ENDBRANCH  32  33
ENDBRANCH   8  32
TORSDOF 6
ENDMDL
MODEL 9
REMARK VINA RESULT:      -8.0      2.749      7.988
REMARK  Name = CHEMBL2037491
REMARK  11 active torsions:
REMARK  status: ('A' for Active; 'I' for Inactive)
REMARK    1  A    between atoms: C_1  and  C_2
REMARK    2  A    between atoms: C_5  and  C_6
REMARK    3  A    between atoms: C_6  and  C_7
REMARK    4  A    between atoms: C_6  and  N_12
REMARK    5  A    between atoms: N_9  and  C_10
REMARK    6  A    between atoms: N_9  and  C_11
REMARK    7  A    between atoms: C_15  and  C_16
REMARK    8  A    between atoms: CA_28  and  CB_29
REMARK    9  A    between atoms: CB_29  and  CG_30
REMARK   10  A    between atoms: CG_30  and  CD1_31
REMARK   11  A    between atoms: CG_30  and  CD2_32
REMARK                            x       y       z     vdW  Elec       q    Type
REMARK                         _______ _______ _______ _____ _____    ______ ____
ROOT
ATOM      1  N   LEU A   1      -7.961   2.157 129.236  0.00  0.00    +0.000 N 
ATOM      2  C   UNK A   2      -8.682   3.364 129.265  0.00  0.00    +0.000 C 
ATOM      3  O   UNK A   2      -8.662   4.132 128.301  0.00  0.00    +0.000 OA
ATOM      4  C   UNK A   2      -9.146   3.802 130.708  0.00  0.00    +0.000 C 
ATOM      5  N   UNK A   2      -9.929   2.735 131.232  0.00  0.00    +0.000 N 
ATOM      6  C   LEU A   1      -9.346   1.533 131.370  0.00  0.00    +0.000 C 
ATOM      7  O   LEU A   1      -9.898   0.720 132.135  0.00  0.00    +0.000 OA
ATOM      8  CA  LEU A   1      -8.058   1.291 130.504  0.00  0.00    +0.000 C 
ATOM      9  H   UNK A   2     -10.865   2.847 131.610  0.00  0.00    +0.000 HD
ENDROOT
BRANCH   4  10
ATOM     10  C   UNK A   2      -9.927   5.085 130.756  0.00  0.00    +0.000 C 
ATOM     11  C   UNK A   2      -9.274   6.232 129.965  0.00  0.00    +0.000 C 
ATOM     12  C   UNK A   2     -10.481   6.958 129.489  0.00  0.00    +0.000 A 
ATOM     13  C   UNK A   2     -10.543   8.213 128.925  0.00  0.00    +0.000 A 
ATOM     14  C   UNK A   2     -11.796   8.682 128.533  0.00  0.00    +0.000 A 
ATOM     15  C   UNK A   2     -12.943   7.880 128.659  0.00  0.00    +0.000 A 
ATOM     16  C   UNK A   2     -12.862   6.599 129.184  0.00  0.00    +0.000 A 
ATOM     17  C   UNK A   2     -11.630   6.170 129.621  0.00  0.00    +0.000 A 
ATOM     18  C   UNK A   2     -11.336   4.841 130.197  0.00  0.00    +0.000 C 
ENDBRANCH   4  10
BRANCH   1  19
ATOM     19  C   UNK A   0      -6.967   1.950 128.009  0.00  0.00    +0.000 C 
BRANCH  19  24
ATOM     20  C   UNK A   0      -8.179  -3.249 125.597  0.00  0.00    +0.000 C 
ATOM     21  C   UNK A   0      -7.789  -1.883 126.083  0.00  0.00    +0.000 A 
ATOM     22  C   UNK A   0      -8.757  -0.907 126.076  0.00  0.00    +0.000 A 
ATOM     23  C   UNK A   0      -8.456   0.403 126.476  0.00  0.00    +0.000 A 
ATOM     24  C   UNK A   0      -7.207   0.686 127.063  0.00  0.00    +0.000 A 
ATOM     25  C   UNK A   0      -6.267  -0.340 126.906  0.00  0.00    +0.000 A 
ATOM     26  N   UNK A   0      -6.521  -1.598 126.426  0.00  0.00    +0.000 NA
ENDBRANCH  19  24
BRANCH  19  27
ATOM     27  C   UNK A   0      -5.355   2.122 128.216  0.00  0.00    +0.000 C 
ATOM     28  O   UNK A   0      -4.845   1.575 129.209  0.00  0.00    +0.000 OA
ATOM     29  N   UNK A   0      -4.496   2.810 127.368  0.00  0.00    +0.000 N 
ATOM     30  C   UNK A   0      -4.773   3.269 126.055  0.00  0.00    +0.000 C 
ATOM     31  C   UNK A   0      -3.083   2.876 127.652  0.00  0.00    +0.000 C 
ENDBRANCH  19  27
ENDBRANCH   1  19
BRANCH   8  32
ATOM     32  CB  LEU A   1      -8.162  -0.156 130.069  0.00  0.00    +0.000 C 
BRANCH  32  33
ATOM     33  CG  LEU A   1      -7.070  -1.172 130.456  0.00  0.00    +0.000 C 
ATOM     34  CD1 LEU A   1      -6.945  -1.342 131.998  0.00  0.00    +0.000 C 
ATOM     35  CD2 LEU A   1      -7.228  -2.581 129.911  0.00  0.00    +0.000 C 
ENDBRANCH  32  33
ENDBRANCH   8  32
TORSDOF 6
ENDMDL
