MODEL 1
REMARK VINA RESULT:     -11.2      0.000      0.000
REMARK  Name = CHEMBL2172289
REMARK  30 active torsions:
REMARK  status: ('A' for Active; 'I' for Inactive)
REMARK    1  A    between atoms: C_1  and  C_2
REMARK    2  A    between atoms: C_2  and  N_3
REMARK    3  A    between atoms: C_5  and  C_6
REMARK    4  A    between atoms: C_7  and  C_8
REMARK    5  A    between atoms: C_9  and  C_10
REMARK    6  A    between atoms: N_11  and  C_12
REMARK    7  A    between atoms: C_12  and  C_13
REMARK    8  A    between atoms: C_17  and  S_18
REMARK    9  A    between atoms: C_24  and  C_25
REMARK   10  A    between atoms: C_24  and  C_26
REMARK   11  A    between atoms: C_27  and  C_28
REMARK   12  A    between atoms: C_27  and  C_29
REMARK   13  A    between atoms: C_29  and  C_30
REMARK   14  A    between atoms: C_30  and  C_31
REMARK   15  A    between atoms: C_31  and  C_32
REMARK   16  A    between atoms: N_34  and  C_35
REMARK   17  A    between atoms: C_35  and  C_36
REMARK   18  A    between atoms: C_36  and  N_37
REMARK   19  A    between atoms: C_39  and  C_40
REMARK   20  A    between atoms: C_40  and  N_41
REMARK   21  A    between atoms: C_42  and  C_44
REMARK   22  A    between atoms: C_44  and  C_45
REMARK   23  A    between atoms: C_45  and  C_46
REMARK   24  A    between atoms: N_48  and  C_49
REMARK   25  A    between atoms: C_54  and  C_56
REMARK   26  A    between atoms: C_59  and  N_60
REMARK   27  A    between atoms: C_61  and  C_63
REMARK   28  A    between atoms: C_68  and  C_69
REMARK   29  A    between atoms: C_87  and  S_88
REMARK   30  A    between atoms: S_88  and  O_91
REMARK                            x       y       z     vdW  Elec       q    Type
REMARK                         _______ _______ _______ _____ _____    ______ ____
ROOT
ATOM      1  N   UNL     1      -8.006   5.346 132.054  0.00  0.00    +0.000 N 
ATOM      2  C   UNL     1      -8.367   5.643 133.328  0.00  0.00    +0.000 A 
ATOM      3  C   UNL     1      -7.422   5.048 134.130  0.00  0.00    +0.000 A 
ATOM      4  N   UNL     1      -6.514   4.413 133.309  0.00  0.00    +0.000 NA
ATOM      5  N   UNL     1      -6.887   4.603 132.040  0.00  0.00    +0.000 NA
ENDROOT
BRANCH   3   6
ATOM      6  C   UNL     1      -7.345   5.056 135.630  0.00  0.00    +0.000 C 
BRANCH   6   7
ATOM      7  N   UNL     1      -8.047   6.236 136.219  0.00  0.00    +0.000 N 
ATOM      8  C   UNL     1      -7.954   6.559 137.578  0.00  0.00    +0.000 C 
ATOM      9  O   UNL     1      -7.277   5.858 138.326  0.00  0.00    +0.000 OA
ATOM     10  H   UNL     1      -8.595   6.800 135.587  0.00  0.00    +0.000 HD
BRANCH   8  11
ATOM     11  C   UNL     1      -8.736   7.840 138.146  0.00  0.00    +0.000 C 
BRANCH  11  12
ATOM     12  C   UNL     1      -7.754   9.047 139.054  0.00  0.00    +0.000 C 
BRANCH  12  13
ATOM     13  C   UNL     1      -5.872   9.355 138.627  0.00  0.00    +0.000 C 
ATOM     14  O   UNL     1      -5.320   8.642 139.513  0.00  0.00    +0.000 OA
ATOM     15  N   UNL     1      -5.042  10.289 137.270  0.00  0.00    +0.000 N 
ATOM     16  H   UNL     1      -5.962  10.806 137.294  0.00  0.00    +0.000 HD
BRANCH  15  17
ATOM     17  C   UNL     1      -3.502  10.978 136.130  0.00  0.00    +0.000 C 
ATOM     18  C   UNL     1      -3.184  11.280 137.526  0.00  0.00    +0.000 C 
ATOM     19  C   UNL     1      -2.220  10.345 136.834  0.00  0.00    +0.000 C 
ATOM     20  C   UNL     1      -1.275  11.310 137.106  0.00  0.00    +0.000 C 
ATOM     21  N   UNL     1      -0.274  10.501 136.179  0.00  0.00    +0.000 N 
ATOM     22  C   UNL     1      -0.422   9.613 134.863  0.00  0.00    +0.000 C 
ATOM     23  O   UNL     1       0.459   9.542 133.995  0.00  0.00    +0.000 OA
ATOM     24  C   UNL     1      -0.187  11.737 135.760  0.00  0.00    +0.000 A 
ATOM     25  C   UNL     1       1.081  12.534 136.674  0.00  0.00    +0.000 A 
ATOM     26  C   UNL     1       1.818  13.639 136.420  0.00  0.00    +0.000 A 
ATOM     27  C   UNL     1       1.492  13.705 135.140  0.00  0.00    +0.000 A 
ATOM     28  C   UNL     1      -0.127  12.876 134.667  0.00  0.00    +0.000 A 
ATOM     29  C   UNL     1      -1.681  11.914 135.061  0.00  0.00    +0.000 A 
BRANCH  22  30
ATOM     30  C   UNL     1      -1.656   8.658 134.641  0.00  0.00    +0.000 A 
ATOM     31  C   UNL     1      -2.185   7.552 135.453  0.00  0.00    +0.000 A 
ATOM     32  C   UNL     1      -2.593   6.347 134.832  0.00  0.00    +0.000 A 
ATOM     33  C   UNL     1      -2.984   6.427 133.541  0.00  0.00    +0.000 A 
ATOM     34  C   UNL     1      -2.896   7.693 132.952  0.00  0.00    +0.000 A 
ATOM     35  C   UNL     1      -2.084   8.726 133.373  0.00  0.00    +0.000 A 
BRANCH  33  36
ATOM     36  N   UNL     1      -3.580   5.307 132.932  0.00  0.00    +0.000 N 
ATOM     37  C   UNL     1      -2.798   4.362 132.294  0.00  0.00    +0.000 C 
ATOM     38  O   UNL     1      -1.574   4.399 132.224  0.00  0.00    +0.000 OA
ATOM     39  H   UNL     1      -4.599   5.214 132.984  0.00  0.00    +0.000 HD
BRANCH  37  40
ATOM     40  C   UNL     1      -3.451   3.199 131.657  0.00  0.00    +0.000 A 
ATOM     41  C   UNL     1      -3.668   2.009 132.358  0.00  0.00    +0.000 A 
ATOM     42  C   UNL     1      -4.101   0.871 131.679  0.00  0.00    +0.000 A 
ATOM     43  C   UNL     1      -4.563   0.980 130.380  0.00  0.00    +0.000 A 
ATOM     44  C   UNL     1      -4.604   2.233 129.776  0.00  0.00    +0.000 A 
ATOM     45  C   UNL     1      -3.932   3.329 130.340  0.00  0.00    +0.000 A 
BRANCH  45  46
ATOM     46  C   UNL     1      -3.724   4.560 129.560  0.00  0.00    +0.000 A 
ATOM     47  C   UNL     1      -2.742   4.633 128.555  0.00  0.00    +0.000 A 
ATOM     48  C   UNL     1      -2.313   5.862 128.062  0.00  0.00    +0.000 A 
ATOM     49  C   UNL     1      -3.033   6.999 128.367  0.00  0.00    +0.000 A 
ATOM     50  C   UNL     1      -4.170   6.894 129.159  0.00  0.00    +0.000 A 
ATOM     51  C   UNL     1      -4.438   5.716 129.852  0.00  0.00    +0.000 A 
ENDBRANCH  45  46
ENDBRANCH  37  40
ENDBRANCH  33  36
ENDBRANCH  22  30
ENDBRANCH  15  17
ENDBRANCH  12  13
ENDBRANCH  11  12
ENDBRANCH   8  11
ENDBRANCH   6   7
ENDBRANCH   3   6
BRANCH   1  52
ATOM     52  C   UNL     1      -8.686   5.756 130.843  0.00  0.00    +0.000 C 
BRANCH  52  53
ATOM     53  C   UNL     1      -9.831   4.826 130.476  0.00  0.00    +0.000 C 
BRANCH  53  56
ATOM     54  C   UNL     1      -8.900   2.753 129.506  0.00  0.00    +0.000 C 
ATOM     55  O   UNL     1      -8.679   3.323 128.441  0.00  0.00    +0.000 OA
ATOM     56  N   UNL     1      -9.473   3.407 130.578  0.00  0.00    +0.000 N 
ATOM     57  H   UNL     1      -9.636   2.921 131.449  0.00  0.00    +0.000 HD
BRANCH  54  58
ATOM     58  C   UNL     1      -8.546   1.284 129.730  0.00  0.00    +0.000 C 
BRANCH  58  59
ATOM     59  C   UNL     1      -7.607   0.840 128.650  0.00  0.00    +0.000 C 
BRANCH  59  60
ATOM     60  C   UNL     1      -8.267   0.168 127.465  0.00  0.00    +0.000 C 
BRANCH  60  64
ATOM     61  N   UNL     1      -8.032  -1.005 124.187  0.00  0.00    +0.000 N 
ATOM     62  C   UNL     1      -7.743  -1.475 125.577  0.00  0.00    +0.000 C 
ATOM     63  C   UNL     1      -7.768  -2.653 126.298  0.00  0.00    +0.000 C 
ATOM     64  C   UNL     1      -7.283  -0.214 126.346  0.00  0.00    +0.000 C 
ATOM     65  C   UNL     1      -5.811  -0.317 126.706  0.00  0.00    +0.000 C 
ATOM     66  C   UNL     1      -7.318   0.890 125.340  0.00  0.00    +0.000 A 
ATOM     67  C   UNL     1      -6.899   2.219 125.642  0.00  0.00    +0.000 A 
ATOM     68  C   UNL     1      -7.049   3.237 124.757  0.00  0.00    +0.000 A 
ATOM     69  C   UNL     1      -7.481   2.854 123.499  0.00  0.00    +0.000 A 
ATOM     70  C   UNL     1      -7.809   1.456 123.179  0.00  0.00    +0.000 A 
ATOM     71  C   UNL     1      -7.762   0.419 124.119  0.00  0.00    +0.000 A 
BRANCH  68  72
ATOM     72  S   UNL     1      -6.615   4.889 125.303  0.00  0.00    +0.000 S 
ATOM     73  O   UNL     1      -6.147   4.800 126.672  0.00  0.00    +0.000 OA
ATOM     74  O   UNL     1      -5.796   5.487 124.271  0.00  0.00    +0.000 OA
BRANCH  72  75
ATOM     75  O   UNL     1      -8.028   5.682 125.338  0.00  0.00    +0.000 OA
ATOM     76  H   UNL     1      -8.776   5.114 125.064  0.00  0.00    +0.000 HD
ENDBRANCH  72  75
ENDBRANCH  68  72
BRANCH  63  77
ATOM     77  C   UNL     1      -7.419  -2.853 127.757  0.00  0.00    +0.000 C 
ATOM     78  C   UNL     1      -8.276  -3.037 128.779  0.00  0.00    +0.000 C 
BRANCH  78  79
ATOM     79  C   UNL     1      -7.775  -3.220 130.131  0.00  0.00    +0.000 C 
ATOM     80  C   UNL     1      -6.631  -2.779 130.651  0.00  0.00    +0.000 C 
BRANCH  80  81
ATOM     81  C   UNL     1      -5.775  -2.782 131.944  0.00  0.00    +0.000 C 
ATOM     82  N   UNL     1      -5.943  -2.002 132.951  0.00  0.00    +0.000 N 
ATOM     83  C   UNL     1      -4.903  -2.030 133.927  0.00  0.00    +0.000 A 
ATOM     84  C   UNL     1      -3.484  -1.942 133.748  0.00  0.00    +0.000 A 
ATOM     85  C   UNL     1      -2.456  -2.539 134.624  0.00  0.00    +0.000 A 
ATOM     86  C   UNL     1      -2.810  -2.983 135.849  0.00  0.00    +0.000 A 
ATOM     87  C   UNL     1      -4.160  -3.218 135.781  0.00  0.00    +0.000 A 
ATOM     88  C   UNL     1      -4.941  -3.278 134.302  0.00  0.00    +0.000 A 
ATOM     89  C   UNL     1      -4.512  -3.558 132.378  0.00  0.00    +0.000 C 
ATOM     90  C   UNL     1      -4.385  -4.994 132.643  0.00  0.00    +0.000 C 
ATOM     91  C   UNL     1      -4.362  -4.061 130.594  0.00  0.00    +0.000 C 
BRANCH  86  92
ATOM     92  S   UNL     1      -1.535  -3.449 137.135  0.00  0.00    +0.000 S 
ATOM     93  O   UNL     1      -0.622  -2.317 137.026  0.00  0.00    +0.000 OA
ATOM     94  O   UNL     1      -2.314  -3.487 138.372  0.00  0.00    +0.000 OA
ATOM     95  O   UNL     1      -0.995  -4.736 136.709  0.00  0.00    +0.000 OA
ENDBRANCH  86  92
BRANCH  82  96
ATOM     96  C   UNL     1      -7.199  -1.418 133.401  0.00  0.00    +0.000 C 
ATOM     97  C   UNL     1      -7.312  -0.035 132.877  0.00  0.00    +0.000 C 
ENDBRANCH  82  96
ENDBRANCH  80  81
ENDBRANCH  78  79
ENDBRANCH  63  77
BRANCH  61  99
ATOM     98  C   UNL     1      -9.325  -3.063 123.398  0.00  0.00    +0.000 C 
ATOM     99  C   UNL     1      -8.556  -1.799 122.992  0.00  0.00    +0.000 C 
ENDBRANCH  61  99
ENDBRANCH  60  64
ENDBRANCH  59  60
ENDBRANCH  58  59
ENDBRANCH  54  58
ENDBRANCH  53  56
ENDBRANCH  52  53
ENDBRANCH   1  52
TORSDOF 25
ENDMDL
MODEL 2
REMARK VINA RESULT:     -11.1      1.444      2.476
REMARK  Name = CHEMBL2172289
REMARK  30 active torsions:
REMARK  status: ('A' for Active; 'I' for Inactive)
REMARK    1  A    between atoms: C_1  and  C_2
REMARK    2  A    between atoms: C_2  and  N_3
REMARK    3  A    between atoms: C_5  and  C_6
REMARK    4  A    between atoms: C_7  and  C_8
REMARK    5  A    between atoms: C_9  and  C_10
REMARK    6  A    between atoms: N_11  and  C_12
REMARK    7  A    between atoms: C_12  and  C_13
REMARK    8  A    between atoms: C_17  and  S_18
REMARK    9  A    between atoms: C_24  and  C_25
REMARK   10  A    between atoms: C_24  and  C_26
REMARK   11  A    between atoms: C_27  and  C_28
REMARK   12  A    between atoms: C_27  and  C_29
REMARK   13  A    between atoms: C_29  and  C_30
REMARK   14  A    between atoms: C_30  and  C_31
REMARK   15  A    between atoms: C_31  and  C_32
REMARK   16  A    between atoms: N_34  and  C_35
REMARK   17  A    between atoms: C_35  and  C_36
REMARK   18  A    between atoms: C_36  and  N_37
REMARK   19  A    between atoms: C_39  and  C_40
REMARK   20  A    between atoms: C_40  and  N_41
REMARK   21  A    between atoms: C_42  and  C_44
REMARK   22  A    between atoms: C_44  and  C_45
REMARK   23  A    between atoms: C_45  and  C_46
REMARK   24  A    between atoms: N_48  and  C_49
REMARK   25  A    between atoms: C_54  and  C_56
REMARK   26  A    between atoms: C_59  and  N_60
REMARK   27  A    between atoms: C_61  and  C_63
REMARK   28  A    between atoms: C_68  and  C_69
REMARK   29  A    between atoms: C_87  and  S_88
REMARK   30  A    between atoms: S_88  and  O_91
REMARK                            x       y       z     vdW  Elec       q    Type
REMARK                         _______ _______ _______ _____ _____    ______ ____
ROOT
ATOM      1  N   UNL     1      -9.591   5.722 131.249  0.00  0.00    +0.000 N 
ATOM      2  C   UNL     1      -8.844   5.412 132.339  0.00  0.00    +0.000 A 
ATOM      3  C   UNL     1      -7.675   6.124 132.201  0.00  0.00    +0.000 A 
ATOM      4  N   UNL     1      -7.758   6.846 131.030  0.00  0.00    +0.000 NA
ATOM      5  N   UNL     1      -8.938   6.588 130.456  0.00  0.00    +0.000 NA
ENDROOT
BRANCH   3   6
ATOM      6  C   UNL     1      -6.492   6.146 133.126  0.00  0.00    +0.000 C 
BRANCH   6   7
ATOM      7  N   UNL     1      -6.853   5.699 134.506  0.00  0.00    +0.000 N 
ATOM      8  C   UNL     1      -5.890   5.498 135.502  0.00  0.00    +0.000 C 
ATOM      9  O   UNL     1      -4.702   5.691 135.250  0.00  0.00    +0.000 OA
ATOM     10  H   UNL     1      -7.832   5.550 134.692  0.00  0.00    +0.000 HD
BRANCH   8  11
ATOM     11  C   UNL     1      -6.346   5.015 136.962  0.00  0.00    +0.000 C 
BRANCH  11  12
ATOM     12  C   UNL     1      -6.559   6.300 138.207  0.00  0.00    +0.000 C 
BRANCH  12  13
ATOM     13  C   UNL     1      -5.724   8.056 138.008  0.00  0.00    +0.000 C 
ATOM     14  O   UNL     1      -6.084   8.600 139.090  0.00  0.00    +0.000 OA
ATOM     15  N   UNL     1      -4.609   8.764 136.720  0.00  0.00    +0.000 N 
ATOM     16  H   UNL     1      -5.094   8.027 136.139  0.00  0.00    +0.000 HD
BRANCH  15  17
ATOM     17  C   UNL     1      -3.384  10.131 135.838  0.00  0.00    +0.000 C 
ATOM     18  C   UNL     1      -3.191  10.237 137.284  0.00  0.00    +0.000 C 
ATOM     19  C   UNL     1      -1.967   9.826 136.501  0.00  0.00    +0.000 C 
ATOM     20  C   UNL     1      -1.401  10.972 137.012  0.00  0.00    +0.000 C 
ATOM     21  N   UNL     1      -0.183  10.736 136.023  0.00  0.00    +0.000 N 
ATOM     22  C   UNL     1      -0.020  10.128 134.558  0.00  0.00    +0.000 C 
ATOM     23  O   UNL     1       0.838  10.523 133.756  0.00  0.00    +0.000 OA
ATOM     24  C   UNL     1      -0.512  11.990 135.849  0.00  0.00    +0.000 A 
ATOM     25  C   UNL     1       0.412  12.959 136.981  0.00  0.00    +0.000 A 
ATOM     26  C   UNL     1       0.737  14.272 136.989  0.00  0.00    +0.000 A 
ATOM     27  C   UNL     1       0.414  14.480 135.724  0.00  0.00    +0.000 A 
ATOM     28  C   UNL     1      -0.833  13.278 134.993  0.00  0.00    +0.000 A 
ATOM     29  C   UNL     1      -1.977  11.803 135.092  0.00  0.00    +0.000 A 
BRANCH  22  30
ATOM     30  C   UNL     1      -0.862   8.887 134.078  0.00  0.00    +0.000 A 
ATOM     31  C   UNL     1      -0.823   7.473 134.480  0.00  0.00    +0.000 A 
ATOM     32  C   UNL     1      -0.887   6.453 133.501  0.00  0.00    +0.000 A 
ATOM     33  C   UNL     1      -1.500   6.762 132.337  0.00  0.00    +0.000 A 
ATOM     34  C   UNL     1      -1.962   8.077 132.218  0.00  0.00    +0.000 A 
ATOM     35  C   UNL     1      -1.501   9.164 132.932  0.00  0.00    +0.000 A 
BRANCH  33  36
ATOM     36  N   UNL     1      -1.764   5.740 131.405  0.00  0.00    +0.000 N 
ATOM     37  C   UNL     1      -3.058   5.499 130.982  0.00  0.00    +0.000 C 
ATOM     38  O   UNL     1      -4.042   6.136 131.345  0.00  0.00    +0.000 OA
ATOM     39  H   UNL     1      -0.973   5.195 131.050  0.00  0.00    +0.000 HD
BRANCH  37  40
ATOM     40  C   UNL     1      -3.307   4.416 130.008  0.00  0.00    +0.000 A 
ATOM     41  C   UNL     1      -3.021   4.577 128.650  0.00  0.00    +0.000 A 
ATOM     42  C   UNL     1      -3.448   3.619 127.731  0.00  0.00    +0.000 A 
ATOM     43  C   UNL     1      -3.918   2.398 128.179  0.00  0.00    +0.000 A 
ATOM     44  C   UNL     1      -3.940   2.138 129.546  0.00  0.00    +0.000 A 
ATOM     45  C   UNL     1      -3.769   3.173 130.481  0.00  0.00    +0.000 A 
BRANCH  45  46
ATOM     46  C   UNL     1      -4.089   2.957 131.901  0.00  0.00    +0.000 A 
ATOM     47  C   UNL     1      -3.075   2.750 132.855  0.00  0.00    +0.000 A 
ATOM     48  C   UNL     1      -3.370   2.214 134.106  0.00  0.00    +0.000 A 
ATOM     49  C   UNL     1      -4.687   2.129 134.510  0.00  0.00    +0.000 A 
ATOM     50  C   UNL     1      -5.691   2.579 133.661  0.00  0.00    +0.000 A 
ATOM     51  C   UNL     1      -5.408   2.867 132.328  0.00  0.00    +0.000 A 
ENDBRANCH  45  46
ENDBRANCH  37  40
ENDBRANCH  33  36
ENDBRANCH  22  30
ENDBRANCH  15  17
ENDBRANCH  12  13
ENDBRANCH  11  12
ENDBRANCH   8  11
ENDBRANCH   6   7
ENDBRANCH   3   6
BRANCH   1  52
ATOM     52  C   UNL     1     -10.916   5.227 130.940  0.00  0.00    +0.000 C 
BRANCH  52  53
ATOM     53  C   UNL     1     -10.893   3.819 130.369  0.00  0.00    +0.000 C 
BRANCH  53  56
ATOM     54  C   UNL     1      -8.858   2.420 130.290  0.00  0.00    +0.000 C 
ATOM     55  O   UNL     1      -9.242   1.766 131.256  0.00  0.00    +0.000 OA
ATOM     56  N   UNL     1      -9.601   3.462 129.774  0.00  0.00    +0.000 N 
ATOM     57  H   UNL     1      -9.271   3.980 128.971  0.00  0.00    +0.000 HD
BRANCH  54  58
ATOM     58  C   UNL     1      -7.540   2.120 129.578  0.00  0.00    +0.000 C 
BRANCH  58  59
ATOM     59  C   UNL     1      -7.486   0.659 129.249  0.00  0.00    +0.000 C 
BRANCH  59  60
ATOM     60  C   UNL     1      -8.287   0.248 128.032  0.00  0.00    +0.000 C 
BRANCH  60  64
ATOM     61  N   UNL     1      -8.375  -1.087 124.810  0.00  0.00    +0.000 N 
ATOM     62  C   UNL     1      -7.950  -1.489 126.187  0.00  0.00    +0.000 C 
ATOM     63  C   UNL     1      -7.904  -2.630 126.965  0.00  0.00    +0.000 C 
ATOM     64  C   UNL     1      -7.418  -0.193 126.843  0.00  0.00    +0.000 C 
ATOM     65  C   UNL     1      -5.917  -0.285 127.061  0.00  0.00    +0.000 C 
ATOM     66  C   UNL     1      -7.551   0.860 125.791  0.00  0.00    +0.000 A 
ATOM     67  C   UNL     1      -7.106   2.200 125.983  0.00  0.00    +0.000 A 
ATOM     68  C   UNL     1      -7.342   3.173 125.068  0.00  0.00    +0.000 A 
ATOM     69  C   UNL     1      -7.896   2.730 123.879  0.00  0.00    +0.000 A 
ATOM     70  C   UNL     1      -8.253   1.319 123.663  0.00  0.00    +0.000 A 
ATOM     71  C   UNL     1      -8.113   0.330 124.644  0.00  0.00    +0.000 A 
BRANCH  68  72
ATOM     72  S   UNL     1      -6.857   4.849 125.486  0.00  0.00    +0.000 S 
ATOM     73  O   UNL     1      -6.399   4.852 126.860  0.00  0.00    +0.000 OA
ATOM     74  O   UNL     1      -6.014   5.336 124.416  0.00  0.00    +0.000 OA
BRANCH  72  75
ATOM     75  O   UNL     1      -8.244   5.686 125.447  0.00  0.00    +0.000 OA
ATOM     76  H   UNL     1      -8.396   6.108 124.578  0.00  0.00    +0.000 HD
ENDBRANCH  72  75
ENDBRANCH  68  72
BRANCH  63  77
ATOM     77  C   UNL     1      -7.412  -2.759 128.390  0.00  0.00    +0.000 C 
ATOM     78  C   UNL     1      -8.140  -3.095 129.472  0.00  0.00    +0.000 C 
BRANCH  78  79
ATOM     79  C   UNL     1      -7.512  -3.180 130.780  0.00  0.00    +0.000 C 
ATOM     80  C   UNL     1      -6.268  -2.842 131.119  0.00  0.00    +0.000 C 
BRANCH  80  81
ATOM     81  C   UNL     1      -5.274  -2.807 132.308  0.00  0.00    +0.000 C 
ATOM     82  N   UNL     1      -5.186  -3.697 133.230  0.00  0.00    +0.000 N 
ATOM     83  C   UNL     1      -4.361  -3.345 134.342  0.00  0.00    +0.000 A 
ATOM     84  C   UNL     1      -4.348  -2.143 135.120  0.00  0.00    +0.000 A 
ATOM     85  C   UNL     1      -3.181  -1.571 135.821  0.00  0.00    +0.000 A 
ATOM     86  C   UNL     1      -2.082  -2.336 136.005  0.00  0.00    +0.000 A 
ATOM     87  C   UNL     1      -2.147  -3.312 135.043  0.00  0.00    +0.000 A 
ATOM     88  C   UNL     1      -3.209  -3.173 133.757  0.00  0.00    +0.000 A 
ATOM     89  C   UNL     1      -4.243  -1.768 132.798  0.00  0.00    +0.000 C 
ATOM     90  C   UNL     1      -3.005  -1.348 132.135  0.00  0.00    +0.000 C 
ATOM     91  C   UNL     1      -5.059  -0.587 131.616  0.00  0.00    +0.000 C 
BRANCH  86  92
ATOM     92  S   UNL     1      -0.699  -1.815 137.150  0.00  0.00    +0.000 S 
ATOM     93  O   UNL     1      -0.476  -3.058 137.880  0.00  0.00    +0.000 OA
ATOM     94  O   UNL     1       0.373  -1.449 136.226  0.00  0.00    +0.000 OA
ATOM     95  O   UNL     1      -1.234  -0.710 137.940  0.00  0.00    +0.000 OA
ENDBRANCH  86  92
BRANCH  82  96
ATOM     96  C   UNL     1      -5.481  -5.117 133.104  0.00  0.00    +0.000 C 
ATOM     97  C   UNL     1      -6.369  -5.534 134.217  0.00  0.00    +0.000 C 
ENDBRANCH  82  96
ENDBRANCH  80  81
ENDBRANCH  78  79
ENDBRANCH  63  77
BRANCH  61  99
ATOM     98  C   UNL     1      -8.087  -2.169 122.513  0.00  0.00    +0.000 C 
ATOM     99  C   UNL     1      -9.013  -1.938 123.713  0.00  0.00    +0.000 C 
ENDBRANCH  61  99
ENDBRANCH  60  64
ENDBRANCH  59  60
ENDBRANCH  58  59
ENDBRANCH  54  58
ENDBRANCH  53  56
ENDBRANCH  52  53
ENDBRANCH   1  52
TORSDOF 25
ENDMDL
MODEL 3
REMARK VINA RESULT:     -10.9      3.507     12.182
REMARK  Name = CHEMBL2172289
REMARK  30 active torsions:
REMARK  status: ('A' for Active; 'I' for Inactive)
REMARK    1  A    between atoms: C_1  and  C_2
REMARK    2  A    between atoms: C_2  and  N_3
REMARK    3  A    between atoms: C_5  and  C_6
REMARK    4  A    between atoms: C_7  and  C_8
REMARK    5  A    between atoms: C_9  and  C_10
REMARK    6  A    between atoms: N_11  and  C_12
REMARK    7  A    between atoms: C_12  and  C_13
REMARK    8  A    between atoms: C_17  and  S_18
REMARK    9  A    between atoms: C_24  and  C_25
REMARK   10  A    between atoms: C_24  and  C_26
REMARK   11  A    between atoms: C_27  and  C_28
REMARK   12  A    between atoms: C_27  and  C_29
REMARK   13  A    between atoms: C_29  and  C_30
REMARK   14  A    between atoms: C_30  and  C_31
REMARK   15  A    between atoms: C_31  and  C_32
REMARK   16  A    between atoms: N_34  and  C_35
REMARK   17  A    between atoms: C_35  and  C_36
REMARK   18  A    between atoms: C_36  and  N_37
REMARK   19  A    between atoms: C_39  and  C_40
REMARK   20  A    between atoms: C_40  and  N_41
REMARK   21  A    between atoms: C_42  and  C_44
REMARK   22  A    between atoms: C_44  and  C_45
REMARK   23  A    between atoms: C_45  and  C_46
REMARK   24  A    between atoms: N_48  and  C_49
REMARK   25  A    between atoms: C_54  and  C_56
REMARK   26  A    between atoms: C_59  and  N_60
REMARK   27  A    between atoms: C_61  and  C_63
REMARK   28  A    between atoms: C_68  and  C_69
REMARK   29  A    between atoms: C_87  and  S_88
REMARK   30  A    between atoms: S_88  and  O_91
REMARK                            x       y       z     vdW  Elec       q    Type
REMARK                         _______ _______ _______ _____ _____    ______ ____
ROOT
ATOM      1  N   UNL     1      -2.743   6.312 132.819  0.00  0.00    +0.000 N 
ATOM      2  C   UNL     1      -2.454   7.058 131.723  0.00  0.00    +0.000 A 
ATOM      3  C   UNL     1      -2.351   6.165 130.683  0.00  0.00    +0.000 A 
ATOM      4  N   UNL     1      -2.587   4.903 131.188  0.00  0.00    +0.000 NA
ATOM      5  N   UNL     1      -2.824   5.009 132.499  0.00  0.00    +0.000 NA
ENDROOT
BRANCH   3   6
ATOM      6  C   UNL     1      -2.039   6.454 129.243  0.00  0.00    +0.000 C 
BRANCH   6   7
ATOM      7  N   UNL     1      -2.429   5.321 128.349  0.00  0.00    +0.000 N 
ATOM      8  C   UNL     1      -3.578   5.361 127.551  0.00  0.00    +0.000 C 
ATOM      9  O   UNL     1      -4.304   6.353 127.575  0.00  0.00    +0.000 OA
ATOM     10  H   UNL     1      -1.819   4.518 128.342  0.00  0.00    +0.000 HD
BRANCH   8  11
ATOM     11  C   UNL     1      -3.939   4.108 126.615  0.00  0.00    +0.000 C 
BRANCH  11  12
ATOM     12  C   UNL     1      -3.234   2.519 127.088  0.00  0.00    +0.000 C 
BRANCH  12  13
ATOM     13  C   UNL     1      -3.914   1.521 128.625  0.00  0.00    +0.000 C 
ATOM     14  O   UNL     1      -4.285   2.475 129.366  0.00  0.00    +0.000 OA
ATOM     15  N   UNL     1      -4.117  -0.284 128.944  0.00  0.00    +0.000 N 
ATOM     16  H   UNL     1      -3.338  -0.324 128.232  0.00  0.00    +0.000 HD
BRANCH  15  17
ATOM     17  C   UNL     1      -4.691  -1.965 129.940  0.00  0.00    +0.000 C 
ATOM     18  C   UNL     1      -3.810  -1.207 130.829  0.00  0.00    +0.000 C 
ATOM     19  C   UNL     1      -5.222  -1.397 131.331  0.00  0.00    +0.000 C 
ATOM     20  C   UNL     1      -4.631  -2.046 132.391  0.00  0.00    +0.000 C 
ATOM     21  N   UNL     1      -6.083  -2.498 132.843  0.00  0.00    +0.000 N 
ATOM     22  C   UNL     1      -7.433  -2.880 132.085  0.00  0.00    +0.000 C 
ATOM     23  O   UNL     1      -8.239  -3.713 132.522  0.00  0.00    +0.000 OA
ATOM     24  C   UNL     1      -5.372  -3.596 132.869  0.00  0.00    +0.000 A 
ATOM     25  C   UNL     1      -4.672  -3.754 134.469  0.00  0.00    +0.000 A 
ATOM     26  C   UNL     1      -4.186  -4.824 135.139  0.00  0.00    +0.000 A 
ATOM     27  C   UNL     1      -4.715  -5.721 134.326  0.00  0.00    +0.000 A 
ATOM     28  C   UNL     1      -5.090  -5.124 132.584  0.00  0.00    +0.000 A 
ATOM     29  C   UNL     1      -5.125  -3.821 131.244  0.00  0.00    +0.000 A 
BRANCH  22  30
ATOM     30  C   UNL     1      -7.896  -2.122 130.784  0.00  0.00    +0.000 A 
ATOM     31  C   UNL     1      -8.066  -2.587 129.399  0.00  0.00    +0.000 A 
ATOM     32  C   UNL     1      -7.605  -1.793 128.321  0.00  0.00    +0.000 A 
ATOM     33  C   UNL     1      -7.523  -0.462 128.534  0.00  0.00    +0.000 A 
ATOM     34  C   UNL     1      -7.861  -0.026 129.821  0.00  0.00    +0.000 A 
ATOM     35  C   UNL     1      -7.844  -0.795 130.966  0.00  0.00    +0.000 A 
BRANCH  33  36
ATOM     36  N   UNL     1      -7.258   0.395 127.450  0.00  0.00    +0.000 N 
ATOM     37  C   UNL     1      -8.248   0.680 126.528  0.00  0.00    +0.000 C 
ATOM     38  O   UNL     1      -9.396   0.251 126.581  0.00  0.00    +0.000 OA
ATOM     39  H   UNL     1      -6.321   0.802 127.374  0.00  0.00    +0.000 HD
BRANCH  37  40
ATOM     40  C   UNL     1      -7.940   1.578 125.395  0.00  0.00    +0.000 A 
ATOM     41  C   UNL     1      -7.998   2.967 125.529  0.00  0.00    +0.000 A 
ATOM     42  C   UNL     1      -7.898   3.780 124.401  0.00  0.00    +0.000 A 
ATOM     43  C   UNL     1      -7.485   3.237 123.198  0.00  0.00    +0.000 A 
ATOM     44  C   UNL     1      -7.158   1.886 123.138  0.00  0.00    +0.000 A 
ATOM     45  C   UNL     1      -7.505   1.012 124.181  0.00  0.00    +0.000 A 
BRANCH  45  46
ATOM     46  C   UNL     1      -7.432  -0.446 123.990  0.00  0.00    +0.000 A 
ATOM     47  C   UNL     1      -8.532  -1.175 123.502  0.00  0.00    +0.000 A 
ATOM     48  C   UNL     1      -8.590  -2.560 123.641  0.00  0.00    +0.000 A 
ATOM     49  C   UNL     1      -7.455  -3.247 124.020  0.00  0.00    +0.000 A 
ATOM     50  C   UNL     1      -6.279  -2.545 124.256  0.00  0.00    +0.000 A 
ATOM     51  C   UNL     1      -6.299  -1.157 124.366  0.00  0.00    +0.000 A 
ENDBRANCH  45  46
ENDBRANCH  37  40
ENDBRANCH  33  36
ENDBRANCH  22  30
ENDBRANCH  15  17
ENDBRANCH  12  13
ENDBRANCH  11  12
ENDBRANCH   8  11
ENDBRANCH   6   7
ENDBRANCH   3   6
BRANCH   1  52
ATOM     52  C   UNL     1      -2.956   6.799 134.166  0.00  0.00    +0.000 C 
BRANCH  52  53
ATOM     53  C   UNL     1      -4.262   6.301 134.764  0.00  0.00    +0.000 C 
BRANCH  53  56
ATOM     54  C   UNL     1      -5.062   4.847 136.594  0.00  0.00    +0.000 C 
ATOM     55  O   UNL     1      -6.104   5.491 136.682  0.00  0.00    +0.000 OA
ATOM     56  N   UNL     1      -4.081   5.169 135.678  0.00  0.00    +0.000 N 
ATOM     57  H   UNL     1      -3.236   4.619 135.615  0.00  0.00    +0.000 HD
BRANCH  54  58
ATOM     58  C   UNL     1      -4.779   3.635 137.480  0.00  0.00    +0.000 C 
BRANCH  58  59
ATOM     59  C   UNL     1      -4.900   2.390 136.654  0.00  0.00    +0.000 C 
BRANCH  59  60
ATOM     60  C   UNL     1      -3.728   1.438 136.758  0.00  0.00    +0.000 C 
BRANCH  60  64
ATOM     61  N   UNL     1      -2.255  -1.559 135.746  0.00  0.00    +0.000 N 
ATOM     62  C   UNL     1      -2.951  -0.382 135.139  0.00  0.00    +0.000 C 
ATOM     63  C   UNL     1      -2.903   0.364 133.977  0.00  0.00    +0.000 C 
ATOM     64  C   UNL     1      -4.015   0.043 136.179  0.00  0.00    +0.000 C 
ATOM     65  C   UNL     1      -5.413  -0.229 135.651  0.00  0.00    +0.000 C 
ATOM     66  C   UNL     1      -3.873  -0.932 137.302  0.00  0.00    +0.000 A 
ATOM     67  C   UNL     1      -4.727  -0.921 138.443  0.00  0.00    +0.000 A 
ATOM     68  C   UNL     1      -4.511  -1.733 139.510  0.00  0.00    +0.000 A 
ATOM     69  C   UNL     1      -3.511  -2.672 139.331  0.00  0.00    +0.000 A 
ATOM     70  C   UNL     1      -2.709  -2.734 138.099  0.00  0.00    +0.000 A 
ATOM     71  C   UNL     1      -2.853  -1.829 137.040  0.00  0.00    +0.000 A 
BRANCH  68  72
ATOM     72  S   UNL     1      -5.569  -1.526 140.944  0.00  0.00    +0.000 S 
ATOM     73  O   UNL     1      -6.920  -1.296 140.474  0.00  0.00    +0.000 OA
ATOM     74  O   UNL     1      -5.271  -2.604 141.861  0.00  0.00    +0.000 OA
BRANCH  72  75
ATOM     75  O   UNL     1      -5.060  -0.143 141.618  0.00  0.00    +0.000 OA
ATOM     76  H   UNL     1      -4.224   0.174 141.222  0.00  0.00    +0.000 HD
ENDBRANCH  72  75
ENDBRANCH  68  72
BRANCH  63  77
ATOM     77  C   UNL     1      -3.753   1.559 133.609  0.00  0.00    +0.000 C 
ATOM     78  C   UNL     1      -4.922   1.549 132.938  0.00  0.00    +0.000 C 
BRANCH  78  79
ATOM     79  C   UNL     1      -5.622   2.792 132.667  0.00  0.00    +0.000 C 
ATOM     80  C   UNL     1      -6.737   2.971 131.958  0.00  0.00    +0.000 C 
BRANCH  80  81
ATOM     81  C   UNL     1      -7.718   4.056 131.445  0.00  0.00    +0.000 C 
ATOM     82  N   UNL     1      -7.395   5.253 131.109  0.00  0.00    +0.000 N 
ATOM     83  C   UNL     1      -8.489   6.142 130.884  0.00  0.00    +0.000 A 
ATOM     84  C   UNL     1      -9.642   6.388 131.697  0.00  0.00    +0.000 A 
ATOM     85  C   UNL     1     -10.972   6.815 131.218  0.00  0.00    +0.000 A 
ATOM     86  C   UNL     1     -11.099   7.287 129.959  0.00  0.00    +0.000 A 
ATOM     87  C   UNL     1     -10.027   6.782 129.266  0.00  0.00    +0.000 A 
ATOM     88  C   UNL     1      -9.106   5.541 129.905  0.00  0.00    +0.000 A 
ATOM     89  C   UNL     1      -9.252   4.104 131.277  0.00  0.00    +0.000 C 
ATOM     90  C   UNL     1     -10.080   3.335 130.343  0.00  0.00    +0.000 C 
ATOM     91  C   UNL     1      -9.287   2.552 132.299  0.00  0.00    +0.000 C 
BRANCH  86  92
ATOM     92  S   UNL     1     -12.656   8.143 129.379  0.00  0.00    +0.000 S 
ATOM     93  O   UNL     1     -12.151   8.849 128.207  0.00  0.00    +0.000 OA
ATOM     94  O   UNL     1     -13.553   7.028 129.080  0.00  0.00    +0.000 OA
ATOM     95  O   UNL     1     -13.079   8.991 130.489  0.00  0.00    +0.000 OA
ENDBRANCH  86  92
BRANCH  82  96
ATOM     96  C   UNL     1      -6.119   5.690 130.558  0.00  0.00    +0.000 C 
ATOM     97  C   UNL     1      -5.912   7.124 130.881  0.00  0.00    +0.000 C 
ENDBRANCH  82  96
ENDBRANCH  80  81
ENDBRANCH  78  79
ENDBRANCH  63  77
BRANCH  61  99
ATOM     98  C   UNL     1      -0.025  -1.517 134.498  0.00  0.00    +0.000 C 
ATOM     99  C   UNL     1      -1.088  -2.376 135.195  0.00  0.00    +0.000 C 
ENDBRANCH  61  99
ENDBRANCH  60  64
ENDBRANCH  59  60
ENDBRANCH  58  59
ENDBRANCH  54  58
ENDBRANCH  53  56
ENDBRANCH  52  53
ENDBRANCH   1  52
TORSDOF 25
ENDMDL
MODEL 4
REMARK VINA RESULT:     -10.8      1.545      2.092
REMARK  Name = CHEMBL2172289
REMARK  30 active torsions:
REMARK  status: ('A' for Active; 'I' for Inactive)
REMARK    1  A    between atoms: C_1  and  C_2
REMARK    2  A    between atoms: C_2  and  N_3
REMARK    3  A    between atoms: C_5  and  C_6
REMARK    4  A    between atoms: C_7  and  C_8
REMARK    5  A    between atoms: C_9  and  C_10
REMARK    6  A    between atoms: N_11  and  C_12
REMARK    7  A    between atoms: C_12  and  C_13
REMARK    8  A    between atoms: C_17  and  S_18
REMARK    9  A    between atoms: C_24  and  C_25
REMARK   10  A    between atoms: C_24  and  C_26
REMARK   11  A    between atoms: C_27  and  C_28
REMARK   12  A    between atoms: C_27  and  C_29
REMARK   13  A    between atoms: C_29  and  C_30
REMARK   14  A    between atoms: C_30  and  C_31
REMARK   15  A    between atoms: C_31  and  C_32
REMARK   16  A    between atoms: N_34  and  C_35
REMARK   17  A    between atoms: C_35  and  C_36
REMARK   18  A    between atoms: C_36  and  N_37
REMARK   19  A    between atoms: C_39  and  C_40
REMARK   20  A    between atoms: C_40  and  N_41
REMARK   21  A    between atoms: C_42  and  C_44
REMARK   22  A    between atoms: C_44  and  C_45
REMARK   23  A    between atoms: C_45  and  C_46
REMARK   24  A    between atoms: N_48  and  C_49
REMARK   25  A    between atoms: C_54  and  C_56
REMARK   26  A    between atoms: C_59  and  N_60
REMARK   27  A    between atoms: C_61  and  C_63
REMARK   28  A    between atoms: C_68  and  C_69
REMARK   29  A    between atoms: C_87  and  S_88
REMARK   30  A    between atoms: S_88  and  O_91
REMARK                            x       y       z     vdW  Elec       q    Type
REMARK                         _______ _______ _______ _____ _____    ______ ____
ROOT
ATOM      1  N   UNL     1      -9.686   5.474 131.818  0.00  0.00    +0.000 N 
ATOM      2  C   UNL     1      -9.412   4.956 133.042  0.00  0.00    +0.000 A 
ATOM      3  C   UNL     1      -8.160   5.419 133.369  0.00  0.00    +0.000 A 
ATOM      4  N   UNL     1      -7.719   6.210 132.328  0.00  0.00    +0.000 NA
ATOM      5  N   UNL     1      -8.664   6.232 131.384  0.00  0.00    +0.000 NA
ENDROOT
BRANCH   3   6
ATOM      6  C   UNL     1      -7.369   5.145 134.616  0.00  0.00    +0.000 C 
BRANCH   6   7
ATOM      7  N   UNL     1      -7.887   5.917 135.786  0.00  0.00    +0.000 N 
ATOM      8  C   UNL     1      -7.229   5.933 137.021  0.00  0.00    +0.000 C 
ATOM      9  O   UNL     1      -6.189   5.294 137.166  0.00  0.00    +0.000 OA
ATOM     10  H   UNL     1      -8.740   6.436 135.645  0.00  0.00    +0.000 HD
BRANCH   8  11
ATOM     11  C   UNL     1      -7.842   6.782 138.238  0.00  0.00    +0.000 C 
BRANCH  11  12
ATOM     12  C   UNL     1      -6.746   7.981 139.015  0.00  0.00    +0.000 C 
BRANCH  12  13
ATOM     13  C   UNL     1      -6.079   9.535 138.035  0.00  0.00    +0.000 C 
ATOM     14  O   UNL     1      -6.983  10.376 138.303  0.00  0.00    +0.000 OA
ATOM     15  N   UNL     1      -4.530   9.828 137.076  0.00  0.00    +0.000 N 
ATOM     16  H   UNL     1      -4.588   8.778 136.987  0.00  0.00    +0.000 HD
BRANCH  15  17
ATOM     17  C   UNL     1      -3.149  10.879 136.010  0.00  0.00    +0.000 C 
ATOM     18  C   UNL     1      -2.935  11.183 137.425  0.00  0.00    +0.000 C 
ATOM     19  C   UNL     1      -1.777  10.506 136.730  0.00  0.00    +0.000 C 
ATOM     20  C   UNL     1      -1.069  11.638 137.066  0.00  0.00    +0.000 C 
ATOM     21  N   UNL     1       0.104  11.102 136.142  0.00  0.00    +0.000 N 
ATOM     22  C   UNL     1       0.180  10.259 134.791  0.00  0.00    +0.000 C 
ATOM     23  O   UNL     1       1.076  10.415 133.949  0.00  0.00    +0.000 OA
ATOM     24  C   UNL     1      -0.067  12.345 135.771  0.00  0.00    +0.000 A 
ATOM     25  C   UNL     1       0.978  13.356 136.752  0.00  0.00    +0.000 A 
ATOM     26  C   UNL     1       1.465  14.603 136.561  0.00  0.00    +0.000 A 
ATOM     27  C   UNL     1       1.162  14.650 135.275  0.00  0.00    +0.000 A 
ATOM     28  C   UNL     1      -0.230  13.515 134.722  0.00  0.00    +0.000 A 
ATOM     29  C   UNL     1      -1.549  12.226 135.033  0.00  0.00    +0.000 A 
BRANCH  22  30
ATOM     30  C   UNL     1      -0.813   9.073 134.497  0.00  0.00    +0.000 A 
ATOM     31  C   UNL     1      -1.040   7.800 135.198  0.00  0.00    +0.000 A 
ATOM     32  C   UNL     1      -1.192   6.600 134.462  0.00  0.00    +0.000 A 
ATOM     33  C   UNL     1      -1.651   6.714 133.196  0.00  0.00    +0.000 A 
ATOM     34  C   UNL     1      -1.879   8.018 132.743  0.00  0.00    +0.000 A 
ATOM     35  C   UNL     1      -1.304   9.164 133.252  0.00  0.00    +0.000 A 
BRANCH  33  36
ATOM     36  N   UNL     1      -2.004   5.553 132.484  0.00  0.00    +0.000 N 
ATOM     37  C   UNL     1      -3.270   5.013 132.613  0.00  0.00    +0.000 C 
ATOM     38  O   UNL     1      -4.163   5.486 133.308  0.00  0.00    +0.000 OA
ATOM     39  H   UNL     1      -1.302   5.133 131.868  0.00  0.00    +0.000 HD
BRANCH  37  40
ATOM     40  C   UNL     1      -3.611   3.790 131.858  0.00  0.00    +0.000 A 
ATOM     41  C   UNL     1      -3.783   2.560 132.499  0.00  0.00    +0.000 A 
ATOM     42  C   UNL     1      -3.907   1.394 131.745  0.00  0.00    +0.000 A 
ATOM     43  C   UNL     1      -4.121   1.477 130.381  0.00  0.00    +0.000 A 
ATOM     44  C   UNL     1      -4.228   2.729 129.785  0.00  0.00    +0.000 A 
ATOM     45  C   UNL     1      -3.844   3.892 130.473  0.00  0.00    +0.000 A 
BRANCH  45  46
ATOM     46  C   UNL     1      -3.672   5.164 129.752  0.00  0.00    +0.000 A 
ATOM     47  C   UNL     1      -2.644   5.336 128.807  0.00  0.00    +0.000 A 
ATOM     48  C   UNL     1      -2.266   6.608 128.385  0.00  0.00    +0.000 A 
ATOM     49  C   UNL     1      -3.071   7.687 128.692  0.00  0.00    +0.000 A 
ATOM     50  C   UNL     1      -4.239   7.482 129.415  0.00  0.00    +0.000 A 
ATOM     51  C   UNL     1      -4.471   6.263 130.047  0.00  0.00    +0.000 A 
ENDBRANCH  45  46
ENDBRANCH  37  40
ENDBRANCH  33  36
ENDBRANCH  22  30
ENDBRANCH  15  17
ENDBRANCH  12  13
ENDBRANCH  11  12
ENDBRANCH   8  11
ENDBRANCH   6   7
ENDBRANCH   3   6
BRANCH   1  52
ATOM     52  C   UNL     1     -10.897   5.281 131.047  0.00  0.00    +0.000 C 
BRANCH  52  53
ATOM     53  C   UNL     1     -10.927   3.937 130.339  0.00  0.00    +0.000 C 
BRANCH  53  56
ATOM     54  C   UNL     1      -8.941   2.476 130.174  0.00  0.00    +0.000 C 
ATOM     55  O   UNL     1      -9.357   1.767 131.086  0.00  0.00    +0.000 OA
ATOM     56  N   UNL     1      -9.641   3.580 129.730  0.00  0.00    +0.000 N 
ATOM     57  H   UNL     1      -9.285   4.144 128.970  0.00  0.00    +0.000 HD
BRANCH  54  58
ATOM     58  C   UNL     1      -7.625   2.184 129.453  0.00  0.00    +0.000 C 
BRANCH  58  59
ATOM     59  C   UNL     1      -7.598   0.739 129.060  0.00  0.00    +0.000 C 
BRANCH  59  60
ATOM     60  C   UNL     1      -8.269   0.422 127.741  0.00  0.00    +0.000 C 
BRANCH  60  64
ATOM     61  N   UNL     1      -8.136  -1.182 124.645  0.00  0.00    +0.000 N 
ATOM     62  C   UNL     1      -7.911  -1.497 126.090  0.00  0.00    +0.000 C 
ATOM     63  C   UNL     1      -8.070  -2.563 126.954  0.00  0.00    +0.000 C 
ATOM     64  C   UNL     1      -7.324  -0.204 126.702  0.00  0.00    +0.000 C 
ATOM     65  C   UNL     1      -5.875  -0.415 127.104  0.00  0.00    +0.000 C 
ATOM     66  C   UNL     1      -7.230   0.759 125.563  0.00  0.00    +0.000 A 
ATOM     67  C   UNL     1      -6.672   2.063 125.702  0.00  0.00    +0.000 A 
ATOM     68  C   UNL     1      -6.703   2.969 124.692  0.00  0.00    +0.000 A 
ATOM     69  C   UNL     1      -7.164   2.475 123.484  0.00  0.00    +0.000 A 
ATOM     70  C   UNL     1      -7.639   1.091 123.337  0.00  0.00    +0.000 A 
ATOM     71  C   UNL     1      -7.712   0.184 124.402  0.00  0.00    +0.000 A 
BRANCH  68  72
ATOM     72  S   UNL     1      -6.097   4.622 125.033  0.00  0.00    +0.000 S 
ATOM     73  O   UNL     1      -7.217   5.427 125.477  0.00  0.00    +0.000 OA
ATOM     74  O   UNL     1      -4.906   4.489 125.843  0.00  0.00    +0.000 OA
BRANCH  72  75
ATOM     75  O   UNL     1      -5.652   5.191 123.582  0.00  0.00    +0.000 OA
ATOM     76  H   UNL     1      -4.692   5.370 123.535  0.00  0.00    +0.000 HD
ENDBRANCH  72  75
ENDBRANCH  68  72
BRANCH  63  77
ATOM     77  C   UNL     1      -7.756  -2.610 128.433  0.00  0.00    +0.000 C 
ATOM     78  C   UNL     1      -7.268  -3.656 129.127  0.00  0.00    +0.000 C 
BRANCH  78  79
ATOM     79  C   UNL     1      -7.016  -3.536 130.553  0.00  0.00    +0.000 C 
ATOM     80  C   UNL     1      -6.435  -2.528 131.204  0.00  0.00    +0.000 C 
BRANCH  80  81
ATOM     81  C   UNL     1      -5.985  -2.058 132.611  0.00  0.00    +0.000 C 
ATOM     82  N   UNL     1      -4.975  -2.514 133.260  0.00  0.00    +0.000 N 
ATOM     83  C   UNL     1      -4.885  -2.097 134.623  0.00  0.00    +0.000 A 
ATOM     84  C   UNL     1      -5.890  -2.100 135.643  0.00  0.00    +0.000 A 
ATOM     85  C   UNL     1      -5.970  -1.174 136.791  0.00  0.00    +0.000 A 
ATOM     86  C   UNL     1      -4.894  -0.421 137.106  0.00  0.00    +0.000 A 
ATOM     87  C   UNL     1      -4.146  -0.346 135.958  0.00  0.00    +0.000 A 
ATOM     88  C   UNL     1      -4.796  -0.804 134.486  0.00  0.00    +0.000 A 
ATOM     89  C   UNL     1      -6.579  -1.071 133.640  0.00  0.00    +0.000 C 
ATOM     90  C   UNL     1      -6.710   0.384 133.520  0.00  0.00    +0.000 C 
ATOM     91  C   UNL     1      -8.120  -1.111 132.600  0.00  0.00    +0.000 C 
BRANCH  86  92
ATOM     92  S   UNL     1      -4.792   0.527 138.715  0.00  0.00    +0.000 S 
ATOM     93  O   UNL     1      -4.503   1.867 138.216  0.00  0.00    +0.000 OA
ATOM     94  O   UNL     1      -6.130   0.361 139.280  0.00  0.00    +0.000 OA
ATOM     95  O   UNL     1      -3.720  -0.104 139.479  0.00  0.00    +0.000 OA
ENDBRANCH  86  92
BRANCH  82  96
ATOM     96  C   UNL     1      -3.746  -3.054 132.696  0.00  0.00    +0.000 C 
ATOM     97  C   UNL     1      -3.322  -2.211 131.551  0.00  0.00    +0.000 C 
ENDBRANCH  82  96
ENDBRANCH  80  81
ENDBRANCH  78  79
ENDBRANCH  63  77
BRANCH  61  99
ATOM     98  C   UNL     1      -9.338  -3.367 124.086  0.00  0.00    +0.000 C 
ATOM     99  C   UNL     1      -8.733  -2.063 123.550  0.00  0.00    +0.000 C 
ENDBRANCH  61  99
ENDBRANCH  60  64
ENDBRANCH  59  60
ENDBRANCH  58  59
ENDBRANCH  54  58
ENDBRANCH  53  56
ENDBRANCH  52  53
ENDBRANCH   1  52
TORSDOF 25
ENDMDL
MODEL 5
REMARK VINA RESULT:     -10.6      1.639      2.072
REMARK  Name = CHEMBL2172289
REMARK  30 active torsions:
REMARK  status: ('A' for Active; 'I' for Inactive)
REMARK    1  A    between atoms: C_1  and  C_2
REMARK    2  A    between atoms: C_2  and  N_3
REMARK    3  A    between atoms: C_5  and  C_6
REMARK    4  A    between atoms: C_7  and  C_8
REMARK    5  A    between atoms: C_9  and  C_10
REMARK    6  A    between atoms: N_11  and  C_12
REMARK    7  A    between atoms: C_12  and  C_13
REMARK    8  A    between atoms: C_17  and  S_18
REMARK    9  A    between atoms: C_24  and  C_25
REMARK   10  A    between atoms: C_24  and  C_26
REMARK   11  A    between atoms: C_27  and  C_28
REMARK   12  A    between atoms: C_27  and  C_29
REMARK   13  A    between atoms: C_29  and  C_30
REMARK   14  A    between atoms: C_30  and  C_31
REMARK   15  A    between atoms: C_31  and  C_32
REMARK   16  A    between atoms: N_34  and  C_35
REMARK   17  A    between atoms: C_35  and  C_36
REMARK   18  A    between atoms: C_36  and  N_37
REMARK   19  A    between atoms: C_39  and  C_40
REMARK   20  A    between atoms: C_40  and  N_41
REMARK   21  A    between atoms: C_42  and  C_44
REMARK   22  A    between atoms: C_44  and  C_45
REMARK   23  A    between atoms: C_45  and  C_46
REMARK   24  A    between atoms: N_48  and  C_49
REMARK   25  A    between atoms: C_54  and  C_56
REMARK   26  A    between atoms: C_59  and  N_60
REMARK   27  A    between atoms: C_61  and  C_63
REMARK   28  A    between atoms: C_68  and  C_69
REMARK   29  A    between atoms: C_87  and  S_88
REMARK   30  A    between atoms: S_88  and  O_91
REMARK                            x       y       z     vdW  Elec       q    Type
REMARK                         _______ _______ _______ _____ _____    ______ ____
ROOT
ATOM      1  N   UNL     1      -9.526   5.726 130.755  0.00  0.00    +0.000 N 
ATOM      2  C   UNL     1      -9.646   4.627 131.541  0.00  0.00    +0.000 A 
ATOM      3  C   UNL     1      -9.440   5.067 132.827  0.00  0.00    +0.000 A 
ATOM      4  N   UNL     1      -9.206   6.425 132.775  0.00  0.00    +0.000 NA
ATOM      5  N   UNL     1      -9.259   6.814 131.497  0.00  0.00    +0.000 NA
ENDROOT
BRANCH   3   6
ATOM      6  C   UNL     1      -9.454   4.260 134.094  0.00  0.00    +0.000 C 
BRANCH   6   7
ATOM      7  N   UNL     1      -8.207   4.455 134.894  0.00  0.00    +0.000 N 
ATOM      8  C   UNL     1      -7.013   3.792 134.590  0.00  0.00    +0.000 C 
ATOM      9  O   UNL     1      -6.971   3.017 133.637  0.00  0.00    +0.000 OA
ATOM     10  H   UNL     1      -8.262   5.097 135.670  0.00  0.00    +0.000 HD
BRANCH   8  11
ATOM     11  C   UNL     1      -5.710   4.046 135.493  0.00  0.00    +0.000 C 
BRANCH  11  12
ATOM     12  C   UNL     1      -5.662   5.589 136.421  0.00  0.00    +0.000 C 
BRANCH  12  13
ATOM     13  C   UNL     1      -4.107   6.771 136.348  0.00  0.00    +0.000 C 
ATOM     14  O   UNL     1      -3.178   5.933 136.527  0.00  0.00    +0.000 OA
ATOM     15  N   UNL     1      -3.931   8.573 135.997  0.00  0.00    +0.000 N 
ATOM     16  H   UNL     1      -4.926   8.565 136.348  0.00  0.00    +0.000 HD
BRANCH  15  17
ATOM     17  C   UNL     1      -2.974  10.338 135.651  0.00  0.00    +0.000 C 
ATOM     18  C   UNL     1      -3.042  10.152 137.100  0.00  0.00    +0.000 C 
ATOM     19  C   UNL     1      -1.647  10.206 136.524  0.00  0.00    +0.000 C 
ATOM     20  C   UNL     1      -1.479  11.301 137.341  0.00  0.00    +0.000 C 
ATOM     21  N   UNL     1      -0.103  11.566 136.598  0.00  0.00    +0.000 N 
ATOM     22  C   UNL     1       0.436  11.357 135.112  0.00  0.00    +0.000 C 
ATOM     23  O   UNL     1       1.278  12.100 134.589  0.00  0.00    +0.000 OA
ATOM     24  C   UNL     1      -0.711  12.725 136.592  0.00  0.00    +0.000 A 
ATOM     25  C   UNL     1      -0.254  13.589 138.048  0.00  0.00    +0.000 A 
ATOM     26  C   UNL     1      -0.280  14.904 138.362  0.00  0.00    +0.000 A 
ATOM     27  C   UNL     1      -0.445  15.318 137.117  0.00  0.00    +0.000 A 
ATOM     28  C   UNL     1      -1.213  14.072 135.938  0.00  0.00    +0.000 A 
ATOM     29  C   UNL     1      -1.943  12.400 135.528  0.00  0.00    +0.000 A 
BRANCH  22  30
ATOM     30  C   UNL     1       0.024  10.104 134.250  0.00  0.00    +0.000 A 
ATOM     31  C   UNL     1      -0.902   9.969 133.116  0.00  0.00    +0.000 A 
ATOM     32  C   UNL     1      -1.798   8.874 133.057  0.00  0.00    +0.000 A 
ATOM     33  C   UNL     1      -1.432   7.750 133.712  0.00  0.00    +0.000 A 
ATOM     34  C   UNL     1      -0.224   7.816 134.415  0.00  0.00    +0.000 A 
ATOM     35  C   UNL     1       0.390   8.968 134.861  0.00  0.00    +0.000 A 
BRANCH  33  36
ATOM     36  N   UNL     1      -2.182   6.573 133.532  0.00  0.00    +0.000 N 
ATOM     37  C   UNL     1      -1.744   5.592 132.661  0.00  0.00    +0.000 C 
ATOM     38  O   UNL     1      -0.702   5.646 132.016  0.00  0.00    +0.000 OA
ATOM     39  H   UNL     1      -3.048   6.466 134.068  0.00  0.00    +0.000 HD
BRANCH  37  40
ATOM     40  C   UNL     1      -2.554   4.369 132.488  0.00  0.00    +0.000 A 
ATOM     41  C   UNL     1      -2.554   3.351 133.444  0.00  0.00    +0.000 A 
ATOM     42  C   UNL     1      -3.168   2.131 133.163  0.00  0.00    +0.000 A 
ATOM     43  C   UNL     1      -3.992   2.015 132.059  0.00  0.00    +0.000 A 
ATOM     44  C   UNL     1      -4.210   3.129 131.253  0.00  0.00    +0.000 A 
ATOM     45  C   UNL     1      -3.402   4.272 131.367  0.00  0.00    +0.000 A 
BRANCH  45  46
ATOM     46  C   UNL     1      -3.434   5.316 130.330  0.00  0.00    +0.000 A 
ATOM     47  C   UNL     1      -2.758   5.153 129.107  0.00  0.00    +0.000 A 
ATOM     48  C   UNL     1      -2.500   6.244 128.281  0.00  0.00    +0.000 A 
ATOM     49  C   UNL     1      -3.134   7.444 128.532  0.00  0.00    +0.000 A 
ATOM     50  C   UNL     1      -4.016   7.538 129.603  0.00  0.00    +0.000 A 
ATOM     51  C   UNL     1      -4.066   6.531 130.563  0.00  0.00    +0.000 A 
ENDBRANCH  45  46
ENDBRANCH  37  40
ENDBRANCH  33  36
ENDBRANCH  22  30
ENDBRANCH  15  17
ENDBRANCH  12  13
ENDBRANCH  11  12
ENDBRANCH   8  11
ENDBRANCH   6   7
ENDBRANCH   3   6
BRANCH   1  52
ATOM     52  C   UNL     1      -9.667   5.780 129.314  0.00  0.00    +0.000 C 
BRANCH  52  53
ATOM     53  C   UNL     1      -8.610   4.957 128.596  0.00  0.00    +0.000 C 
BRANCH  53  56
ATOM     54  C   UNL     1      -7.312   2.899 129.026  0.00  0.00    +0.000 C 
ATOM     55  O   UNL     1      -6.308   3.401 128.527  0.00  0.00    +0.000 OA
ATOM     56  N   UNL     1      -8.507   3.585 129.105  0.00  0.00    +0.000 N 
ATOM     57  H   UNL     1      -9.318   3.157 129.530  0.00  0.00    +0.000 HD
BRANCH  54  58
ATOM     58  C   UNL     1      -7.310   1.486 129.608  0.00  0.00    +0.000 C 
BRANCH  58  59
ATOM     59  C   UNL     1      -6.848   0.527 128.554  0.00  0.00    +0.000 C 
BRANCH  59  60
ATOM     60  C   UNL     1      -7.804   0.340 127.396  0.00  0.00    +0.000 C 
BRANCH  60  64
ATOM     61  N   UNL     1      -8.467  -1.066 124.272  0.00  0.00    +0.000 N 
ATOM     62  C   UNL     1      -8.014  -1.498 125.630  0.00  0.00    +0.000 C 
ATOM     63  C   UNL     1      -8.140  -2.591 126.465  0.00  0.00    +0.000 C 
ATOM     64  C   UNL     1      -7.160  -0.324 126.167  0.00  0.00    +0.000 C 
ATOM     65  C   UNL     1      -5.700  -0.730 126.268  0.00  0.00    +0.000 C 
ATOM     66  C   UNL     1      -7.162   0.692 125.072  0.00  0.00    +0.000 A 
ATOM     67  C   UNL     1      -6.426   1.910 125.151  0.00  0.00    +0.000 A 
ATOM     68  C   UNL     1      -6.533   2.876 124.204  0.00  0.00    +0.000 A 
ATOM     69  C   UNL     1      -7.274   2.519 123.091  0.00  0.00    +0.000 A 
ATOM     70  C   UNL     1      -7.941   1.212 122.985  0.00  0.00    +0.000 A 
ATOM     71  C   UNL     1      -7.926   0.254 124.006  0.00  0.00    +0.000 A 
BRANCH  68  72
ATOM     72  S   UNL     1      -5.667   4.422 124.486  0.00  0.00    +0.000 S 
ATOM     73  O   UNL     1      -4.691   4.202 125.535  0.00  0.00    +0.000 OA
ATOM     74  O   UNL     1      -5.272   4.940 123.195  0.00  0.00    +0.000 OA
BRANCH  72  75
ATOM     75  O   UNL     1      -6.800   5.408 125.094  0.00  0.00    +0.000 OA
ATOM     76  H   UNL     1      -7.584   4.917 125.411  0.00  0.00    +0.000 HD
ENDBRANCH  72  75
ENDBRANCH  68  72
BRANCH  63  77
ATOM     77  C   UNL     1      -7.560  -2.770 127.851  0.00  0.00    +0.000 C 
ATOM     78  C   UNL     1      -8.217  -3.147 128.964  0.00  0.00    +0.000 C 
BRANCH  78  79
ATOM     79  C   UNL     1      -7.508  -3.276 130.226  0.00  0.00    +0.000 C 
ATOM     80  C   UNL     1      -6.370  -2.689 130.594  0.00  0.00    +0.000 C 
BRANCH  80  81
ATOM     81  C   UNL     1      -5.345  -2.591 131.753  0.00  0.00    +0.000 C 
ATOM     82  N   UNL     1      -5.468  -1.849 132.795  0.00  0.00    +0.000 N 
ATOM     83  C   UNL     1      -4.303  -1.748 133.614  0.00  0.00    +0.000 A 
ATOM     84  C   UNL     1      -2.949  -1.471 133.240  0.00  0.00    +0.000 A 
ATOM     85  C   UNL     1      -1.737  -1.935 133.945  0.00  0.00    +0.000 A 
ATOM     86  C   UNL     1      -1.852  -2.433 135.196  0.00  0.00    +0.000 A 
ATOM     87  C   UNL     1      -3.156  -2.844 135.311  0.00  0.00    +0.000 A 
ATOM     88  C   UNL     1      -4.126  -2.994 133.956  0.00  0.00    +0.000 A 
ATOM     89  C   UNL     1      -3.943  -3.197 131.983  0.00  0.00    +0.000 C 
ATOM     90  C   UNL     1      -3.595  -4.606 132.187  0.00  0.00    +0.000 C 
ATOM     91  C   UNL     1      -3.986  -3.659 130.183  0.00  0.00    +0.000 C 
BRANCH  86  92
ATOM     92  S   UNL     1      -0.357  -2.738 136.276  0.00  0.00    +0.000 S 
ATOM     93  O   UNL     1      -0.958  -3.529 137.345  0.00  0.00    +0.000 OA
ATOM     94  O   UNL     1       0.539  -3.485 135.394  0.00  0.00    +0.000 OA
ATOM     95  O   UNL     1       0.126  -1.417 136.667  0.00  0.00    +0.000 OA
ENDBRANCH  86  92
BRANCH  82  96
ATOM     96  C   UNL     1      -6.711  -1.441 133.434  0.00  0.00    +0.000 C 
ATOM     97  C   UNL     1      -7.081  -0.083 132.963  0.00  0.00    +0.000 C 
ENDBRANCH  82  96
ENDBRANCH  80  81
ENDBRANCH  78  79
ENDBRANCH  63  77
BRANCH  61  99
ATOM     98  C   UNL     1      -9.366  -3.321 123.473  0.00  0.00    +0.000 C 
ATOM     99  C   UNL     1      -9.368  -1.799 123.280  0.00  0.00    +0.000 C 
ENDBRANCH  61  99
ENDBRANCH  60  64
ENDBRANCH  59  60
ENDBRANCH  58  59
ENDBRANCH  54  58
ENDBRANCH  53  56
ENDBRANCH  52  53
ENDBRANCH   1  52
TORSDOF 25
ENDMDL
MODEL 6
REMARK VINA RESULT:     -10.4      3.370     11.211
REMARK  Name = CHEMBL2172289
REMARK  30 active torsions:
REMARK  status: ('A' for Active; 'I' for Inactive)
REMARK    1  A    between atoms: C_1  and  C_2
REMARK    2  A    between atoms: C_2  and  N_3
REMARK    3  A    between atoms: C_5  and  C_6
REMARK    4  A    between atoms: C_7  and  C_8
REMARK    5  A    between atoms: C_9  and  C_10
REMARK    6  A    between atoms: N_11  and  C_12
REMARK    7  A    between atoms: C_12  and  C_13
REMARK    8  A    between atoms: C_17  and  S_18
REMARK    9  A    between atoms: C_24  and  C_25
REMARK   10  A    between atoms: C_24  and  C_26
REMARK   11  A    between atoms: C_27  and  C_28
REMARK   12  A    between atoms: C_27  and  C_29
REMARK   13  A    between atoms: C_29  and  C_30
REMARK   14  A    between atoms: C_30  and  C_31
REMARK   15  A    between atoms: C_31  and  C_32
REMARK   16  A    between atoms: N_34  and  C_35
REMARK   17  A    between atoms: C_35  and  C_36
REMARK   18  A    between atoms: C_36  and  N_37
REMARK   19  A    between atoms: C_39  and  C_40
REMARK   20  A    between atoms: C_40  and  N_41
REMARK   21  A    between atoms: C_42  and  C_44
REMARK   22  A    between atoms: C_44  and  C_45
REMARK   23  A    between atoms: C_45  and  C_46
REMARK   24  A    between atoms: N_48  and  C_49
REMARK   25  A    between atoms: C_54  and  C_56
REMARK   26  A    between atoms: C_59  and  N_60
REMARK   27  A    between atoms: C_61  and  C_63
REMARK   28  A    between atoms: C_68  and  C_69
REMARK   29  A    between atoms: C_87  and  S_88
REMARK   30  A    between atoms: S_88  and  O_91
REMARK                            x       y       z     vdW  Elec       q    Type
REMARK                         _______ _______ _______ _____ _____    ______ ____
ROOT
ATOM      1  N   UNL     1      -1.770   6.332 139.820  0.00  0.00    +0.000 N 
ATOM      2  C   UNL     1      -1.727   6.144 138.477  0.00  0.00    +0.000 A 
ATOM      3  C   UNL     1      -1.888   7.392 137.922  0.00  0.00    +0.000 A 
ATOM      4  N   UNL     1      -2.018   8.297 138.954  0.00  0.00    +0.000 NA
ATOM      5  N   UNL     1      -1.946   7.632 140.112  0.00  0.00    +0.000 NA
ENDROOT
BRANCH   3   6
ATOM      6  C   UNL     1      -1.924   7.760 136.467  0.00  0.00    +0.000 C 
BRANCH   6   7
ATOM      7  N   UNL     1      -1.663   6.580 135.586  0.00  0.00    +0.000 N 
ATOM      8  C   UNL     1      -2.439   6.307 134.454  0.00  0.00    +0.000 C 
ATOM      9  O   UNL     1      -3.371   7.052 134.159  0.00  0.00    +0.000 OA
ATOM     10  H   UNL     1      -0.892   5.984 135.844  0.00  0.00    +0.000 HD
BRANCH   8  11
ATOM     11  C   UNL     1      -2.106   5.022 133.552  0.00  0.00    +0.000 C 
BRANCH  11  12
ATOM     12  C   UNL     1      -2.411   5.176 131.784  0.00  0.00    +0.000 C 
BRANCH  12  13
ATOM     13  C   UNL     1      -4.228   5.282 131.071  0.00  0.00    +0.000 C 
ATOM     14  O   UNL     1      -4.001   5.078 129.845  0.00  0.00    +0.000 OA
ATOM     15  N   UNL     1      -5.872   5.486 131.883  0.00  0.00    +0.000 N 
ATOM     16  H   UNL     1      -5.263   5.937 132.618  0.00  0.00    +0.000 HD
BRANCH  15  17
ATOM     17  C   UNL     1      -7.901   5.588 132.022  0.00  0.00    +0.000 C 
ATOM     18  C   UNL     1      -7.464   6.695 131.173  0.00  0.00    +0.000 C 
ATOM     19  C   UNL     1      -8.363   5.685 130.500  0.00  0.00    +0.000 C 
ATOM     20  C   UNL     1      -9.215   6.750 130.307  0.00  0.00    +0.000 C 
ATOM     21  N   UNL     1     -10.306   5.707 129.821  0.00  0.00    +0.000 N 
ATOM     22  C   UNL     1     -10.681   4.205 130.203  0.00  0.00    +0.000 C 
ATOM     23  O   UNL     1     -11.839   3.766 130.156  0.00  0.00    +0.000 OA
ATOM     24  C   UNL     1     -10.931   6.457 130.692  0.00  0.00    +0.000 A 
ATOM     25  C   UNL     1     -11.640   7.813 129.836  0.00  0.00    +0.000 A 
ATOM     26  C   UNL     1     -12.654   8.650 130.154  0.00  0.00    +0.000 A 
ATOM     27  C   UNL     1     -13.118   7.902 131.140  0.00  0.00    +0.000 A 
ATOM     28  C   UNL     1     -11.879   6.728 131.927  0.00  0.00    +0.000 A 
ATOM     29  C   UNL     1     -10.178   5.968 132.088  0.00  0.00    +0.000 A 
BRANCH  22  30
ATOM     30  C   UNL     1      -9.576   3.136 130.543  0.00  0.00    +0.000 A 
ATOM     31  C   UNL     1      -8.493   2.565 129.727  0.00  0.00    +0.000 A 
ATOM     32  C   UNL     1      -8.230   1.175 129.767  0.00  0.00    +0.000 A 
ATOM     33  C   UNL     1      -8.586   0.518 130.893  0.00  0.00    +0.000 A 
ATOM     34  C   UNL     1      -9.219   1.286 131.876  0.00  0.00    +0.000 A 
ATOM     35  C   UNL     1      -9.887   2.475 131.668  0.00  0.00    +0.000 A 
BRANCH  33  36
ATOM     36  N   UNL     1      -8.178  -0.817 131.069  0.00  0.00    +0.000 N 
ATOM     37  C   UNL     1      -6.837  -1.151 131.018  0.00  0.00    +0.000 C 
ATOM     38  O   UNL     1      -5.924  -0.349 130.847  0.00  0.00    +0.000 OA
ATOM     39  H   UNL     1      -8.900  -1.523 131.242  0.00  0.00    +0.000 HD
BRANCH  37  40
ATOM     40  C   UNL     1      -6.439  -2.562 131.201  0.00  0.00    +0.000 A 
ATOM     41  C   UNL     1      -6.250  -3.108 132.473  0.00  0.00    +0.000 A 
ATOM     42  C   UNL     1      -5.685  -4.376 132.609  0.00  0.00    +0.000 A 
ATOM     43  C   UNL     1      -5.553  -5.192 131.501  0.00  0.00    +0.000 A 
ATOM     44  C   UNL     1      -6.006  -4.739 130.265  0.00  0.00    +0.000 A 
ATOM     45  C   UNL     1      -6.325  -3.386 130.065  0.00  0.00    +0.000 A 
BRANCH  45  46
ATOM     46  C   UNL     1      -6.510  -2.856 128.704  0.00  0.00    +0.000 A 
ATOM     47  C   UNL     1      -7.767  -2.885 128.072  0.00  0.00    +0.000 A 
ATOM     48  C   UNL     1      -7.879  -2.709 126.695  0.00  0.00    +0.000 A 
ATOM     49  C   UNL     1      -6.791  -2.246 125.984  0.00  0.00    +0.000 A 
ATOM     50  C   UNL     1      -5.607  -1.965 126.655  0.00  0.00    +0.000 A 
ATOM     51  C   UNL     1      -5.427  -2.386 127.970  0.00  0.00    +0.000 A 
ENDBRANCH  45  46
ENDBRANCH  37  40
ENDBRANCH  33  36
ENDBRANCH  22  30
ENDBRANCH  15  17
ENDBRANCH  12  13
ENDBRANCH  11  12
ENDBRANCH   8  11
ENDBRANCH   6   7
ENDBRANCH   3   6
BRANCH   1  52
ATOM     52  C   UNL     1      -1.638   5.313 140.841  0.00  0.00    +0.000 C 
BRANCH  52  53
ATOM     53  C   UNL     1      -2.978   4.914 141.439  0.00  0.00    +0.000 C 
BRANCH  53  56
ATOM     54  C   UNL     1      -5.243   5.894 141.537  0.00  0.00    +0.000 C 
ATOM     55  O   UNL     1      -5.750   4.811 141.258  0.00  0.00    +0.000 OA
ATOM     56  N   UNL     1      -3.877   6.053 141.647  0.00  0.00    +0.000 N 
ATOM     57  H   UNL     1      -3.482   6.952 141.889  0.00  0.00    +0.000 HD
BRANCH  54  58
ATOM     58  C   UNL     1      -6.086   7.142 141.798  0.00  0.00    +0.000 C 
BRANCH  58  59
ATOM     59  C   UNL     1      -6.736   7.565 140.516  0.00  0.00    +0.000 C 
BRANCH  59  60
ATOM     60  C   UNL     1      -5.797   7.700 139.337  0.00  0.00    +0.000 C 
BRANCH  60  64
ATOM     61  N   UNL     1      -8.487   9.687 138.339  0.00  0.00    +0.000 N 
ATOM     62  C   UNL     1      -7.745   8.474 137.872  0.00  0.00    +0.000 C 
ATOM     63  C   UNL     1      -8.008   7.290 137.212  0.00  0.00    +0.000 C 
ATOM     64  C   UNL     1      -6.273   8.714 138.284  0.00  0.00    +0.000 C 
ATOM     65  C   UNL     1      -5.403   8.916 137.055  0.00  0.00    +0.000 C 
ATOM     66  C   UNL     1      -6.265  10.057 138.938  0.00  0.00    +0.000 A 
ATOM     67  C   UNL     1      -5.071  10.678 139.406  0.00  0.00    +0.000 A 
ATOM     68  C   UNL     1      -5.092  11.841 140.106  0.00  0.00    +0.000 A 
ATOM     69  C   UNL     1      -6.333  12.450 140.181  0.00  0.00    +0.000 A 
ATOM     70  C   UNL     1      -7.538  11.840 139.598  0.00  0.00    +0.000 A 
ATOM     71  C   UNL     1      -7.541  10.588 138.971  0.00  0.00    +0.000 A 
BRANCH  68  72
ATOM     72  S   UNL     1      -3.538  12.449 140.764  0.00  0.00    +0.000 S 
ATOM     73  O   UNL     1      -3.566  13.897 140.713  0.00  0.00    +0.000 OA
ATOM     74  O   UNL     1      -3.290  11.750 142.006  0.00  0.00    +0.000 OA
BRANCH  72  75
ATOM     75  O   UNL     1      -2.431  11.959 139.687  0.00  0.00    +0.000 OA
ATOM     76  H   UNL     1      -2.818  11.810 138.802  0.00  0.00    +0.000 HD
ENDBRANCH  72  75
ENDBRANCH  68  72
BRANCH  63  77
ATOM     77  C   UNL     1      -7.031   6.189 136.861  0.00  0.00    +0.000 C 
ATOM     78  C   UNL     1      -6.624   5.827 135.629  0.00  0.00    +0.000 C 
BRANCH  78  79
ATOM     79  C   UNL     1      -5.670   4.744 135.461  0.00  0.00    +0.000 C 
ATOM     80  C   UNL     1      -5.868   3.439 135.641  0.00  0.00    +0.000 C 
BRANCH  80  81
ATOM     81  C   UNL     1      -5.158   2.061 135.597  0.00  0.00    +0.000 C 
ATOM     82  N   UNL     1      -4.304   1.636 136.458  0.00  0.00    +0.000 N 
ATOM     83  C   UNL     1      -3.615   0.440 136.096  0.00  0.00    +0.000 A 
ATOM     84  C   UNL     1      -2.956   0.105 134.869  0.00  0.00    +0.000 A 
ATOM     85  C   UNL     1      -2.787  -1.252 134.312  0.00  0.00    +0.000 A 
ATOM     86  C   UNL     1      -3.009  -2.323 135.105  0.00  0.00    +0.000 A 
ATOM     87  C   UNL     1      -3.828  -1.874 136.110  0.00  0.00    +0.000 A 
ATOM     88  C   UNL     1      -4.607  -0.399 135.981  0.00  0.00    +0.000 A 
ATOM     89  C   UNL     1      -5.152   0.903 134.576  0.00  0.00    +0.000 C 
ATOM     90  C   UNL     1      -6.260   0.012 134.218  0.00  0.00    +0.000 C 
ATOM     91  C   UNL     1      -5.976   2.095 133.410  0.00  0.00    +0.000 C 
BRANCH  86  92
ATOM     92  S   UNL     1      -2.512  -4.050 134.590  0.00  0.00    +0.000 S 
ATOM     93  O   UNL     1      -2.568  -3.922 133.138  0.00  0.00    +0.000 OA
ATOM     94  O   UNL     1      -1.163  -4.182 135.140  0.00  0.00    +0.000 OA
ATOM     95  O   UNL     1      -3.506  -4.941 135.181  0.00  0.00    +0.000 OA
ENDBRANCH  86  92
BRANCH  82  96
ATOM     96  C   UNL     1      -4.245   1.981 137.872  0.00  0.00    +0.000 C 
ATOM     97  C   UNL     1      -2.979   2.705 138.146  0.00  0.00    +0.000 C 
ENDBRANCH  82  96
ENDBRANCH  80  81
ENDBRANCH  78  79
ENDBRANCH  63  77
BRANCH  61  99
ATOM     98  C   UNL     1     -10.816   8.801 137.773  0.00  0.00    +0.000 C 
ATOM     99  C   UNL     1      -9.979   9.997 138.243  0.00  0.00    +0.000 C 
ENDBRANCH  61  99
ENDBRANCH  60  64
ENDBRANCH  59  60
ENDBRANCH  58  59
ENDBRANCH  54  58
ENDBRANCH  53  56
ENDBRANCH  52  53
ENDBRANCH   1  52
TORSDOF 25
ENDMDL
MODEL 7
REMARK VINA RESULT:     -10.2      2.378      4.993
REMARK  Name = CHEMBL2172289
REMARK  30 active torsions:
REMARK  status: ('A' for Active; 'I' for Inactive)
REMARK    1  A    between atoms: C_1  and  C_2
REMARK    2  A    between atoms: C_2  and  N_3
REMARK    3  A    between atoms: C_5  and  C_6
REMARK    4  A    between atoms: C_7  and  C_8
REMARK    5  A    between atoms: C_9  and  C_10
REMARK    6  A    between atoms: N_11  and  C_12
REMARK    7  A    between atoms: C_12  and  C_13
REMARK    8  A    between atoms: C_17  and  S_18
REMARK    9  A    between atoms: C_24  and  C_25
REMARK   10  A    between atoms: C_24  and  C_26
REMARK   11  A    between atoms: C_27  and  C_28
REMARK   12  A    between atoms: C_27  and  C_29
REMARK   13  A    between atoms: C_29  and  C_30
REMARK   14  A    between atoms: C_30  and  C_31
REMARK   15  A    between atoms: C_31  and  C_32
REMARK   16  A    between atoms: N_34  and  C_35
REMARK   17  A    between atoms: C_35  and  C_36
REMARK   18  A    between atoms: C_36  and  N_37
REMARK   19  A    between atoms: C_39  and  C_40
REMARK   20  A    between atoms: C_40  and  N_41
REMARK   21  A    between atoms: C_42  and  C_44
REMARK   22  A    between atoms: C_44  and  C_45
REMARK   23  A    between atoms: C_45  and  C_46
REMARK   24  A    between atoms: N_48  and  C_49
REMARK   25  A    between atoms: C_54  and  C_56
REMARK   26  A    between atoms: C_59  and  N_60
REMARK   27  A    between atoms: C_61  and  C_63
REMARK   28  A    between atoms: C_68  and  C_69
REMARK   29  A    between atoms: C_87  and  S_88
REMARK   30  A    between atoms: S_88  and  O_91
REMARK                            x       y       z     vdW  Elec       q    Type
REMARK                         _______ _______ _______ _____ _____    ______ ____
ROOT
ATOM      1  N   UNL     1      -8.067   5.273 130.536  0.00  0.00    +0.000 N 
ATOM      2  C   UNL     1      -7.418   6.250 131.218  0.00  0.00    +0.000 A 
ATOM      3  C   UNL     1      -6.157   6.308 130.673  0.00  0.00    +0.000 A 
ATOM      4  N   UNL     1      -6.088   5.362 129.671  0.00  0.00    +0.000 NA
ATOM      5  N   UNL     1      -7.266   4.734 129.601  0.00  0.00    +0.000 NA
ENDROOT
BRANCH   3   6
ATOM      6  C   UNL     1      -5.023   7.214 131.059  0.00  0.00    +0.000 C 
BRANCH   6   7
ATOM      7  N   UNL     1      -4.252   6.678 132.222  0.00  0.00    +0.000 N 
ATOM      8  C   UNL     1      -3.105   5.893 132.060  0.00  0.00    +0.000 C 
ATOM      9  O   UNL     1      -2.705   5.624 130.929  0.00  0.00    +0.000 OA
ATOM     10  H   UNL     1      -4.595   6.913 133.141  0.00  0.00    +0.000 HD
BRANCH   8  11
ATOM     11  C   UNL     1      -2.325   5.349 133.353  0.00  0.00    +0.000 C 
BRANCH  11  12
ATOM     12  C   UNL     1      -1.379   6.560 134.293  0.00  0.00    +0.000 C 
BRANCH  12  13
ATOM     13  C   UNL     1      -1.911   7.087 136.098  0.00  0.00    +0.000 C 
ATOM     14  O   UNL     1      -0.779   7.149 136.657  0.00  0.00    +0.000 OA
ATOM     15  N   UNL     1      -3.546   7.517 136.837  0.00  0.00    +0.000 N 
ATOM     16  H   UNL     1      -3.875   6.905 136.041  0.00  0.00    +0.000 HD
BRANCH  15  17
ATOM     17  C   UNL     1      -4.859   8.155 138.257  0.00  0.00    +0.000 C 
ATOM     18  C   UNL     1      -4.332   9.341 137.581  0.00  0.00    +0.000 C 
ATOM     19  C   UNL     1      -5.822   9.132 137.445  0.00  0.00    +0.000 C 
ATOM     20  C   UNL     1      -5.930  10.354 138.069  0.00  0.00    +0.000 C 
ATOM     21  N   UNL     1      -7.489  10.085 138.187  0.00  0.00    +0.000 N 
ATOM     22  C   UNL     1      -8.398   8.792 138.393  0.00  0.00    +0.000 C 
ATOM     23  O   UNL     1      -9.475   8.815 139.006  0.00  0.00    +0.000 OA
ATOM     24  C   UNL     1      -7.125  10.454 139.389  0.00  0.00    +0.000 A 
ATOM     25  C   UNL     1      -7.275  12.198 139.493  0.00  0.00    +0.000 A 
ATOM     26  C   UNL     1      -7.390  13.032 140.551  0.00  0.00    +0.000 A 
ATOM     27  C   UNL     1      -7.678  12.078 141.420  0.00  0.00    +0.000 A 
ATOM     28  C   UNL     1      -7.086  10.354 140.965  0.00  0.00    +0.000 A 
ATOM     29  C   UNL     1      -6.227   9.133 139.838  0.00  0.00    +0.000 A 
BRANCH  22  30
ATOM     30  C   UNL     1      -8.047   7.414 137.715  0.00  0.00    +0.000 A 
ATOM     31  C   UNL     1      -7.353   6.226 138.234  0.00  0.00    +0.000 A 
ATOM     32  C   UNL     1      -6.385   5.564 137.440  0.00  0.00    +0.000 A 
ATOM     33  C   UNL     1      -6.505   5.691 136.100  0.00  0.00    +0.000 A 
ATOM     34  C   UNL     1      -7.552   6.505 135.653  0.00  0.00    +0.000 A 
ATOM     35  C   UNL     1      -8.174   7.497 136.383  0.00  0.00    +0.000 A 
BRANCH  33  36
ATOM     36  N   UNL     1      -5.696   4.905 135.258  0.00  0.00    +0.000 N 
ATOM     37  C   UNL     1      -6.221   3.796 134.622  0.00  0.00    +0.000 C 
ATOM     38  O   UNL     1      -7.388   3.427 134.710  0.00  0.00    +0.000 OA
ATOM     39  H   UNL     1      -4.719   5.185 135.129  0.00  0.00    +0.000 HD
BRANCH  37  40
ATOM     40  C   UNL     1      -5.347   2.986 133.748  0.00  0.00    +0.000 A 
ATOM     41  C   UNL     1      -5.361   3.136 132.360  0.00  0.00    +0.000 A 
ATOM     42  C   UNL     1      -4.676   2.227 131.554  0.00  0.00    +0.000 A 
ATOM     43  C   UNL     1      -3.780   1.342 132.125  0.00  0.00    +0.000 A 
ATOM     44  C   UNL     1      -3.563   1.386 133.499  0.00  0.00    +0.000 A 
ATOM     45  C   UNL     1      -4.427   2.101 134.345  0.00  0.00    +0.000 A 
BRANCH  45  46
ATOM     46  C   UNL     1      -4.378   1.904 135.802  0.00  0.00    +0.000 A 
ATOM     47  C   UNL     1      -3.698   2.808 136.640  0.00  0.00    +0.000 A 
ATOM     48  C   UNL     1      -3.359   2.458 137.944  0.00  0.00    +0.000 A 
ATOM     49  C   UNL     1      -3.916   1.327 138.505  0.00  0.00    +0.000 A 
ATOM     50  C   UNL     1      -4.802   0.561 137.757  0.00  0.00    +0.000 A 
ATOM     51  C   UNL     1      -4.931   0.771 136.387  0.00  0.00    +0.000 A 
ENDBRANCH  45  46
ENDBRANCH  37  40
ENDBRANCH  33  36
ENDBRANCH  22  30
ENDBRANCH  15  17
ENDBRANCH  12  13
ENDBRANCH  11  12
ENDBRANCH   8  11
ENDBRANCH   6   7
ENDBRANCH   3   6
BRANCH   1  52
ATOM     52  C   UNL     1      -9.434   4.839 130.737  0.00  0.00    +0.000 C 
BRANCH  52  53
ATOM     53  C   UNL     1      -9.519   3.501 131.454  0.00  0.00    +0.000 C 
BRANCH  53  56
ATOM     54  C   UNL     1      -8.476   1.296 131.059  0.00  0.00    +0.000 C 
ATOM     55  O   UNL     1      -8.051   1.265 132.211  0.00  0.00    +0.000 OA
ATOM     56  N   UNL     1      -9.212   2.362 130.582  0.00  0.00    +0.000 N 
ATOM     57  H   UNL     1      -9.561   2.362 129.633  0.00  0.00    +0.000 HD
BRANCH  54  58
ATOM     58  C   UNL     1      -8.234   0.154 130.073  0.00  0.00    +0.000 C 
BRANCH  58  59
ATOM     59  C   UNL     1      -7.734   0.725 128.782  0.00  0.00    +0.000 C 
BRANCH  59  60
ATOM     60  C   UNL     1      -8.392   0.167 127.538  0.00  0.00    +0.000 C 
BRANCH  60  64
ATOM     61  N   UNL     1      -8.135  -0.928 124.235  0.00  0.00    +0.000 N 
ATOM     62  C   UNL     1      -7.804  -1.409 125.612  0.00  0.00    +0.000 C 
ATOM     63  C   UNL     1      -7.757  -2.600 126.310  0.00  0.00    +0.000 C 
ATOM     64  C   UNL     1      -7.403  -0.140 126.402  0.00  0.00    +0.000 C 
ATOM     65  C   UNL     1      -5.923  -0.170 126.743  0.00  0.00    +0.000 C 
ATOM     66  C   UNL     1      -7.509   0.980 125.418  0.00  0.00    +0.000 A 
ATOM     67  C   UNL     1      -7.158   2.323 125.741  0.00  0.00    +0.000 A 
ATOM     68  C   UNL     1      -7.373   3.349 124.879  0.00  0.00    +0.000 A 
ATOM     69  C   UNL     1      -7.799   2.968 123.618  0.00  0.00    +0.000 A 
ATOM     70  C   UNL     1      -8.056   1.561 123.274  0.00  0.00    +0.000 A 
ATOM     71  C   UNL     1      -7.941   0.510 124.192  0.00  0.00    +0.000 A 
BRANCH  68  72
ATOM     72  S   UNL     1      -7.022   5.012 125.453  0.00  0.00    +0.000 S 
ATOM     73  O   UNL     1      -6.071   5.610 124.538  0.00  0.00    +0.000 OA
ATOM     74  O   UNL     1      -8.289   5.650 125.736  0.00  0.00    +0.000 OA
BRANCH  72  75
ATOM     75  O   UNL     1      -6.250   4.792 126.861  0.00  0.00    +0.000 OA
ATOM     76  H   UNL     1      -5.288   4.669 126.739  0.00  0.00    +0.000 HD
ENDBRANCH  72  75
ENDBRANCH  68  72
BRANCH  63  77
ATOM     77  C   UNL     1      -7.380  -2.809 127.760  0.00  0.00    +0.000 C 
ATOM     78  C   UNL     1      -8.159  -3.310 128.738  0.00  0.00    +0.000 C 
BRANCH  78  79
ATOM     79  C   UNL     1      -7.641  -3.452 130.088  0.00  0.00    +0.000 C 
ATOM     80  C   UNL     1      -6.480  -3.014 130.574  0.00  0.00    +0.000 C 
BRANCH  80  81
ATOM     81  C   UNL     1      -5.604  -2.986 131.853  0.00  0.00    +0.000 C 
ATOM     82  N   UNL     1      -4.381  -3.372 131.926  0.00  0.00    +0.000 N 
ATOM     83  C   UNL     1      -3.848  -3.468 133.247  0.00  0.00    +0.000 A 
ATOM     84  C   UNL     1      -4.403  -4.095 134.409  0.00  0.00    +0.000 A 
ATOM     85  C   UNL     1      -4.165  -3.699 135.811  0.00  0.00    +0.000 A 
ATOM     86  C   UNL     1      -3.142  -2.863 136.096  0.00  0.00    +0.000 A 
ATOM     87  C   UNL     1      -2.880  -2.191 134.929  0.00  0.00    +0.000 A 
ATOM     88  C   UNL     1      -3.965  -2.235 133.656  0.00  0.00    +0.000 A 
ATOM     89  C   UNL     1      -5.890  -2.624 133.327  0.00  0.00    +0.000 C 
ATOM     90  C   UNL     1      -6.223  -1.310 133.882  0.00  0.00    +0.000 C 
ATOM     91  C   UNL     1      -7.689  -2.678 132.858  0.00  0.00    +0.000 C 
BRANCH  86  92
ATOM     92  S   UNL     1      -2.569  -2.569 137.851  0.00  0.00    +0.000 S 
ATOM     93  O   UNL     1      -1.768  -3.768 138.074  0.00  0.00    +0.000 OA
ATOM     94  O   UNL     1      -1.798  -1.332 137.742  0.00  0.00    +0.000 OA
ATOM     95  O   UNL     1      -3.784  -2.467 138.653  0.00  0.00    +0.000 OA
ENDBRANCH  86  92
BRANCH  82  96
ATOM     96  C   UNL     1      -3.390  -3.339 130.859  0.00  0.00    +0.000 C 
ATOM     97  C   UNL     1      -3.309  -1.963 130.310  0.00  0.00    +0.000 C 
ENDBRANCH  82  96
ENDBRANCH  80  81
ENDBRANCH  78  79
ENDBRANCH  63  77
BRANCH  61  99
ATOM     98  C   UNL     1      -9.421  -2.980 123.421  0.00  0.00    +0.000 C 
ATOM     99  C   UNL     1      -8.629  -1.726 123.031  0.00  0.00    +0.000 C 
ENDBRANCH  61  99
ENDBRANCH  60  64
ENDBRANCH  59  60
ENDBRANCH  58  59
ENDBRANCH  54  58
ENDBRANCH  53  56
ENDBRANCH  52  53
ENDBRANCH   1  52
TORSDOF 25
ENDMDL
MODEL 8
REMARK VINA RESULT:     -10.0      2.125      4.819
REMARK  Name = CHEMBL2172289
REMARK  30 active torsions:
REMARK  status: ('A' for Active; 'I' for Inactive)
REMARK    1  A    between atoms: C_1  and  C_2
REMARK    2  A    between atoms: C_2  and  N_3
REMARK    3  A    between atoms: C_5  and  C_6
REMARK    4  A    between atoms: C_7  and  C_8
REMARK    5  A    between atoms: C_9  and  C_10
REMARK    6  A    between atoms: N_11  and  C_12
REMARK    7  A    between atoms: C_12  and  C_13
REMARK    8  A    between atoms: C_17  and  S_18
REMARK    9  A    between atoms: C_24  and  C_25
REMARK   10  A    between atoms: C_24  and  C_26
REMARK   11  A    between atoms: C_27  and  C_28
REMARK   12  A    between atoms: C_27  and  C_29
REMARK   13  A    between atoms: C_29  and  C_30
REMARK   14  A    between atoms: C_30  and  C_31
REMARK   15  A    between atoms: C_31  and  C_32
REMARK   16  A    between atoms: N_34  and  C_35
REMARK   17  A    between atoms: C_35  and  C_36
REMARK   18  A    between atoms: C_36  and  N_37
REMARK   19  A    between atoms: C_39  and  C_40
REMARK   20  A    between atoms: C_40  and  N_41
REMARK   21  A    between atoms: C_42  and  C_44
REMARK   22  A    between atoms: C_44  and  C_45
REMARK   23  A    between atoms: C_45  and  C_46
REMARK   24  A    between atoms: N_48  and  C_49
REMARK   25  A    between atoms: C_54  and  C_56
REMARK   26  A    between atoms: C_59  and  N_60
REMARK   27  A    between atoms: C_61  and  C_63
REMARK   28  A    between atoms: C_68  and  C_69
REMARK   29  A    between atoms: C_87  and  S_88
REMARK   30  A    between atoms: S_88  and  O_91
REMARK                            x       y       z     vdW  Elec       q    Type
REMARK                         _______ _______ _______ _____ _____    ______ ____
ROOT
ATOM      1  N   UNL     1      -9.554   5.936 130.666  0.00  0.00    +0.000 N 
ATOM      2  C   UNL     1      -8.649   5.586 131.615  0.00  0.00    +0.000 A 
ATOM      3  C   UNL     1      -9.220   5.933 132.817  0.00  0.00    +0.000 A 
ATOM      4  N   UNL     1     -10.459   6.478 132.552  0.00  0.00    +0.000 NA
ATOM      5  N   UNL     1     -10.649   6.474 131.229  0.00  0.00    +0.000 NA
ENDROOT
BRANCH   3   6
ATOM      6  C   UNL     1      -8.645   5.772 134.194  0.00  0.00    +0.000 C 
BRANCH   6   7
ATOM      7  N   UNL     1      -7.251   5.233 134.158  0.00  0.00    +0.000 N 
ATOM      8  C   UNL     1      -6.981   3.861 134.126  0.00  0.00    +0.000 C 
ATOM      9  O   UNL     1      -7.910   3.056 134.130  0.00  0.00    +0.000 OA
ATOM     10  H   UNL     1      -6.504   5.910 134.153  0.00  0.00    +0.000 HD
BRANCH   8  11
ATOM     11  C   UNL     1      -5.460   3.350 134.090  0.00  0.00    +0.000 C 
BRANCH  11  12
ATOM     12  C   UNL     1      -4.331   4.098 135.278  0.00  0.00    +0.000 C 
BRANCH  12  13
ATOM     13  C   UNL     1      -3.965   6.018 135.265  0.00  0.00    +0.000 C 
ATOM     14  O   UNL     1      -5.054   6.458 135.730  0.00  0.00    +0.000 OA
ATOM     15  N   UNL     1      -2.458   6.993 134.839  0.00  0.00    +0.000 N 
ATOM     16  H   UNL     1      -2.269   6.129 134.264  0.00  0.00    +0.000 HD
BRANCH  15  17
ATOM     17  C   UNL     1      -1.278   8.642 134.642  0.00  0.00    +0.000 C 
ATOM     18  C   UNL     1      -1.976   8.447 133.371  0.00  0.00    +0.000 C 
ATOM     19  C   UNL     1      -2.286   9.743 134.083  0.00  0.00    +0.000 C 
ATOM     20  C   UNL     1      -1.784  10.346 132.952  0.00  0.00    +0.000 C 
ATOM     21  N   UNL     1      -1.848  11.724 133.735  0.00  0.00    +0.000 N 
ATOM     22  C   UNL     1      -1.656  12.168 135.255  0.00  0.00    +0.000 C 
ATOM     23  O   UNL     1      -1.192  13.270 135.582  0.00  0.00    +0.000 OA
ATOM     24  C   UNL     1      -0.644  11.690 133.224  0.00  0.00    +0.000 A 
ATOM     25  C   UNL     1      -0.705  12.429 131.635  0.00  0.00    +0.000 A 
ATOM     26  C   UNL     1       0.257  12.974 130.856  0.00  0.00    +0.000 A 
ATOM     27  C   UNL     1       1.157  13.052 131.821  0.00  0.00    +0.000 A 
ATOM     28  C   UNL     1       0.927  11.857 133.252  0.00  0.00    +0.000 A 
ATOM     29  C   UNL     1       0.026  10.480 134.141  0.00  0.00    +0.000 A 
BRANCH  22  30
ATOM     30  C   UNL     1      -2.166  11.278 136.450  0.00  0.00    +0.000 A 
ATOM     31  C   UNL     1      -1.456  10.347 137.339  0.00  0.00    +0.000 A 
ATOM     32  C   UNL     1      -2.028   9.092 137.659  0.00  0.00    +0.000 A 
ATOM     33  C   UNL     1      -3.374   9.001 137.594  0.00  0.00    +0.000 A 
ATOM     34  C   UNL     1      -4.047  10.154 137.173  0.00  0.00    +0.000 A 
ATOM     35  C   UNL     1      -3.503  11.181 136.429  0.00  0.00    +0.000 A 
BRANCH  33  36
ATOM     36  N   UNL     1      -4.010   7.845 138.083  0.00  0.00    +0.000 N 
ATOM     37  C   UNL     1      -4.474   7.800 139.385  0.00  0.00    +0.000 C 
ATOM     38  O   UNL     1      -4.396   8.726 140.186  0.00  0.00    +0.000 OA
ATOM     39  H   UNL     1      -4.125   7.051 137.445  0.00  0.00    +0.000 HD
BRANCH  37  40
ATOM     40  C   UNL     1      -5.132   6.571 139.873  0.00  0.00    +0.000 A 
ATOM     41  C   UNL     1      -4.418   5.578 140.548  0.00  0.00    +0.000 A 
ATOM     42  C   UNL     1      -5.019   4.350 140.819  0.00  0.00    +0.000 A 
ATOM     43  C   UNL     1      -6.385   4.203 140.658  0.00  0.00    +0.000 A 
ATOM     44  C   UNL     1      -7.142   5.294 140.243  0.00  0.00    +0.000 A 
ATOM     45  C   UNL     1      -6.526   6.442 139.716  0.00  0.00    +0.000 A 
BRANCH  45  46
ATOM     46  C   UNL     1      -7.322   7.458 139.008  0.00  0.00    +0.000 A 
ATOM     47  C   UNL     1      -7.652   8.683 139.616  0.00  0.00    +0.000 A 
ATOM     48  C   UNL     1      -8.667   9.486 139.102  0.00  0.00    +0.000 A 
ATOM     49  C   UNL     1      -9.173   9.212 137.847  0.00  0.00    +0.000 A 
ATOM     50  C   UNL     1      -8.661   8.141 137.125  0.00  0.00    +0.000 A 
ATOM     51  C   UNL     1      -7.842   7.201 137.745  0.00  0.00    +0.000 A 
ENDBRANCH  45  46
ENDBRANCH  37  40
ENDBRANCH  33  36
ENDBRANCH  22  30
ENDBRANCH  15  17
ENDBRANCH  12  13
ENDBRANCH  11  12
ENDBRANCH   8  11
ENDBRANCH   6   7
ENDBRANCH   3   6
BRANCH   1  52
ATOM     52  C   UNL     1      -9.417   5.763 129.234  0.00  0.00    +0.000 C 
BRANCH  52  53
ATOM     53  C   UNL     1      -8.256   4.853 128.868  0.00  0.00    +0.000 C 
BRANCH  53  56
ATOM     54  C   UNL     1      -7.792   2.564 129.676  0.00  0.00    +0.000 C 
ATOM     55  O   UNL     1      -6.778   2.949 130.253  0.00  0.00    +0.000 OA
ATOM     56  N   UNL     1      -8.593   3.428 128.957  0.00  0.00    +0.000 N 
ATOM     57  H   UNL     1      -9.429   3.092 128.498  0.00  0.00    +0.000 HD
BRANCH  54  58
ATOM     58  C   UNL     1      -8.250   1.107 129.721  0.00  0.00    +0.000 C 
BRANCH  58  59
ATOM     59  C   UNL     1      -7.407   0.304 128.779  0.00  0.00    +0.000 C 
BRANCH  59  60
ATOM     60  C   UNL     1      -7.980   0.143 127.387  0.00  0.00    +0.000 C 
BRANCH  60  64
ATOM     61  N   UNL     1      -7.659  -1.341 124.246  0.00  0.00    +0.000 N 
ATOM     62  C   UNL     1      -7.468  -1.697 125.686  0.00  0.00    +0.000 C 
ATOM     63  C   UNL     1      -7.601  -2.799 126.508  0.00  0.00    +0.000 C 
ATOM     64  C   UNL     1      -6.969  -0.398 126.363  0.00  0.00    +0.000 C 
ATOM     65  C   UNL     1      -5.525  -0.551 126.810  0.00  0.00    +0.000 C 
ATOM     66  C   UNL     1      -6.885   0.608 125.261  0.00  0.00    +0.000 A 
ATOM     67  C   UNL     1      -6.400   1.933 125.464  0.00  0.00    +0.000 A 
ATOM     68  C   UNL     1      -6.443   2.872 124.485  0.00  0.00    +0.000 A 
ATOM     69  C   UNL     1      -6.836   2.399 123.245  0.00  0.00    +0.000 A 
ATOM     70  C   UNL     1      -7.235   0.998 123.034  0.00  0.00    +0.000 A 
ATOM     71  C   UNL     1      -7.297   0.052 124.064  0.00  0.00    +0.000 A 
BRANCH  68  72
ATOM     72  S   UNL     1      -5.935   4.540 124.903  0.00  0.00    +0.000 S 
ATOM     73  O   UNL     1      -7.090   5.243 125.422  0.00  0.00    +0.000 OA
ATOM     74  O   UNL     1      -4.713   4.441 125.672  0.00  0.00    +0.000 OA
BRANCH  72  75
ATOM     75  O   UNL     1      -5.572   5.216 123.476  0.00  0.00    +0.000 OA
ATOM     76  H   UNL     1      -5.996   6.089 123.363  0.00  0.00    +0.000 HD
ENDBRANCH  72  75
ENDBRANCH  68  72
BRANCH  63  77
ATOM     77  C   UNL     1      -7.336  -2.882 127.995  0.00  0.00    +0.000 C 
ATOM     78  C   UNL     1      -8.231  -3.152 128.965  0.00  0.00    +0.000 C 
BRANCH  78  79
ATOM     79  C   UNL     1      -7.812  -3.200 130.355  0.00  0.00    +0.000 C 
ATOM     80  C   UNL     1      -6.578  -3.094 130.847  0.00  0.00    +0.000 C 
BRANCH  80  81
ATOM     81  C   UNL     1      -5.763  -3.119 132.166  0.00  0.00    +0.000 C 
ATOM     82  N   UNL     1      -5.396  -2.084 132.834  0.00  0.00    +0.000 N 
ATOM     83  C   UNL     1      -4.467  -2.335 133.887  0.00  0.00    +0.000 A 
ATOM     84  C   UNL     1      -3.251  -3.093 133.867  0.00  0.00    +0.000 A 
ATOM     85  C   UNL     1      -2.652  -3.810 135.010  0.00  0.00    +0.000 A 
ATOM     86  C   UNL     1      -3.091  -3.544 136.260  0.00  0.00    +0.000 A 
ATOM     87  C   UNL     1      -4.350  -3.021 136.104  0.00  0.00    +0.000 A 
ATOM     88  C   UNL     1      -5.152  -3.148 134.641  0.00  0.00    +0.000 A 
ATOM     89  C   UNL     1      -5.102  -4.250 132.983  0.00  0.00    +0.000 C 
ATOM     90  C   UNL     1      -5.761  -5.335 133.716  0.00  0.00    +0.000 C 
ATOM     91  C   UNL     1      -5.395  -5.325 131.494  0.00  0.00    +0.000 C 
BRANCH  86  92
ATOM     92  S   UNL     1      -2.182  -4.153 137.775  0.00  0.00    +0.000 S 
ATOM     93  O   UNL     1      -0.823  -4.244 137.251  0.00  0.00    +0.000 OA
ATOM     94  O   UNL     1      -2.393  -3.076 138.740  0.00  0.00    +0.000 OA
ATOM     95  O   UNL     1      -2.806  -5.425 138.127  0.00  0.00    +0.000 OA
ENDBRANCH  86  92
BRANCH  82  96
ATOM     96  C   UNL     1      -6.087  -0.804 132.909  0.00  0.00    +0.000 C 
ATOM     97  C   UNL     1      -5.346   0.199 132.105  0.00  0.00    +0.000 C 
ENDBRANCH  82  96
ENDBRANCH  80  81
ENDBRANCH  78  79
ENDBRANCH  63  77
BRANCH  61  99
ATOM     98  C   UNL     1      -9.504  -2.904 123.417  0.00  0.00    +0.000 C 
ATOM     99  C   UNL     1      -8.172  -2.212 123.100  0.00  0.00    +0.000 C 
ENDBRANCH  61  99
ENDBRANCH  60  64
ENDBRANCH  59  60
ENDBRANCH  58  59
ENDBRANCH  54  58
ENDBRANCH  53  56
ENDBRANCH  52  53
ENDBRANCH   1  52
TORSDOF 25
ENDMDL
MODEL 9
REMARK VINA RESULT:     -10.0      3.561     12.412
REMARK  Name = CHEMBL2172289
REMARK  30 active torsions:
REMARK  status: ('A' for Active; 'I' for Inactive)
REMARK    1  A    between atoms: C_1  and  C_2
REMARK    2  A    between atoms: C_2  and  N_3
REMARK    3  A    between atoms: C_5  and  C_6
REMARK    4  A    between atoms: C_7  and  C_8
REMARK    5  A    between atoms: C_9  and  C_10
REMARK    6  A    between atoms: N_11  and  C_12
REMARK    7  A    between atoms: C_12  and  C_13
REMARK    8  A    between atoms: C_17  and  S_18
REMARK    9  A    between atoms: C_24  and  C_25
REMARK   10  A    between atoms: C_24  and  C_26
REMARK   11  A    between atoms: C_27  and  C_28
REMARK   12  A    between atoms: C_27  and  C_29
REMARK   13  A    between atoms: C_29  and  C_30
REMARK   14  A    between atoms: C_30  and  C_31
REMARK   15  A    between atoms: C_31  and  C_32
REMARK   16  A    between atoms: N_34  and  C_35
REMARK   17  A    between atoms: C_35  and  C_36
REMARK   18  A    between atoms: C_36  and  N_37
REMARK   19  A    between atoms: C_39  and  C_40
REMARK   20  A    between atoms: C_40  and  N_41
REMARK   21  A    between atoms: C_42  and  C_44
REMARK   22  A    between atoms: C_44  and  C_45
REMARK   23  A    between atoms: C_45  and  C_46
REMARK   24  A    between atoms: N_48  and  C_49
REMARK   25  A    between atoms: C_54  and  C_56
REMARK   26  A    between atoms: C_59  and  N_60
REMARK   27  A    between atoms: C_61  and  C_63
REMARK   28  A    between atoms: C_68  and  C_69
REMARK   29  A    between atoms: C_87  and  S_88
REMARK   30  A    between atoms: S_88  and  O_91
REMARK                            x       y       z     vdW  Elec       q    Type
REMARK                         _______ _______ _______ _____ _____    ______ ____
ROOT
ATOM      1  N   UNL     1      -2.787   6.662 133.054  0.00  0.00    +0.000 N 
ATOM      2  C   UNL     1      -2.756   7.274 131.843  0.00  0.00    +0.000 A 
ATOM      3  C   UNL     1      -2.195   6.362 130.981  0.00  0.00    +0.000 A 
ATOM      4  N   UNL     1      -1.909   5.221 131.703  0.00  0.00    +0.000 NA
ATOM      5  N   UNL     1      -2.276   5.421 132.972  0.00  0.00    +0.000 NA
ENDROOT
BRANCH   3   6
ATOM      6  C   UNL     1      -1.919   6.524 129.514  0.00  0.00    +0.000 C 
BRANCH   6   7
ATOM      7  N   UNL     1      -2.565   5.448 128.702  0.00  0.00    +0.000 N 
ATOM      8  C   UNL     1      -3.657   5.699 127.863  0.00  0.00    +0.000 C 
ATOM      9  O   UNL     1      -4.114   6.837 127.781  0.00  0.00    +0.000 OA
ATOM     10  H   UNL     1      -2.173   4.523 128.782  0.00  0.00    +0.000 HD
BRANCH   8  11
ATOM     11  C   UNL     1      -4.304   4.496 127.020  0.00  0.00    +0.000 C 
BRANCH  11  12
ATOM     12  C   UNL     1      -3.548   2.873 127.220  0.00  0.00    +0.000 C 
BRANCH  12  13
ATOM     13  C   UNL     1      -3.812   1.822 128.847  0.00  0.00    +0.000 C 
ATOM     14  O   UNL     1      -3.790   2.741 129.715  0.00  0.00    +0.000 OA
ATOM     15  N   UNL     1      -4.137   0.028 129.128  0.00  0.00    +0.000 N 
ATOM     16  H   UNL     1      -3.647  -0.033 128.195  0.00  0.00    +0.000 HD
BRANCH  15  17
ATOM     17  C   UNL     1      -4.570  -1.662 130.178  0.00  0.00    +0.000 C 
ATOM     18  C   UNL     1      -3.800  -0.785 131.059  0.00  0.00    +0.000 C 
ATOM     19  C   UNL     1      -5.201  -1.098 131.529  0.00  0.00    +0.000 C 
ATOM     20  C   UNL     1      -4.581  -1.642 132.631  0.00  0.00    +0.000 C 
ATOM     21  N   UNL     1      -5.994  -2.222 133.060  0.00  0.00    +0.000 N 
ATOM     22  C   UNL     1      -7.273  -2.769 132.281  0.00  0.00    +0.000 C 
ATOM     23  O   UNL     1      -8.005  -3.662 132.730  0.00  0.00    +0.000 OA
ATOM     24  C   UNL     1      -5.177  -3.240 133.152  0.00  0.00    +0.000 A 
ATOM     25  C   UNL     1      -4.516  -3.263 134.777  0.00  0.00    +0.000 A 
ATOM     26  C   UNL     1      -3.946  -4.250 135.505  0.00  0.00    +0.000 A 
ATOM     27  C   UNL     1      -4.356  -5.228 134.715  0.00  0.00    +0.000 A 
ATOM     28  C   UNL     1      -4.733  -4.741 132.940  0.00  0.00    +0.000 A 
ATOM     29  C   UNL     1      -4.856  -3.501 131.546  0.00  0.00    +0.000 A 
BRANCH  22  30
ATOM     30  C   UNL     1      -7.768  -2.113 130.937  0.00  0.00    +0.000 A 
ATOM     31  C   UNL     1      -7.866  -2.653 129.573  0.00  0.00    +0.000 A 
ATOM     32  C   UNL     1      -7.449  -1.873 128.467  0.00  0.00    +0.000 A 
ATOM     33  C   UNL     1      -7.485  -0.531 128.620  0.00  0.00    +0.000 A 
ATOM     34  C   UNL     1      -7.889  -0.067 129.877  0.00  0.00    +0.000 A 
ATOM     35  C   UNL     1      -7.834  -0.779 131.057  0.00  0.00    +0.000 A 
BRANCH  33  36
ATOM     36  N   UNL     1      -7.268   0.295 127.501  0.00  0.00    +0.000 N 
ATOM     37  C   UNL     1      -8.257   0.451 126.547  0.00  0.00    +0.000 C 
ATOM     38  O   UNL     1      -9.365  -0.072 126.597  0.00  0.00    +0.000 OA
ATOM     39  H   UNL     1      -6.368   0.777 127.424  0.00  0.00    +0.000 HD
BRANCH  37  40
ATOM     40  C   UNL     1      -8.000   1.320 125.380  0.00  0.00    +0.000 A 
ATOM     41  C   UNL     1      -8.209   2.700 125.437  0.00  0.00    +0.000 A 
ATOM     42  C   UNL     1      -8.149   3.462 124.271  0.00  0.00    +0.000 A 
ATOM     43  C   UNL     1      -7.634   2.908 123.114  0.00  0.00    +0.000 A 
ATOM     44  C   UNL     1      -7.164   1.598 123.137  0.00  0.00    +0.000 A 
ATOM     45  C   UNL     1      -7.459   0.745 124.213  0.00  0.00    +0.000 A 
BRANCH  45  46
ATOM     46  C   UNL     1      -7.226  -0.704 124.103  0.00  0.00    +0.000 A 
ATOM     47  C   UNL     1      -8.245  -1.580 123.685  0.00  0.00    +0.000 A 
ATOM     48  C   UNL     1      -8.143  -2.951 123.903  0.00  0.00    +0.000 A 
ATOM     49  C   UNL     1      -6.931  -3.484 124.291  0.00  0.00    +0.000 A 
ATOM     50  C   UNL     1      -5.838  -2.642 124.458  0.00  0.00    +0.000 A 
ATOM     51  C   UNL     1      -6.013  -1.261 124.491  0.00  0.00    +0.000 A 
ENDBRANCH  45  46
ENDBRANCH  37  40
ENDBRANCH  33  36
ENDBRANCH  22  30
ENDBRANCH  15  17
ENDBRANCH  12  13
ENDBRANCH  11  12
ENDBRANCH   8  11
ENDBRANCH   6   7
ENDBRANCH   3   6
BRANCH   1  52
ATOM     52  C   UNL     1      -3.300   7.215 134.290  0.00  0.00    +0.000 C 
BRANCH  52  53
ATOM     53  C   UNL     1      -4.500   6.445 134.818  0.00  0.00    +0.000 C 
BRANCH  53  56
ATOM     54  C   UNL     1      -4.734   5.731 137.172  0.00  0.00    +0.000 C 
ATOM     55  O   UNL     1      -5.526   6.643 137.394  0.00  0.00    +0.000 OA
ATOM     56  N   UNL     1      -4.164   5.548 135.928  0.00  0.00    +0.000 N 
ATOM     57  H   UNL     1      -3.522   4.784 135.764  0.00  0.00    +0.000 HD
BRANCH  54  58
ATOM     58  C   UNL     1      -4.330   4.725 138.249  0.00  0.00    +0.000 C 
BRANCH  58  59
ATOM     59  C   UNL     1      -4.636   3.342 137.760  0.00  0.00    +0.000 C 
BRANCH  59  60
ATOM     60  C   UNL     1      -3.434   2.433 137.623  0.00  0.00    +0.000 C 
BRANCH  60  64
ATOM     61  N   UNL     1      -2.030  -0.749 137.915  0.00  0.00    +0.000 N 
ATOM     62  C   UNL     1      -3.139  -0.068 137.177  0.00  0.00    +0.000 C 
ATOM     63  C   UNL     1      -3.769  -0.148 135.950  0.00  0.00    +0.000 C 
ATOM     64  C   UNL     1      -3.675   1.009 138.151  0.00  0.00    +0.000 C 
ATOM     65  C   UNL     1      -5.078   0.656 138.614  0.00  0.00    +0.000 C 
ATOM     66  C   UNL     1      -2.853   0.858 139.389  0.00  0.00    +0.000 A 
ATOM     67  C   UNL     1      -3.080   1.634 140.562  0.00  0.00    +0.000 A 
ATOM     68  C   UNL     1      -2.252   1.573 141.636  0.00  0.00    +0.000 A 
ATOM     69  C   UNL     1      -1.280   0.589 141.564  0.00  0.00    +0.000 A 
ATOM     70  C   UNL     1      -1.130  -0.273 140.382  0.00  0.00    +0.000 A 
ATOM     71  C   UNL     1      -1.911  -0.142 139.227  0.00  0.00    +0.000 A 
BRANCH  68  72
ATOM     72  S   UNL     1      -2.560   2.701 142.995  0.00  0.00    +0.000 S 
ATOM     73  O   UNL     1      -3.617   2.139 143.812  0.00  0.00    +0.000 OA
ATOM     74  O   UNL     1      -1.279   3.051 143.569  0.00  0.00    +0.000 OA
BRANCH  72  75
ATOM     75  O   UNL     1      -3.166   4.025 142.284  0.00  0.00    +0.000 OA
ATOM     76  H   UNL     1      -3.272   4.766 142.913  0.00  0.00    +0.000 HD
ENDBRANCH  72  75
ENDBRANCH  68  72
BRANCH  63  77
ATOM     77  C   UNL     1      -4.908   0.706 135.437  0.00  0.00    +0.000 C 
ATOM     78  C   UNL     1      -4.863   1.600 134.431  0.00  0.00    +0.000 C 
BRANCH  78  79
ATOM     79  C   UNL     1      -6.055   2.341 134.056  0.00  0.00    +0.000 C 
ATOM     80  C   UNL     1      -6.378   2.829 132.858  0.00  0.00    +0.000 C 
BRANCH  80  81
ATOM     81  C   UNL     1      -7.460   3.642 132.101  0.00  0.00    +0.000 C 
ATOM     82  N   UNL     1      -8.645   3.228 131.828  0.00  0.00    +0.000 N 
ATOM     83  C   UNL     1      -9.388   4.054 130.931  0.00  0.00    +0.000 A 
ATOM     84  C   UNL     1      -8.996   4.613 129.672  0.00  0.00    +0.000 A 
ATOM     85  C   UNL     1      -9.501   5.868 129.080  0.00  0.00    +0.000 A 
ATOM     86  C   UNL     1     -10.616   6.435 129.589  0.00  0.00    +0.000 A 
ATOM     87  C   UNL     1     -10.723   5.954 130.869  0.00  0.00    +0.000 A 
ATOM     88  C   UNL     1      -9.435   5.173 131.598  0.00  0.00    +0.000 A 
ATOM     89  C   UNL     1      -7.459   5.021 131.408  0.00  0.00    +0.000 C 
ATOM     90  C   UNL     1      -7.325   6.341 132.031  0.00  0.00    +0.000 C 
ATOM     91  C   UNL     1      -5.607   4.960 131.570  0.00  0.00    +0.000 C 
BRANCH  86  92
ATOM     92  S   UNL     1     -11.502   7.827 128.710  0.00  0.00    +0.000 S 
ATOM     93  O   UNL     1     -12.334   7.069 127.782  0.00  0.00    +0.000 OA
ATOM     94  O   UNL     1     -12.236   8.483 129.791  0.00  0.00    +0.000 OA
ATOM     95  O   UNL     1     -10.456   8.639 128.097  0.00  0.00    +0.000 OA
ENDBRANCH  86  92
BRANCH  82  96
ATOM     96  C   UNL     1      -9.438   2.280 132.598  0.00  0.00    +0.000 C 
ATOM     97  C   UNL     1     -10.512   1.727 131.736  0.00  0.00    +0.000 C 
ENDBRANCH  82  96
ENDBRANCH  80  81
ENDBRANCH  78  79
ENDBRANCH  63  77
BRANCH  61  99
ATOM     98  C   UNL     1       0.343  -1.412 137.235  0.00  0.00    +0.000 C 
ATOM     99  C   UNL     1      -1.107  -1.870 137.442  0.00  0.00    +0.000 C 
ENDBRANCH  61  99
ENDBRANCH  60  64
ENDBRANCH  59  60
ENDBRANCH  58  59
ENDBRANCH  54  58
ENDBRANCH  53  56
ENDBRANCH  52  53
ENDBRANCH   1  52
TORSDOF 25
ENDMDL
