MODEL 1
REMARK VINA RESULT:     -11.3      0.000      0.000
REMARK  Name = CHEMBL382515
REMARK  10 active torsions:
REMARK  status: ('A' for Active; 'I' for Inactive)
REMARK    1  A    between atoms: C_1  and  C_2
REMARK    2  A    between atoms: C_5  and  N_6
REMARK    3  A    between atoms: N_6  and  C_7
REMARK    4  A    between atoms: N_6  and  S_22
REMARK    5  A    between atoms: C_7  and  C_8
REMARK    6  A    between atoms: C_8  and  N_10
REMARK    7  A    between atoms: N_11  and  C_12
REMARK    8  A    between atoms: C_13  and  O_14
REMARK    9  A    between atoms: S_22  and  C_25
REMARK   10  A    between atoms: C_28  and  C_29
REMARK                            x       y       z     vdW  Elec       q    Type
REMARK                         _______ _______ _______ _____ _____    ______ ____
ROOT
ATOM      1  N   UNL     1      -7.939   2.933 123.996  0.00  0.00    +0.000 N 
ENDROOT
BRANCH   1   6
ATOM      2  C   UNL     1      -7.233   4.480 118.447  0.00  0.00    +0.000 C 
ATOM      3  C   UNL     1      -7.331   4.101 119.885  0.00  0.00    +0.000 A 
ATOM      4  C   UNL     1      -8.587   3.911 120.406  0.00  0.00    +0.000 A 
ATOM      5  C   UNL     1      -8.707   3.357 121.667  0.00  0.00    +0.000 A 
ATOM      6  C   UNL     1      -7.664   3.265 122.591  0.00  0.00    +0.000 A 
ATOM      7  C   UNL     1      -6.392   3.464 122.054  0.00  0.00    +0.000 A 
ATOM      8  C   UNL     1      -6.227   3.831 120.700  0.00  0.00    +0.000 A 
ENDBRANCH   1   6
BRANCH   1   9
ATOM      9  S   UNL     1      -8.666   1.385 124.343  0.00  0.00    +0.000 S 
ATOM     10  O   UNL     1      -9.966   1.653 124.930  0.00  0.00    +0.000 OA
ATOM     11  O   UNL     1      -8.576   0.580 123.136  0.00  0.00    +0.000 OA
BRANCH   9  12
ATOM     12  C   UNL     1      -7.786   0.429 125.590  0.00  0.00    +0.000 A 
ATOM     13  C   UNL     1      -6.625  -0.278 125.331  0.00  0.00    +0.000 A 
ATOM     14  C   UNL     1      -6.114  -1.221 126.201  0.00  0.00    +0.000 A 
ATOM     15  C   UNL     1      -6.630  -1.333 127.475  0.00  0.00    +0.000 A 
ATOM     16  C   UNL     1      -7.671  -0.463 127.845  0.00  0.00    +0.000 A 
ATOM     17  C   UNL     1      -8.304   0.357 126.892  0.00  0.00    +0.000 A 
BRANCH  15  18
ATOM     18  C   UNL     1      -6.081  -2.339 128.375  0.00  0.00    +0.000 A 
ATOM     19  C   UNL     1      -6.944  -3.116 129.155  0.00  0.00    +0.000 A 
ATOM     20  C   UNL     1      -6.434  -3.953 130.140  0.00  0.00    +0.000 A 
ATOM     21  C   UNL     1      -5.058  -4.135 130.251  0.00  0.00    +0.000 A 
ATOM     22  C   UNL     1      -4.195  -3.508 129.356  0.00  0.00    +0.000 A 
ATOM     23  C   UNL     1      -4.699  -2.575 128.455  0.00  0.00    +0.000 A 
ENDBRANCH  15  18
ENDBRANCH   9  12
ENDBRANCH   1   9
BRANCH   1  24
ATOM     24  C   UNL     1      -7.495   3.846 125.095  0.00  0.00    +0.000 C 
BRANCH  24  25
ATOM     25  C   UNL     1      -8.270   4.357 126.294  0.00  0.00    +0.000 C 
ATOM     26  O   UNL     1      -8.259   3.743 127.371  0.00  0.00    +0.000 OA
BRANCH  25  27
ATOM     27  N   UNL     1      -9.093   5.464 126.116  0.00  0.00    +0.000 NA
ATOM     28  N   UNL     1      -9.167   6.031 127.236  0.00  0.00    +0.000 NA
BRANCH  28  29
ATOM     29  C   UNL     1     -10.303   6.787 127.507  0.00  0.00    +0.000 A 
ATOM     30  C   UNL     1     -10.880   7.626 126.584  0.00  0.00    +0.000 A 
ATOM     31  N   UNL     1     -11.977   8.185 127.188  0.00  0.00    +0.000 N 
ATOM     32  C   UNL     1     -12.055   7.784 128.507  0.00  0.00    +0.000 A 
ATOM     33  C   UNL     1     -13.000   8.076 129.500  0.00  0.00    +0.000 A 
ATOM     34  C   UNL     1     -12.797   7.519 130.770  0.00  0.00    +0.000 A 
ATOM     35  C   UNL     1     -11.683   6.732 131.049  0.00  0.00    +0.000 A 
ATOM     36  C   UNL     1     -10.748   6.453 130.051  0.00  0.00    +0.000 A 
ATOM     37  C   UNL     1     -10.959   6.950 128.750  0.00  0.00    +0.000 A 
ATOM     38  H   UNL     1     -12.630   8.792 126.714  0.00  0.00    +0.000 HD
BRANCH  30  39
ATOM     39  O   UNL     1     -10.577   7.921 125.324  0.00  0.00    +0.000 OA
ATOM     40  H   UNL     1     -10.758   7.117 124.797  0.00  0.00    +0.000 HD
ENDBRANCH  30  39
ENDBRANCH  28  29
ENDBRANCH  25  27
ENDBRANCH  24  25
ENDBRANCH   1  24
TORSDOF 9
ENDMDL
MODEL 2
REMARK VINA RESULT:     -11.2      2.969      4.450
REMARK  Name = CHEMBL382515
REMARK  10 active torsions:
REMARK  status: ('A' for Active; 'I' for Inactive)
REMARK    1  A    between atoms: C_1  and  C_2
REMARK    2  A    between atoms: C_5  and  N_6
REMARK    3  A    between atoms: N_6  and  C_7
REMARK    4  A    between atoms: N_6  and  S_22
REMARK    5  A    between atoms: C_7  and  C_8
REMARK    6  A    between atoms: C_8  and  N_10
REMARK    7  A    between atoms: N_11  and  C_12
REMARK    8  A    between atoms: C_13  and  O_14
REMARK    9  A    between atoms: S_22  and  C_25
REMARK   10  A    between atoms: C_28  and  C_29
REMARK                            x       y       z     vdW  Elec       q    Type
REMARK                         _______ _______ _______ _____ _____    ______ ____
ROOT
ATOM      1  N   UNL     1      -7.548   2.318 123.907  0.00  0.00    +0.000 N 
ENDROOT
BRANCH   1   6
ATOM      2  C   UNL     1      -7.305   4.668 118.606  0.00  0.00    +0.000 C 
ATOM      3  C   UNL     1      -7.283   4.076 119.974  0.00  0.00    +0.000 A 
ATOM      4  C   UNL     1      -8.489   3.874 120.597  0.00  0.00    +0.000 A 
ATOM      5  C   UNL     1      -8.518   3.137 121.767  0.00  0.00    +0.000 A 
ATOM      6  C   UNL     1      -7.396   2.849 122.546  0.00  0.00    +0.000 A 
ATOM      7  C   UNL     1      -6.174   3.062 121.906  0.00  0.00    +0.000 A 
ATOM      8  C   UNL     1      -6.123   3.626 120.612  0.00  0.00    +0.000 A 
ENDBRANCH   1   6
BRANCH   1   9
ATOM      9  S   UNL     1      -8.031   0.650 124.084  0.00  0.00    +0.000 S 
ATOM     10  O   UNL     1      -9.469   0.647 124.280  0.00  0.00    +0.000 OA
ATOM     11  O   UNL     1      -7.456  -0.091 122.974  0.00  0.00    +0.000 OA
BRANCH   9  12
ATOM     12  C   UNL     1      -7.365  -0.150 125.554  0.00  0.00    +0.000 A 
ATOM     13  C   UNL     1      -6.012  -0.345 125.770  0.00  0.00    +0.000 A 
ATOM     14  C   UNL     1      -5.525  -1.192 126.746  0.00  0.00    +0.000 A 
ATOM     15  C   UNL     1      -6.380  -1.711 127.696  0.00  0.00    +0.000 A 
ATOM     16  C   UNL     1      -7.736  -1.346 127.634  0.00  0.00    +0.000 A 
ATOM     17  C   UNL     1      -8.247  -0.638 126.529  0.00  0.00    +0.000 A 
BRANCH  15  18
ATOM     18  C   UNL     1      -5.847  -2.609 128.713  0.00  0.00    +0.000 A 
ATOM     19  C   UNL     1      -6.713  -3.197 129.640  0.00  0.00    +0.000 A 
ATOM     20  C   UNL     1      -6.203  -3.913 130.717  0.00  0.00    +0.000 A 
ATOM     21  C   UNL     1      -4.838  -4.175 130.792  0.00  0.00    +0.000 A 
ATOM     22  C   UNL     1      -3.988  -3.751 129.773  0.00  0.00    +0.000 A 
ATOM     23  C   UNL     1      -4.481  -2.928 128.764  0.00  0.00    +0.000 A 
ENDBRANCH  15  18
ENDBRANCH   9  12
ENDBRANCH   1   9
BRANCH   1  24
ATOM     24  C   UNL     1      -7.181   3.150 125.095  0.00  0.00    +0.000 C 
BRANCH  24  25
ATOM     25  C   UNL     1      -8.066   4.001 125.985  0.00  0.00    +0.000 C 
ATOM     26  O   UNL     1      -8.808   4.870 125.504  0.00  0.00    +0.000 OA
BRANCH  25  27
ATOM     27  N   UNL     1      -7.930   3.865 127.363  0.00  0.00    +0.000 NA
ATOM     28  N   UNL     1      -7.163   2.885 127.545  0.00  0.00    +0.000 NA
BRANCH  28  29
ATOM     29  C   UNL     1      -7.283   2.181 128.739  0.00  0.00    +0.000 A 
ATOM     30  C   UNL     1      -8.439   2.161 129.482  0.00  0.00    +0.000 A 
ATOM     31  N   UNL     1      -8.197   1.361 130.569  0.00  0.00    +0.000 N 
ATOM     32  C   UNL     1      -6.881   0.944 130.575  0.00  0.00    +0.000 A 
ATOM     33  C   UNL     1      -6.187   0.110 131.462  0.00  0.00    +0.000 A 
ATOM     34  C   UNL     1      -4.828  -0.121 131.205  0.00  0.00    +0.000 A 
ATOM     35  C   UNL     1      -4.180   0.480 130.129  0.00  0.00    +0.000 A 
ATOM     36  C   UNL     1      -4.884   1.312 129.256  0.00  0.00    +0.000 A 
ATOM     37  C   UNL     1      -6.263   1.513 129.457  0.00  0.00    +0.000 A 
ATOM     38  H   UNL     1      -8.899   1.113 131.251  0.00  0.00    +0.000 HD
BRANCH  30  39
ATOM     39  O   UNL     1      -9.631   2.722 129.307  0.00  0.00    +0.000 OA
ATOM     40  H   UNL     1      -9.863   2.598 128.365  0.00  0.00    +0.000 HD
ENDBRANCH  30  39
ENDBRANCH  28  29
ENDBRANCH  25  27
ENDBRANCH  24  25
ENDBRANCH   1  24
TORSDOF 9
ENDMDL
MODEL 3
REMARK VINA RESULT:     -11.1      2.730      7.281
REMARK  Name = CHEMBL382515
REMARK  10 active torsions:
REMARK  status: ('A' for Active; 'I' for Inactive)
REMARK    1  A    between atoms: C_1  and  C_2
REMARK    2  A    between atoms: C_5  and  N_6
REMARK    3  A    between atoms: N_6  and  C_7
REMARK    4  A    between atoms: N_6  and  S_22
REMARK    5  A    between atoms: C_7  and  C_8
REMARK    6  A    between atoms: C_8  and  N_10
REMARK    7  A    between atoms: N_11  and  C_12
REMARK    8  A    between atoms: C_13  and  O_14
REMARK    9  A    between atoms: S_22  and  C_25
REMARK   10  A    between atoms: C_28  and  C_29
REMARK                            x       y       z     vdW  Elec       q    Type
REMARK                         _______ _______ _______ _____ _____    ______ ____
ROOT
ATOM      1  N   UNL     1      -7.131   1.497 127.573  0.00  0.00    +0.000 N 
ENDROOT
BRANCH   1   6
ATOM      2  C   UNL     1      -8.761  -4.069 127.785  0.00  0.00    +0.000 C 
ATOM      3  C   UNL     1      -8.296  -2.653 127.802  0.00  0.00    +0.000 A 
ATOM      4  C   UNL     1      -8.530  -1.895 126.681  0.00  0.00    +0.000 A 
ATOM      5  C   UNL     1      -8.306  -0.532 126.741  0.00  0.00    +0.000 A 
ATOM      6  C   UNL     1      -7.561   0.102 127.737  0.00  0.00    +0.000 A 
ATOM      7  C   UNL     1      -7.324  -0.677 128.870  0.00  0.00    +0.000 A 
ATOM      8  C   UNL     1      -7.732  -2.028 128.919  0.00  0.00    +0.000 A 
ENDBRANCH   1   6
BRANCH   1   9
ATOM      9  S   UNL     1      -5.697   1.804 126.626  0.00  0.00    +0.000 S 
ATOM     10  O   UNL     1      -4.900   2.761 127.370  0.00  0.00    +0.000 OA
ATOM     11  O   UNL     1      -5.125   0.516 126.271  0.00  0.00    +0.000 OA
BRANCH   9  12
ATOM     12  C   UNL     1      -6.023   2.604 125.046  0.00  0.00    +0.000 A 
ATOM     13  C   UNL     1      -6.881   2.087 124.091  0.00  0.00    +0.000 A 
ATOM     14  C   UNL     1      -6.916   2.548 122.790  0.00  0.00    +0.000 A 
ATOM     15  C   UNL     1      -6.244   3.704 122.450  0.00  0.00    +0.000 A 
ATOM     16  C   UNL     1      -5.541   4.381 123.463  0.00  0.00    +0.000 A 
ATOM     17  C   UNL     1      -5.360   3.800 124.733  0.00  0.00    +0.000 A 
BRANCH  15  18
ATOM     18  C   UNL     1      -6.287   4.168 121.070  0.00  0.00    +0.000 A 
ATOM     19  C   UNL     1      -5.204   4.880 120.544  0.00  0.00    +0.000 A 
ATOM     20  C   UNL     1      -5.301   5.478 119.293  0.00  0.00    +0.000 A 
ATOM     21  C   UNL     1      -6.418   5.242 118.497  0.00  0.00    +0.000 A 
ATOM     22  C   UNL     1      -7.421   4.382 118.936  0.00  0.00    +0.000 A 
ATOM     23  C   UNL     1      -7.382   3.887 120.237  0.00  0.00    +0.000 A 
ENDBRANCH  15  18
ENDBRANCH   9  12
ENDBRANCH   1   9
BRANCH   1  24
ATOM     24  C   UNL     1      -7.967   2.620 128.100  0.00  0.00    +0.000 C 
BRANCH  24  25
ATOM     25  C   UNL     1      -8.467   2.869 129.510  0.00  0.00    +0.000 C 
ATOM     26  O   UNL     1      -7.847   2.436 130.493  0.00  0.00    +0.000 OA
BRANCH  25  27
ATOM     27  N   UNL     1      -9.703   3.487 129.665  0.00  0.00    +0.000 NA
ATOM     28  N   UNL     1      -9.514   4.711 129.447  0.00  0.00    +0.000 NA
BRANCH  28  29
ATOM     29  C   UNL     1     -10.378   5.619 130.049  0.00  0.00    +0.000 A 
ATOM     30  C   UNL     1     -10.748   5.536 131.370  0.00  0.00    +0.000 A 
ATOM     31  N   UNL     1     -11.583   6.595 131.616  0.00  0.00    +0.000 N 
ATOM     32  C   UNL     1     -11.820   7.299 130.452  0.00  0.00    +0.000 A 
ATOM     33  C   UNL     1     -12.582   8.451 130.215  0.00  0.00    +0.000 A 
ATOM     34  C   UNL     1     -12.642   8.930 128.899  0.00  0.00    +0.000 A 
ATOM     35  C   UNL     1     -11.998   8.269 127.856  0.00  0.00    +0.000 A 
ATOM     36  C   UNL     1     -11.245   7.120 128.106  0.00  0.00    +0.000 A 
ATOM     37  C   UNL     1     -11.119   6.652 129.429  0.00  0.00    +0.000 A 
ATOM     38  H   UNL     1     -11.952   6.819 132.528  0.00  0.00    +0.000 HD
BRANCH  30  39
ATOM     39  O   UNL     1     -10.429   4.686 132.341  0.00  0.00    +0.000 OA
ATOM     40  H   UNL     1     -10.388   5.208 133.168  0.00  0.00    +0.000 HD
ENDBRANCH  30  39
ENDBRANCH  28  29
ENDBRANCH  25  27
ENDBRANCH  24  25
ENDBRANCH   1  24
TORSDOF 9
ENDMDL
MODEL 4
REMARK VINA RESULT:     -10.8      3.941      6.726
REMARK  Name = CHEMBL382515
REMARK  10 active torsions:
REMARK  status: ('A' for Active; 'I' for Inactive)
REMARK    1  A    between atoms: C_1  and  C_2
REMARK    2  A    between atoms: C_5  and  N_6
REMARK    3  A    between atoms: N_6  and  C_7
REMARK    4  A    between atoms: N_6  and  S_22
REMARK    5  A    between atoms: C_7  and  C_8
REMARK    6  A    between atoms: C_8  and  N_10
REMARK    7  A    between atoms: N_11  and  C_12
REMARK    8  A    between atoms: C_13  and  O_14
REMARK    9  A    between atoms: S_22  and  C_25
REMARK   10  A    between atoms: C_28  and  C_29
REMARK                            x       y       z     vdW  Elec       q    Type
REMARK                         _______ _______ _______ _____ _____    ______ ____
ROOT
ATOM      1  N   UNL     1      -7.656   2.268 123.484  0.00  0.00    +0.000 N 
ENDROOT
BRANCH   1   6
ATOM      2  C   UNL     1      -6.804   4.936 118.401  0.00  0.00    +0.000 C 
ATOM      3  C   UNL     1      -7.105   4.240 119.684  0.00  0.00    +0.000 A 
ATOM      4  C   UNL     1      -6.041   3.864 120.467  0.00  0.00    +0.000 A 
ATOM      5  C   UNL     1      -6.287   3.412 121.750  0.00  0.00    +0.000 A 
ATOM      6  C   UNL     1      -7.537   3.000 122.216  0.00  0.00    +0.000 A 
ATOM      7  C   UNL     1      -8.612   3.382 121.413  0.00  0.00    +0.000 A 
ATOM      8  C   UNL     1      -8.397   4.040 120.182  0.00  0.00    +0.000 A 
ENDBRANCH   1   6
BRANCH   1   9
ATOM      9  S   UNL     1      -7.598   3.187 124.967  0.00  0.00    +0.000 S 
ATOM     10  O   UNL     1      -6.393   3.993 124.915  0.00  0.00    +0.000 OA
ATOM     11  O   UNL     1      -8.889   3.834 125.130  0.00  0.00    +0.000 OA
BRANCH   9  12
ATOM     12  C   UNL     1      -7.411   2.176 126.445  0.00  0.00    +0.000 A 
ATOM     13  C   UNL     1      -8.456   1.485 127.035  0.00  0.00    +0.000 A 
ATOM     14  C   UNL     1      -8.373   0.946 128.304  0.00  0.00    +0.000 A 
ATOM     15  C   UNL     1      -7.155   0.886 128.949  0.00  0.00    +0.000 A 
ATOM     16  C   UNL     1      -6.025   1.380 128.274  0.00  0.00    +0.000 A 
ATOM     17  C   UNL     1      -6.156   2.094 127.067  0.00  0.00    +0.000 A 
BRANCH  15  18
ATOM     18  C   UNL     1      -7.092   0.320 130.290  0.00  0.00    +0.000 A 
ATOM     19  C   UNL     1      -8.231  -0.270 130.848  0.00  0.00    +0.000 A 
ATOM     20  C   UNL     1      -8.236  -0.656 132.183  0.00  0.00    +0.000 A 
ATOM     21  C   UNL     1      -7.061  -0.596 132.927  0.00  0.00    +0.000 A 
ATOM     22  C   UNL     1      -5.874  -0.183 132.327  0.00  0.00    +0.000 A 
ATOM     23  C   UNL     1      -5.898   0.321 131.030  0.00  0.00    +0.000 A 
ENDBRANCH  15  18
ENDBRANCH   9  12
ENDBRANCH   1   9
BRANCH   1  24
ATOM     24  C   UNL     1      -7.941   0.799 123.493  0.00  0.00    +0.000 C 
BRANCH  24  25
ATOM     25  C   UNL     1      -6.985  -0.367 123.654  0.00  0.00    +0.000 C 
ATOM     26  O   UNL     1      -6.513  -0.947 122.665  0.00  0.00    +0.000 OA
BRANCH  25  27
ATOM     27  N   UNL     1      -6.750  -0.846 124.938  0.00  0.00    +0.000 NA
ATOM     28  N   UNL     1      -7.212  -2.015 124.967  0.00  0.00    +0.000 NA
BRANCH  28  29
ATOM     29  C   UNL     1      -7.625  -2.520 126.196  0.00  0.00    +0.000 A 
ATOM     30  C   UNL     1      -8.922  -2.893 126.453  0.00  0.00    +0.000 A 
ATOM     31  N   UNL     1      -8.954  -3.354 127.744  0.00  0.00    +0.000 N 
ATOM     32  C   UNL     1      -7.718  -3.196 128.340  0.00  0.00    +0.000 A 
ATOM     33  C   UNL     1      -7.268  -3.535 129.623  0.00  0.00    +0.000 A 
ATOM     34  C   UNL     1      -5.938  -3.232 129.944  0.00  0.00    +0.000 A 
ATOM     35  C   UNL     1      -5.100  -2.589 129.037  0.00  0.00    +0.000 A 
ATOM     36  C   UNL     1      -5.563  -2.255 127.763  0.00  0.00    +0.000 A 
ATOM     37  C   UNL     1      -6.877  -2.601 127.394  0.00  0.00    +0.000 A 
ATOM     38  H   UNL     1      -9.771  -3.759 128.176  0.00  0.00    +0.000 HD
BRANCH  30  39
ATOM     39  O   UNL     1     -10.022  -2.896 125.707  0.00  0.00    +0.000 OA
ATOM     40  H   UNL     1     -10.780  -2.934 126.325  0.00  0.00    +0.000 HD
ENDBRANCH  30  39
ENDBRANCH  28  29
ENDBRANCH  25  27
ENDBRANCH  24  25
ENDBRANCH   1  24
TORSDOF 9
ENDMDL
MODEL 5
REMARK VINA RESULT:     -10.7      3.665      5.465
REMARK  Name = CHEMBL382515
REMARK  10 active torsions:
REMARK  status: ('A' for Active; 'I' for Inactive)
REMARK    1  A    between atoms: C_1  and  C_2
REMARK    2  A    between atoms: C_5  and  N_6
REMARK    3  A    between atoms: N_6  and  C_7
REMARK    4  A    between atoms: N_6  and  S_22
REMARK    5  A    between atoms: C_7  and  C_8
REMARK    6  A    between atoms: C_8  and  N_10
REMARK    7  A    between atoms: N_11  and  C_12
REMARK    8  A    between atoms: C_13  and  O_14
REMARK    9  A    between atoms: S_22  and  C_25
REMARK   10  A    between atoms: C_28  and  C_29
REMARK                            x       y       z     vdW  Elec       q    Type
REMARK                         _______ _______ _______ _____ _____    ______ ____
ROOT
ATOM      1  N   UNL     1      -6.331   4.509 129.107  0.00  0.00    +0.000 N 
ENDROOT
BRANCH   1   6
ATOM      2  C   UNL     1      -1.494   2.823 126.379  0.00  0.00    +0.000 C 
ATOM      3  C   UNL     1      -2.735   3.328 127.033  0.00  0.00    +0.000 A 
ATOM      4  C   UNL     1      -3.450   2.445 127.803  0.00  0.00    +0.000 A 
ATOM      5  C   UNL     1      -4.479   2.930 128.589  0.00  0.00    +0.000 A 
ATOM      6  C   UNL     1      -5.067   4.187 128.432  0.00  0.00    +0.000 A 
ATOM      7  C   UNL     1      -4.336   5.076 127.644  0.00  0.00    +0.000 A 
ATOM      8  C   UNL     1      -3.154   4.662 126.991  0.00  0.00    +0.000 A 
ENDBRANCH   1   6
BRANCH   1   9
ATOM      9  S   UNL     1      -7.809   3.891 128.414  0.00  0.00    +0.000 S 
ATOM     10  O   UNL     1      -8.577   3.318 129.503  0.00  0.00    +0.000 OA
ATOM     11  O   UNL     1      -8.388   4.952 127.607  0.00  0.00    +0.000 OA
BRANCH   9  12
ATOM     12  C   UNL     1      -7.561   2.531 127.260  0.00  0.00    +0.000 A 
ATOM     13  C   UNL     1      -7.625   1.198 127.626  0.00  0.00    +0.000 A 
ATOM     14  C   UNL     1      -7.166   0.177 126.817  0.00  0.00    +0.000 A 
ATOM     15  C   UNL     1      -6.826   0.438 125.506  0.00  0.00    +0.000 A 
ATOM     16  C   UNL     1      -6.968   1.757 125.036  0.00  0.00    +0.000 A 
ATOM     17  C   UNL     1      -7.254   2.814 125.921  0.00  0.00    +0.000 A 
BRANCH  15  18
ATOM     18  C   UNL     1      -6.338  -0.651 124.671  0.00  0.00    +0.000 A 
ATOM     19  C   UNL     1      -6.654  -0.675 123.308  0.00  0.00    +0.000 A 
ATOM     20  C   UNL     1      -6.345  -1.790 122.538  0.00  0.00    +0.000 A 
ATOM     21  C   UNL     1      -5.586  -2.822 123.085  0.00  0.00    +0.000 A 
ATOM     22  C   UNL     1      -5.107  -2.723 124.388  0.00  0.00    +0.000 A 
ATOM     23  C   UNL     1      -5.523  -1.667 125.195  0.00  0.00    +0.000 A 
ENDBRANCH  15  18
ENDBRANCH   9  12
ENDBRANCH   1   9
BRANCH   1  24
ATOM     24  C   UNL     1      -6.333   5.239 130.414  0.00  0.00    +0.000 C 
BRANCH  24  25
ATOM     25  C   UNL     1      -6.456   6.726 130.686  0.00  0.00    +0.000 C 
ATOM     26  O   UNL     1      -5.492   7.488 130.517  0.00  0.00    +0.000 OA
BRANCH  25  27
ATOM     27  N   UNL     1      -7.639   7.191 131.248  0.00  0.00    +0.000 NA
ATOM     28  N   UNL     1      -8.440   6.222 131.234  0.00  0.00    +0.000 NA
BRANCH  28  29
ATOM     29  C   UNL     1      -9.801   6.505 131.199  0.00  0.00    +0.000 A 
ATOM     30  C   UNL     1     -10.695   6.000 132.112  0.00  0.00    +0.000 A 
ATOM     31  N   UNL     1     -11.927   6.500 131.781  0.00  0.00    +0.000 N 
ATOM     32  C   UNL     1     -11.847   7.243 130.619  0.00  0.00    +0.000 A 
ATOM     33  C   UNL     1     -12.828   7.954 129.915  0.00  0.00    +0.000 A 
ATOM     34  C   UNL     1     -12.435   8.610 128.741  0.00  0.00    +0.000 A 
ATOM     35  C   UNL     1     -11.127   8.533 128.269  0.00  0.00    +0.000 A 
ATOM     36  C   UNL     1     -10.161   7.818 128.979  0.00  0.00    +0.000 A 
ATOM     37  C   UNL     1     -10.515   7.199 130.194  0.00  0.00    +0.000 A 
ATOM     38  H   UNL     1     -12.761   6.346 132.328  0.00  0.00    +0.000 HD
BRANCH  30  39
ATOM     39  O   UNL     1     -10.548   5.206 133.168  0.00  0.00    +0.000 OA
ATOM     40  H   UNL     1      -9.617   5.290 133.455  0.00  0.00    +0.000 HD
ENDBRANCH  30  39
ENDBRANCH  28  29
ENDBRANCH  25  27
ENDBRANCH  24  25
ENDBRANCH   1  24
TORSDOF 9
ENDMDL
MODEL 6
REMARK VINA RESULT:     -10.6      3.814      7.600
REMARK  Name = CHEMBL382515
REMARK  10 active torsions:
REMARK  status: ('A' for Active; 'I' for Inactive)
REMARK    1  A    between atoms: C_1  and  C_2
REMARK    2  A    between atoms: C_5  and  N_6
REMARK    3  A    between atoms: N_6  and  C_7
REMARK    4  A    between atoms: N_6  and  S_22
REMARK    5  A    between atoms: C_7  and  C_8
REMARK    6  A    between atoms: C_8  and  N_10
REMARK    7  A    between atoms: N_11  and  C_12
REMARK    8  A    between atoms: C_13  and  O_14
REMARK    9  A    between atoms: S_22  and  C_25
REMARK   10  A    between atoms: C_28  and  C_29
REMARK                            x       y       z     vdW  Elec       q    Type
REMARK                         _______ _______ _______ _____ _____    ______ ____
ROOT
ATOM      1  N   UNL     1      -5.262   3.509 128.742  0.00  0.00    +0.000 N 
ENDROOT
BRANCH   1   6
ATOM      2  C   UNL     1      -1.145   6.245 131.781  0.00  0.00    +0.000 C 
ATOM      3  C   UNL     1      -2.221   5.497 131.071  0.00  0.00    +0.000 A 
ATOM      4  C   UNL     1      -2.614   5.966 129.842  0.00  0.00    +0.000 A 
ATOM      5  C   UNL     1      -3.451   5.182 129.068  0.00  0.00    +0.000 A 
ATOM      6  C   UNL     1      -4.189   4.101 129.551  0.00  0.00    +0.000 A 
ATOM      7  C   UNL     1      -3.786   3.634 130.803  0.00  0.00    +0.000 A 
ATOM      8  C   UNL     1      -2.777   4.299 131.533  0.00  0.00    +0.000 A 
ENDBRANCH   1   6
BRANCH   1   9
ATOM      9  S   UNL     1      -4.808   2.454 127.426  0.00  0.00    +0.000 S 
ATOM     10  O   UNL     1      -3.361   2.498 127.335  0.00  0.00    +0.000 OA
ATOM     11  O   UNL     1      -5.477   1.182 127.637  0.00  0.00    +0.000 OA
BRANCH   9  12
ATOM     12  C   UNL     1      -5.388   3.008 125.814  0.00  0.00    +0.000 A 
ATOM     13  C   UNL     1      -6.345   2.335 125.075  0.00  0.00    +0.000 A 
ATOM     14  C   UNL     1      -6.582   2.601 123.740  0.00  0.00    +0.000 A 
ATOM     15  C   UNL     1      -6.019   3.712 123.149  0.00  0.00    +0.000 A 
ATOM     16  C   UNL     1      -5.215   4.548 123.945  0.00  0.00    +0.000 A 
ATOM     17  C   UNL     1      -4.832   4.163 125.244  0.00  0.00    +0.000 A 
BRANCH  15  18
ATOM     18  C   UNL     1      -6.276   3.970 121.738  0.00  0.00    +0.000 A 
ATOM     19  C   UNL     1      -5.256   4.487 120.932  0.00  0.00    +0.000 A 
ATOM     20  C   UNL     1      -5.533   4.900 119.633  0.00  0.00    +0.000 A 
ATOM     21  C   UNL     1      -6.789   4.661 119.082  0.00  0.00    +0.000 A 
ATOM     22  C   UNL     1      -7.756   3.978 119.816  0.00  0.00    +0.000 A 
ATOM     23  C   UNL     1      -7.519   3.679 121.155  0.00  0.00    +0.000 A 
ENDBRANCH  15  18
ENDBRANCH   9  12
ENDBRANCH   1   9
BRANCH   1  24
ATOM     24  C   UNL     1      -6.698   3.709 129.114  0.00  0.00    +0.000 C 
BRANCH  24  25
ATOM     25  C   UNL     1      -7.821   4.342 128.315  0.00  0.00    +0.000 C 
ATOM     26  O   UNL     1      -7.590   4.943 127.255  0.00  0.00    +0.000 OA
BRANCH  25  27
ATOM     27  N   UNL     1      -9.097   4.338 128.867  0.00  0.00    +0.000 NA
ATOM     28  N   UNL     1      -9.481   5.536 128.873  0.00  0.00    +0.000 NA
BRANCH  28  29
ATOM     29  C   UNL     1     -10.419   5.912 129.829  0.00  0.00    +0.000 A 
ATOM     30  C   UNL     1     -10.715   5.143 130.929  0.00  0.00    +0.000 A 
ATOM     31  N   UNL     1     -11.659   5.828 131.650  0.00  0.00    +0.000 N 
ATOM     32  C   UNL     1     -12.032   6.977 130.981  0.00  0.00    +0.000 A 
ATOM     33  C   UNL     1     -12.936   7.989 131.330  0.00  0.00    +0.000 A 
ATOM     34  C   UNL     1     -13.114   9.041 130.421  0.00  0.00    +0.000 A 
ATOM     35  C   UNL     1     -12.444   9.067 129.201  0.00  0.00    +0.000 A 
ATOM     36  C   UNL     1     -11.549   8.050 128.865  0.00  0.00    +0.000 A 
ATOM     37  C   UNL     1     -11.306   7.013 129.786  0.00  0.00    +0.000 A 
ATOM     38  H   UNL     1     -12.009   5.525 132.547  0.00  0.00    +0.000 HD
BRANCH  30  39
ATOM     39  O   UNL     1     -10.252   3.974 131.359  0.00  0.00    +0.000 OA
ATOM     40  H   UNL     1      -9.478   4.170 131.924  0.00  0.00    +0.000 HD
ENDBRANCH  30  39
ENDBRANCH  28  29
ENDBRANCH  25  27
ENDBRANCH  24  25
ENDBRANCH   1  24
TORSDOF 9
ENDMDL
MODEL 7
REMARK VINA RESULT:     -10.5      6.131      8.625
REMARK  Name = CHEMBL382515
REMARK  10 active torsions:
REMARK  status: ('A' for Active; 'I' for Inactive)
REMARK    1  A    between atoms: C_1  and  C_2
REMARK    2  A    between atoms: C_5  and  N_6
REMARK    3  A    between atoms: N_6  and  C_7
REMARK    4  A    between atoms: N_6  and  S_22
REMARK    5  A    between atoms: C_7  and  C_8
REMARK    6  A    between atoms: C_8  and  N_10
REMARK    7  A    between atoms: N_11  and  C_12
REMARK    8  A    between atoms: C_13  and  O_14
REMARK    9  A    between atoms: S_22  and  C_25
REMARK   10  A    between atoms: C_28  and  C_29
REMARK                            x       y       z     vdW  Elec       q    Type
REMARK                         _______ _______ _______ _____ _____    ______ ____
ROOT
ATOM      1  N   UNL     1      -6.704   4.146 130.287  0.00  0.00    +0.000 N 
ENDROOT
BRANCH   1   6
ATOM      2  C   UNL     1      -2.167   3.159 126.806  0.00  0.00    +0.000 C 
ATOM      3  C   UNL     1      -3.376   3.438 127.631  0.00  0.00    +0.000 A 
ATOM      4  C   UNL     1      -3.383   2.974 128.924  0.00  0.00    +0.000 A 
ATOM      5  C   UNL     1      -4.388   3.394 129.775  0.00  0.00    +0.000 A 
ATOM      6  C   UNL     1      -5.577   3.996 129.357  0.00  0.00    +0.000 A 
ATOM      7  C   UNL     1      -5.563   4.460 128.042  0.00  0.00    +0.000 A 
ATOM      8  C   UNL     1      -4.451   4.225 127.203  0.00  0.00    +0.000 A 
ENDBRANCH   1   6
BRANCH   1   9
ATOM      9  S   UNL     1      -6.858   5.657 131.148  0.00  0.00    +0.000 S 
ATOM     10  O   UNL     1      -7.497   6.593 130.242  0.00  0.00    +0.000 OA
ATOM     11  O   UNL     1      -7.473   5.366 132.432  0.00  0.00    +0.000 OA
BRANCH   9  12
ATOM     12  C   UNL     1      -5.283   6.423 131.566  0.00  0.00    +0.000 A 
ATOM     13  C   UNL     1      -4.632   6.223 132.771  0.00  0.00    +0.000 A 
ATOM     14  C   UNL     1      -3.583   7.015 133.194  0.00  0.00    +0.000 A 
ATOM     15  C   UNL     1      -2.997   7.906 132.320  0.00  0.00    +0.000 A 
ATOM     16  C   UNL     1      -3.497   7.970 131.007  0.00  0.00    +0.000 A 
ATOM     17  C   UNL     1      -4.680   7.297 130.649  0.00  0.00    +0.000 A 
BRANCH  15  18
ATOM     18  C   UNL     1      -1.896   8.738 132.789  0.00  0.00    +0.000 A 
ATOM     19  C   UNL     1      -0.673   8.146 133.121  0.00  0.00    +0.000 A 
ATOM     20  C   UNL     1       0.324   8.897 133.732  0.00  0.00    +0.000 A 
ATOM     21  C   UNL     1       0.166  10.273 133.878  0.00  0.00    +0.000 A 
ATOM     22  C   UNL     1      -0.972  10.902 133.381  0.00  0.00    +0.000 A 
ATOM     23  C   UNL     1      -2.022  10.133 132.885  0.00  0.00    +0.000 A 
ENDBRANCH  15  18
ENDBRANCH   9  12
ENDBRANCH   1   9
BRANCH   1  24
ATOM     24  C   UNL     1      -7.750   3.081 130.396  0.00  0.00    +0.000 C 
BRANCH  24  25
ATOM     25  C   UNL     1      -9.003   2.874 129.566  0.00  0.00    +0.000 C 
ATOM     26  O   UNL     1      -8.967   2.238 128.502  0.00  0.00    +0.000 OA
BRANCH  25  27
ATOM     27  N   UNL     1     -10.166   3.523 129.967  0.00  0.00    +0.000 NA
ATOM     28  N   UNL     1     -10.120   4.673 129.459  0.00  0.00    +0.000 NA
BRANCH  28  29
ATOM     29  C   UNL     1     -10.809   5.695 130.103  0.00  0.00    +0.000 A 
ATOM     30  C   UNL     1     -10.925   5.773 131.470  0.00  0.00    +0.000 A 
ATOM     31  N   UNL     1     -11.646   6.906 131.743  0.00  0.00    +0.000 N 
ATOM     32  C   UNL     1     -12.067   7.502 130.570  0.00  0.00    +0.000 A 
ATOM     33  C   UNL     1     -12.803   8.673 130.349  0.00  0.00    +0.000 A 
ATOM     34  C   UNL     1     -13.089   9.017 129.021  0.00  0.00    +0.000 A 
ATOM     35  C   UNL     1     -12.687   8.210 127.959  0.00  0.00    +0.000 A 
ATOM     36  C   UNL     1     -11.957   7.044 128.195  0.00  0.00    +0.000 A 
ATOM     37  C   UNL     1     -11.604   6.707 129.516  0.00  0.00    +0.000 A 
ATOM     38  H   UNL     1     -11.824   7.248 132.677  0.00  0.00    +0.000 HD
BRANCH  30  39
ATOM     39  O   UNL     1     -10.468   5.008 132.456  0.00  0.00    +0.000 OA
ATOM     40  H   UNL     1      -9.595   4.673 132.170  0.00  0.00    +0.000 HD
ENDBRANCH  30  39
ENDBRANCH  28  29
ENDBRANCH  25  27
ENDBRANCH  24  25
ENDBRANCH   1  24
TORSDOF 9
ENDMDL
MODEL 8
REMARK VINA RESULT:     -10.5      4.848      8.996
REMARK  Name = CHEMBL382515
REMARK  10 active torsions:
REMARK  status: ('A' for Active; 'I' for Inactive)
REMARK    1  A    between atoms: C_1  and  C_2
REMARK    2  A    between atoms: C_5  and  N_6
REMARK    3  A    between atoms: N_6  and  C_7
REMARK    4  A    between atoms: N_6  and  S_22
REMARK    5  A    between atoms: C_7  and  C_8
REMARK    6  A    between atoms: C_8  and  N_10
REMARK    7  A    between atoms: N_11  and  C_12
REMARK    8  A    between atoms: C_13  and  O_14
REMARK    9  A    between atoms: S_22  and  C_25
REMARK   10  A    between atoms: C_28  and  C_29
REMARK                            x       y       z     vdW  Elec       q    Type
REMARK                         _______ _______ _______ _____ _____    ______ ____
ROOT
ATOM      1  N   UNL     1      -9.428   5.272 130.126  0.00  0.00    +0.000 N 
ENDROOT
BRANCH   1   6
ATOM      2  C   UNL     1     -13.508   8.922 128.199  0.00  0.00    +0.000 C 
ATOM      3  C   UNL     1     -12.401   8.044 128.674  0.00  0.00    +0.000 A 
ATOM      4  C   UNL     1     -12.744   6.922 129.388  0.00  0.00    +0.000 A 
ATOM      5  C   UNL     1     -11.766   5.982 129.658  0.00  0.00    +0.000 A 
ATOM      6  C   UNL     1     -10.394   6.216 129.549  0.00  0.00    +0.000 A 
ATOM      7  C   UNL     1     -10.055   7.360 128.826  0.00  0.00    +0.000 A 
ATOM      8  C   UNL     1     -11.054   8.239 128.352  0.00  0.00    +0.000 A 
ENDBRANCH   1   6
BRANCH   1   9
ATOM      9  S   UNL     1      -9.026   5.444 131.816  0.00  0.00    +0.000 S 
ATOM     10  O   UNL     1      -9.852   6.516 132.337  0.00  0.00    +0.000 OA
ATOM     11  O   UNL     1      -9.099   4.123 132.417  0.00  0.00    +0.000 OA
BRANCH   9  12
ATOM     12  C   UNL     1      -7.333   5.981 132.112  0.00  0.00    +0.000 A 
ATOM     13  C   UNL     1      -6.594   6.715 131.200  0.00  0.00    +0.000 A 
ATOM     14  C   UNL     1      -5.228   6.884 131.308  0.00  0.00    +0.000 A 
ATOM     15  C   UNL     1      -4.576   6.506 132.464  0.00  0.00    +0.000 A 
ATOM     16  C   UNL     1      -5.345   5.959 133.507  0.00  0.00    +0.000 A 
ATOM     17  C   UNL     1      -6.698   5.621 133.310  0.00  0.00    +0.000 A 
BRANCH  15  18
ATOM     18  C   UNL     1      -3.133   6.686 132.554  0.00  0.00    +0.000 A 
ATOM     19  C   UNL     1      -2.613   7.927 132.935  0.00  0.00    +0.000 A 
ATOM     20  C   UNL     1      -1.245   8.165 132.858  0.00  0.00    +0.000 A 
ATOM     21  C   UNL     1      -0.376   7.123 132.547  0.00  0.00    +0.000 A 
ATOM     22  C   UNL     1      -0.871   5.836 132.348  0.00  0.00    +0.000 A 
ATOM     23  C   UNL     1      -2.246   5.628 132.301  0.00  0.00    +0.000 A 
ENDBRANCH  15  18
ENDBRANCH   9  12
ENDBRANCH   1   9
BRANCH   1  24
ATOM     24  C   UNL     1      -8.904   4.128 129.316  0.00  0.00    +0.000 C 
BRANCH  24  25
ATOM     25  C   UNL     1      -7.990   4.144 128.105  0.00  0.00    +0.000 C 
ATOM     26  O   UNL     1      -6.985   4.869 128.074  0.00  0.00    +0.000 OA
BRANCH  25  27
ATOM     27  N   UNL     1      -8.379   3.418 126.985  0.00  0.00    +0.000 NA
ATOM     28  N   UNL     1      -7.404   3.448 126.191  0.00  0.00    +0.000 NA
BRANCH  28  29
ATOM     29  C   UNL     1      -7.670   3.315 124.832  0.00  0.00    +0.000 A 
ATOM     30  C   UNL     1      -8.805   2.712 124.347  0.00  0.00    +0.000 A 
ATOM     31  N   UNL     1      -8.736   2.778 122.979  0.00  0.00    +0.000 N 
ATOM     32  C   UNL     1      -7.535   3.333 122.585  0.00  0.00    +0.000 A 
ATOM     33  C   UNL     1      -7.030   3.617 121.310  0.00  0.00    +0.000 A 
ATOM     34  C   UNL     1      -5.749   4.180 121.230  0.00  0.00    +0.000 A 
ATOM     35  C   UNL     1      -4.989   4.418 122.372  0.00  0.00    +0.000 A 
ATOM     36  C   UNL     1      -5.503   4.127 123.637  0.00  0.00    +0.000 A 
ATOM     37  C   UNL     1      -6.811   3.617 123.748  0.00  0.00    +0.000 A 
ATOM     38  H   UNL     1      -9.476   2.470 122.365  0.00  0.00    +0.000 HD
BRANCH  30  39
ATOM     39  O   UNL     1      -9.854   2.158 124.946  0.00  0.00    +0.000 OA
ATOM     40  H   UNL     1     -10.624   2.728 124.746  0.00  0.00    +0.000 HD
ENDBRANCH  30  39
ENDBRANCH  28  29
ENDBRANCH  25  27
ENDBRANCH  24  25
ENDBRANCH   1  24
TORSDOF 9
ENDMDL
MODEL 9
REMARK VINA RESULT:     -10.4      3.673      5.702
REMARK  Name = CHEMBL382515
REMARK  10 active torsions:
REMARK  status: ('A' for Active; 'I' for Inactive)
REMARK    1  A    between atoms: C_1  and  C_2
REMARK    2  A    between atoms: C_5  and  N_6
REMARK    3  A    between atoms: N_6  and  C_7
REMARK    4  A    between atoms: N_6  and  S_22
REMARK    5  A    between atoms: C_7  and  C_8
REMARK    6  A    between atoms: C_8  and  N_10
REMARK    7  A    between atoms: N_11  and  C_12
REMARK    8  A    between atoms: C_13  and  O_14
REMARK    9  A    between atoms: S_22  and  C_25
REMARK   10  A    between atoms: C_28  and  C_29
REMARK                            x       y       z     vdW  Elec       q    Type
REMARK                         _______ _______ _______ _____ _____    ______ ____
ROOT
ATOM      1  N   UNL     1      -5.179   4.237 127.932  0.00  0.00    +0.000 N 
ENDROOT
BRANCH   1   6
ATOM      2  C   UNL     1      -1.096   6.568 131.335  0.00  0.00    +0.000 C 
ATOM      3  C   UNL     1      -2.118   6.021 130.397  0.00  0.00    +0.000 A 
ATOM      4  C   UNL     1      -2.786   4.884 130.781  0.00  0.00    +0.000 A 
ATOM      5  C   UNL     1      -3.879   4.474 130.040  0.00  0.00    +0.000 A 
ATOM      6  C   UNL     1      -4.177   4.928 128.754  0.00  0.00    +0.000 A 
ATOM      7  C   UNL     1      -3.491   6.081 128.371  0.00  0.00    +0.000 A 
ATOM      8  C   UNL     1      -2.505   6.649 129.208  0.00  0.00    +0.000 A 
ENDBRANCH   1   6
BRANCH   1   9
ATOM      9  S   UNL     1      -4.784   3.912 126.263  0.00  0.00    +0.000 S 
ATOM     10  O   UNL     1      -5.416   4.951 125.472  0.00  0.00    +0.000 OA
ATOM     11  O   UNL     1      -3.345   3.724 126.184  0.00  0.00    +0.000 OA
BRANCH   9  12
ATOM     12  C   UNL     1      -5.475   2.371 125.637  0.00  0.00    +0.000 A 
ATOM     13  C   UNL     1      -6.410   2.312 124.618  0.00  0.00    +0.000 A 
ATOM     14  C   UNL     1      -7.135   1.172 124.334  0.00  0.00    +0.000 A 
ATOM     15  C   UNL     1      -6.789  -0.028 124.920  0.00  0.00    +0.000 A 
ATOM     16  C   UNL     1      -5.688  -0.042 125.796  0.00  0.00    +0.000 A 
ATOM     17  C   UNL     1      -5.082   1.156 126.218  0.00  0.00    +0.000 A 
BRANCH  15  18
ATOM     18  C   UNL     1      -7.571  -1.218 124.612  0.00  0.00    +0.000 A 
ATOM     19  C   UNL     1      -7.913  -1.498 123.285  0.00  0.00    +0.000 A 
ATOM     20  C   UNL     1      -8.801  -2.528 122.994  0.00  0.00    +0.000 A 
ATOM     21  C   UNL     1      -9.234  -3.378 124.008  0.00  0.00    +0.000 A 
ATOM     22  C   UNL     1      -8.752  -3.221 125.305  0.00  0.00    +0.000 A 
ATOM     23  C   UNL     1      -7.964  -2.116 125.617  0.00  0.00    +0.000 A 
ENDBRANCH  15  18
ENDBRANCH   9  12
ENDBRANCH   1   9
BRANCH   1  24
ATOM     24  C   UNL     1      -6.444   3.723 128.544  0.00  0.00    +0.000 C 
BRANCH  24  25
ATOM     25  C   UNL     1      -7.843   3.669 127.961  0.00  0.00    +0.000 C 
ATOM     26  O   UNL     1      -8.365   2.588 127.652  0.00  0.00    +0.000 OA
BRANCH  25  27
ATOM     27  N   UNL     1      -8.474   4.873 127.667  0.00  0.00    +0.000 NA
ATOM     28  N   UNL     1      -8.935   5.303 128.756  0.00  0.00    +0.000 NA
BRANCH  28  29
ATOM     29  C   UNL     1     -10.045   6.140 128.705  0.00  0.00    +0.000 A 
ATOM     30  C   UNL     1     -10.435   6.797 127.562  0.00  0.00    +0.000 A 
ATOM     31  N   UNL     1     -11.564   7.506 127.879  0.00  0.00    +0.000 N 
ATOM     32  C   UNL     1     -11.848   7.383 129.225  0.00  0.00    +0.000 A 
ATOM     33  C   UNL     1     -12.897   7.904 129.993  0.00  0.00    +0.000 A 
ATOM     34  C   UNL     1     -12.906   7.608 131.363  0.00  0.00    +0.000 A 
ATOM     35  C   UNL     1     -11.894   6.853 131.949  0.00  0.00    +0.000 A 
ATOM     36  C   UNL     1     -10.852   6.343 131.172  0.00  0.00    +0.000 A 
ATOM     37  C   UNL     1     -10.852   6.575 129.783  0.00  0.00    +0.000 A 
ATOM     38  H   UNL     1     -12.106   8.029 127.206  0.00  0.00    +0.000 HD
BRANCH  30  39
ATOM     39  O   UNL     1      -9.945   6.820 126.327  0.00  0.00    +0.000 OA
ATOM     40  H   UNL     1     -10.644   6.467 125.742  0.00  0.00    +0.000 HD
ENDBRANCH  30  39
ENDBRANCH  28  29
ENDBRANCH  25  27
ENDBRANCH  24  25
ENDBRANCH   1  24
TORSDOF 9
ENDMDL
