MODEL 1
REMARK VINA RESULT:      -8.1      0.000      0.000
REMARK  Name = CHEMBL606976
REMARK  7 active torsions:
REMARK  status: ('A' for Active; 'I' for Inactive)
REMARK    1  A    between atoms: C_1  and  O_2
REMARK    2  A    between atoms: O_2  and  C_3
REMARK    3  A    between atoms: C_6  and  N_7
REMARK    4  A    between atoms: C_8  and  C_9
REMARK    5  A    between atoms: C_16  and  O_17
REMARK    6  A    between atoms: O_17  and  C_18
REMARK    7  A    between atoms: C_25  and  C_26
REMARK                            x       y       z     vdW  Elec       q    Type
REMARK                         _______ _______ _______ _____ _____    ______ ____
ROOT
ATOM      1  N   UNL     1      -6.536  -2.820 130.461  0.00  0.00    +0.000 N 
ATOM      2  C   UNL     1      -5.835  -3.820 131.141  0.00  0.00    +0.000 A 
ATOM      3  C   UNL     1      -5.622  -5.245 130.771  0.00  0.00    +0.000 C 
ATOM      4  N   UNL     1      -5.241  -3.279 132.192  0.00  0.00    +0.000 NA
ATOM      5  N   UNL     1      -5.532  -1.950 132.227  0.00  0.00    +0.000 NA
ATOM      6  C   UNL     1      -6.378  -1.671 131.245  0.00  0.00    +0.000 A 
ATOM      7  N   UNL     1      -6.961  -0.469 131.019  0.00  0.00    +0.000 N 
ATOM      8  C   UNL     1      -6.149   0.725 130.992  0.00  0.00    +0.000 C 
ATOM      9  C   UNL     1      -6.600   1.710 132.086  0.00  0.00    +0.000 C 
ATOM     10  C   UNL     1      -8.018   2.163 131.790  0.00  0.00    +0.000 C 
ATOM     11  C   UNL     1      -8.858   0.859 131.843  0.00  0.00    +0.000 C 
ATOM     12  C   UNL     1      -8.386  -0.220 130.839  0.00  0.00    +0.000 C 
ENDROOT
BRANCH   1  16
ATOM     13  C   UNL     1      -8.349  -3.135 126.706  0.00  0.00    +0.000 A 
ATOM     14  C   UNL     1      -9.000  -3.696 127.795  0.00  0.00    +0.000 A 
ATOM     15  C   UNL     1      -8.417  -3.580 129.066  0.00  0.00    +0.000 A 
ATOM     16  C   UNL     1      -7.209  -2.891 129.211  0.00  0.00    +0.000 A 
ATOM     17  C   UNL     1      -6.611  -2.396 128.066  0.00  0.00    +0.000 A 
ATOM     18  N   UNL     1      -7.153  -2.514 126.822  0.00  0.00    +0.000 NA
BRANCH  13  20
ATOM     19  C   UNL     1      -7.788  -3.511 124.445  0.00  0.00    +0.000 C 
ATOM     20  O   UNL     1      -8.802  -3.264 125.418  0.00  0.00    +0.000 OA
ENDBRANCH  13  20
ENDBRANCH   1  16
BRANCH  10  21
ATOM     21  O   UNL     1      -8.132   2.836 130.500  0.00  0.00    +0.000 OA
BRANCH  21  22
ATOM     22  C   UNL     1      -8.490   4.178 130.456  0.00  0.00    +0.000 A 
ATOM     23  C   UNL     1      -7.453   5.101 130.726  0.00  0.00    +0.000 A 
ATOM     24  C   UNL     1      -7.736   6.464 130.907  0.00  0.00    +0.000 A 
ATOM     25  F   UNL     1      -6.752   7.324 131.209  0.00  0.00    +0.000 F 
ATOM     26  C   UNL     1      -9.020   6.952 130.812  0.00  0.00    +0.000 A 
ATOM     27  C   UNL     1     -10.036   6.062 130.551  0.00  0.00    +0.000 A 
ATOM     28  F   UNL     1     -11.287   6.543 130.497  0.00  0.00    +0.000 F 
ATOM     29  C   UNL     1      -9.821   4.679 130.422  0.00  0.00    +0.000 A 
ATOM     30  C   UNL     1     -11.119   3.924 130.414  0.00  0.00    +0.000 C 
ENDBRANCH  21  22
ENDBRANCH  10  21
TORSDOF 4
ENDMDL
MODEL 2
REMARK VINA RESULT:      -8.1      4.901      5.717
REMARK  Name = CHEMBL606976
REMARK  7 active torsions:
REMARK  status: ('A' for Active; 'I' for Inactive)
REMARK    1  A    between atoms: C_1  and  O_2
REMARK    2  A    between atoms: O_2  and  C_3
REMARK    3  A    between atoms: C_6  and  N_7
REMARK    4  A    between atoms: C_8  and  C_9
REMARK    5  A    between atoms: C_16  and  O_17
REMARK    6  A    between atoms: O_17  and  C_18
REMARK    7  A    between atoms: C_25  and  C_26
REMARK                            x       y       z     vdW  Elec       q    Type
REMARK                         _______ _______ _______ _____ _____    ______ ____
ROOT
ATOM      1  N   UNL     1      -5.072   3.463 127.752  0.00  0.00    +0.000 N 
ATOM      2  C   UNL     1      -3.711   3.472 128.070  0.00  0.00    +0.000 A 
ATOM      3  C   UNL     1      -2.543   3.067 127.242  0.00  0.00    +0.000 C 
ATOM      4  N   UNL     1      -3.559   4.033 129.258  0.00  0.00    +0.000 NA
ATOM      5  N   UNL     1      -4.782   4.392 129.737  0.00  0.00    +0.000 NA
ATOM      6  C   UNL     1      -5.711   3.980 128.885  0.00  0.00    +0.000 A 
ATOM      7  N   UNL     1      -7.050   4.078 129.067  0.00  0.00    +0.000 N 
ATOM      8  C   UNL     1      -7.627   5.339 129.470  0.00  0.00    +0.000 C 
ATOM      9  C   UNL     1      -8.350   5.194 130.823  0.00  0.00    +0.000 C 
ATOM     10  C   UNL     1      -9.516   4.236 130.659  0.00  0.00    +0.000 C 
ATOM     11  C   UNL     1      -8.856   2.894 130.241  0.00  0.00    +0.000 C 
ATOM     12  C   UNL     1      -8.020   2.996 128.943  0.00  0.00    +0.000 C 
ENDROOT
BRANCH   1  16
ATOM     13  C   UNL     1      -6.770   2.458 124.065  0.00  0.00    +0.000 A 
ATOM     14  C   UNL     1      -6.453   1.429 124.941  0.00  0.00    +0.000 A 
ATOM     15  C   UNL     1      -5.904   1.750 126.191  0.00  0.00    +0.000 A 
ATOM     16  C   UNL     1      -5.704   3.091 126.535  0.00  0.00    +0.000 A 
ATOM     17  C   UNL     1      -6.013   4.049 125.586  0.00  0.00    +0.000 A 
ATOM     18  N   UNL     1      -6.531   3.756 124.361  0.00  0.00    +0.000 NA
BRANCH  13  20
ATOM     19  C   UNL     1      -8.341   3.059 122.411  0.00  0.00    +0.000 C 
ATOM     20  O   UNL     1      -7.238   2.239 122.795  0.00  0.00    +0.000 OA
ENDBRANCH  13  20
ENDBRANCH   1  16
BRANCH  10  21
ATOM     21  O   UNL     1     -10.487   4.700 129.673  0.00  0.00    +0.000 OA
BRANCH  21  22
ATOM     22  C   UNL     1     -11.015   5.980 129.780  0.00  0.00    +0.000 A 
ATOM     23  C   UNL     1     -11.882   6.198 130.877  0.00  0.00    +0.000 A 
ATOM     24  C   UNL     1     -12.628   7.383 130.975  0.00  0.00    +0.000 A 
ATOM     25  F   UNL     1     -13.482   7.562 131.994  0.00  0.00    +0.000 F 
ATOM     26  C   UNL     1     -12.533   8.376 130.024  0.00  0.00    +0.000 A 
ATOM     27  C   UNL     1     -11.695   8.171 128.954  0.00  0.00    +0.000 A 
ATOM     28  F   UNL     1     -11.639   9.129 128.016  0.00  0.00    +0.000 F 
ATOM     29  C   UNL     1     -10.971   6.981 128.771  0.00  0.00    +0.000 A 
ATOM     30  C   UNL     1     -10.360   6.919 127.400  0.00  0.00    +0.000 C 
ENDBRANCH  21  22
ENDBRANCH  10  21
TORSDOF 4
ENDMDL
MODEL 3
REMARK VINA RESULT:      -8.1      4.060      8.191
REMARK  Name = CHEMBL606976
REMARK  7 active torsions:
REMARK  status: ('A' for Active; 'I' for Inactive)
REMARK    1  A    between atoms: C_1  and  O_2
REMARK    2  A    between atoms: O_2  and  C_3
REMARK    3  A    between atoms: C_6  and  N_7
REMARK    4  A    between atoms: C_8  and  C_9
REMARK    5  A    between atoms: C_16  and  O_17
REMARK    6  A    between atoms: O_17  and  C_18
REMARK    7  A    between atoms: C_25  and  C_26
REMARK                            x       y       z     vdW  Elec       q    Type
REMARK                         _______ _______ _______ _____ _____    ______ ____
ROOT
ATOM      1  N   UNL     1      -8.272   2.875 131.963  0.00  0.00    +0.000 N 
ATOM      2  C   UNL     1      -8.049   2.970 133.340  0.00  0.00    +0.000 A 
ATOM      3  C   UNL     1      -8.535   3.988 134.310  0.00  0.00    +0.000 C 
ATOM      4  N   UNL     1      -7.389   1.895 133.736  0.00  0.00    +0.000 NA
ATOM      5  N   UNL     1      -7.164   1.093 132.658  0.00  0.00    +0.000 NA
ATOM      6  C   UNL     1      -7.611   1.706 131.571  0.00  0.00    +0.000 A 
ATOM      7  N   UNL     1      -7.482   1.255 130.299  0.00  0.00    +0.000 N 
ATOM      8  C   UNL     1      -7.844  -0.106 129.982  0.00  0.00    +0.000 C 
ATOM      9  C   UNL     1      -6.628  -0.876 129.435  0.00  0.00    +0.000 C 
ATOM     10  C   UNL     1      -6.193  -0.245 128.125  0.00  0.00    +0.000 C 
ATOM     11  C   UNL     1      -5.799   1.207 128.508  0.00  0.00    +0.000 C 
ATOM     12  C   UNL     1      -6.950   2.004 129.167  0.00  0.00    +0.000 C 
ENDROOT
BRANCH   1  16
ATOM     13  C   UNL     1     -10.710   5.360 129.646  0.00  0.00    +0.000 A 
ATOM     14  C   UNL     1      -9.430   5.801 129.952  0.00  0.00    +0.000 A 
ATOM     15  C   UNL     1      -8.591   4.971 130.710  0.00  0.00    +0.000 A 
ATOM     16  C   UNL     1      -9.051   3.716 131.123  0.00  0.00    +0.000 A 
ATOM     17  C   UNL     1     -10.353   3.374 130.805  0.00  0.00    +0.000 A 
ATOM     18  N   UNL     1     -11.188   4.173 130.086  0.00  0.00    +0.000 NA
BRANCH  13  20
ATOM     19  C   UNL     1     -12.576   6.794 129.812  0.00  0.00    +0.000 C 
ATOM     20  O   UNL     1     -11.625   6.133 128.978  0.00  0.00    +0.000 OA
ENDBRANCH  13  20
ENDBRANCH   1  16
BRANCH  10  21
ATOM     21  O   UNL     1      -7.243  -0.279 127.112  0.00  0.00    +0.000 OA
BRANCH  21  22
ATOM     22  C   UNL     1      -7.168  -1.200 126.075  0.00  0.00    +0.000 A 
ATOM     23  C   UNL     1      -6.671  -0.705 124.847  0.00  0.00    +0.000 A 
ATOM     24  C   UNL     1      -6.737  -1.485 123.681  0.00  0.00    +0.000 A 
ATOM     25  F   UNL     1      -6.305  -0.989 122.512  0.00  0.00    +0.000 F 
ATOM     26  C   UNL     1      -7.267  -2.756 123.693  0.00  0.00    +0.000 A 
ATOM     27  C   UNL     1      -7.754  -3.245 124.883  0.00  0.00    +0.000 A 
ATOM     28  F   UNL     1      -8.302  -4.469 124.874  0.00  0.00    +0.000 F 
ATOM     29  C   UNL     1      -7.771  -2.488 126.066  0.00  0.00    +0.000 A 
ATOM     30  C   UNL     1      -8.596  -3.156 127.129  0.00  0.00    +0.000 C 
ENDBRANCH  21  22
ENDBRANCH  10  21
TORSDOF 4
ENDMDL
MODEL 4
REMARK VINA RESULT:      -8.0      4.758      6.724
REMARK  Name = CHEMBL606976
REMARK  7 active torsions:
REMARK  status: ('A' for Active; 'I' for Inactive)
REMARK    1  A    between atoms: C_1  and  O_2
REMARK    2  A    between atoms: O_2  and  C_3
REMARK    3  A    between atoms: C_6  and  N_7
REMARK    4  A    between atoms: C_8  and  C_9
REMARK    5  A    between atoms: C_16  and  O_17
REMARK    6  A    between atoms: O_17  and  C_18
REMARK    7  A    between atoms: C_25  and  C_26
REMARK                            x       y       z     vdW  Elec       q    Type
REMARK                         _______ _______ _______ _____ _____    ______ ____
ROOT
ATOM      1  N   UNL     1      -6.747   2.905 123.176  0.00  0.00    +0.000 N 
ATOM      2  C   UNL     1      -5.947   3.515 122.205  0.00  0.00    +0.000 A 
ATOM      3  C   UNL     1      -5.743   3.147 120.778  0.00  0.00    +0.000 C 
ATOM      4  N   UNL     1      -5.430   4.619 122.718  0.00  0.00    +0.000 NA
ATOM      5  N   UNL     1      -5.862   4.754 124.002  0.00  0.00    +0.000 NA
ATOM      6  C   UNL     1      -6.584   3.690 124.323  0.00  0.00    +0.000 A 
ATOM      7  N   UNL     1      -7.107   3.428 125.545  0.00  0.00    +0.000 N 
ATOM      8  C   UNL     1      -7.854   4.451 126.239  0.00  0.00    +0.000 C 
ATOM      9  C   UNL     1      -7.182   4.795 127.581  0.00  0.00    +0.000 C 
ATOM     10  C   UNL     1      -7.219   3.572 128.479  0.00  0.00    +0.000 C 
ATOM     11  C   UNL     1      -6.396   2.503 127.709  0.00  0.00    +0.000 C 
ATOM     12  C   UNL     1      -6.957   2.190 126.302  0.00  0.00    +0.000 C 
ENDROOT
BRANCH   1  16
ATOM     13  C   UNL     1      -9.218  -0.464 122.997  0.00  0.00    +0.000 A 
ATOM     14  C   UNL     1      -9.807   0.786 122.869  0.00  0.00    +0.000 A 
ATOM     15  C   UNL     1      -8.990   1.926 122.904  0.00  0.00    +0.000 A 
ATOM     16  C   UNL     1      -7.606   1.781 123.049  0.00  0.00    +0.000 A 
ATOM     17  C   UNL     1      -7.110   0.499 123.207  0.00  0.00    +0.000 A 
ATOM     18  N   UNL     1      -7.889  -0.618 123.193  0.00  0.00    +0.000 NA
BRANCH  13  20
ATOM     19  C   UNL     1      -9.202  -2.777 123.458  0.00  0.00    +0.000 C 
ATOM     20  O   UNL     1      -9.942  -1.627 123.052  0.00  0.00    +0.000 OA
ENDBRANCH  13  20
ENDBRANCH   1  16
BRANCH  10  21
ATOM     21  O   UNL     1      -8.579   3.122 128.756  0.00  0.00    +0.000 OA
BRANCH  21  22
ATOM     22  C   UNL     1      -8.925   2.734 130.045  0.00  0.00    +0.000 A 
ATOM     23  C   UNL     1      -9.267   3.783 130.930  0.00  0.00    +0.000 A 
ATOM     24  C   UNL     1      -9.437   3.535 132.302  0.00  0.00    +0.000 A 
ATOM     25  F   UNL     1      -9.716   4.543 133.141  0.00  0.00    +0.000 F 
ATOM     26  C   UNL     1      -9.297   2.270 132.828  0.00  0.00    +0.000 A 
ATOM     27  C   UNL     1      -8.962   1.245 131.975  0.00  0.00    +0.000 A 
ATOM     28  F   UNL     1      -8.791   0.025 132.505  0.00  0.00    +0.000 F 
ATOM     29  C   UNL     1      -8.719   1.444 130.605  0.00  0.00    +0.000 A 
ATOM     30  C   UNL     1      -8.113   0.222 129.975  0.00  0.00    +0.000 C 
ENDBRANCH  21  22
ENDBRANCH  10  21
TORSDOF 4
ENDMDL
MODEL 5
REMARK VINA RESULT:      -7.9      4.388      8.258
REMARK  Name = CHEMBL606976
REMARK  7 active torsions:
REMARK  status: ('A' for Active; 'I' for Inactive)
REMARK    1  A    between atoms: C_1  and  O_2
REMARK    2  A    between atoms: O_2  and  C_3
REMARK    3  A    between atoms: C_6  and  N_7
REMARK    4  A    between atoms: C_8  and  C_9
REMARK    5  A    between atoms: C_16  and  O_17
REMARK    6  A    between atoms: O_17  and  C_18
REMARK    7  A    between atoms: C_25  and  C_26
REMARK                            x       y       z     vdW  Elec       q    Type
REMARK                         _______ _______ _______ _____ _____    ______ ____
ROOT
ATOM      1  N   UNL     1      -8.630   3.286 131.568  0.00  0.00    +0.000 N 
ATOM      2  C   UNL     1      -8.534   3.043 132.941  0.00  0.00    +0.000 A 
ATOM      3  C   UNL     1      -9.044   3.851 134.082  0.00  0.00    +0.000 C 
ATOM      4  N   UNL     1      -7.985   1.855 133.123  0.00  0.00    +0.000 NA
ATOM      5  N   UNL     1      -7.709   1.305 131.908  0.00  0.00    +0.000 NA
ATOM      6  C   UNL     1      -8.011   2.186 130.963  0.00  0.00    +0.000 A 
ATOM      7  N   UNL     1      -7.790   2.029 129.636  0.00  0.00    +0.000 N 
ATOM      8  C   UNL     1      -8.206   0.812 128.980  0.00  0.00    +0.000 C 
ATOM      9  C   UNL     1      -6.995   0.088 128.363  0.00  0.00    +0.000 C 
ATOM     10  C   UNL     1      -6.398   0.963 127.277  0.00  0.00    +0.000 C 
ATOM     11  C   UNL     1      -5.950   2.250 128.021  0.00  0.00    +0.000 C 
ATOM     12  C   UNL     1      -7.105   2.970 128.757  0.00  0.00    +0.000 C 
ENDROOT
BRANCH   1  16
ATOM     13  C   UNL     1     -10.671   6.432 129.718  0.00  0.00    +0.000 A 
ATOM     14  C   UNL     1      -9.399   6.681 130.215  0.00  0.00    +0.000 A 
ATOM     15  C   UNL     1      -8.692   5.631 130.819  0.00  0.00    +0.000 A 
ATOM     16  C   UNL     1      -9.269   4.359 130.891  0.00  0.00    +0.000 A 
ATOM     17  C   UNL     1     -10.556   4.211 130.404  0.00  0.00    +0.000 A 
ATOM     18  N   UNL     1     -11.265   5.222 129.830  0.00  0.00    +0.000 NA
BRANCH  13  20
ATOM     19  C   UNL     1     -10.776   8.388 128.403  0.00  0.00    +0.000 C 
ATOM     20  O   UNL     1     -11.467   7.412 129.182  0.00  0.00    +0.000 OA
ENDBRANCH  13  20
ENDBRANCH   1  16
BRANCH  10  21
ATOM     21  O   UNL     1      -7.346   1.251 126.206  0.00  0.00    +0.000 OA
BRANCH  21  22
ATOM     22  C   UNL     1      -7.573   0.302 125.217  0.00  0.00    +0.000 A 
ATOM     23  C   UNL     1      -6.472  -0.524 124.892  0.00  0.00    +0.000 A 
ATOM     24  C   UNL     1      -6.520  -1.377 123.778  0.00  0.00    +0.000 A 
ATOM     25  F   UNL     1      -5.454  -2.123 123.451  0.00  0.00    +0.000 F 
ATOM     26  C   UNL     1      -7.638  -1.455 122.977  0.00  0.00    +0.000 A 
ATOM     27  C   UNL     1      -8.713  -0.654 123.285  0.00  0.00    +0.000 A 
ATOM     28  F   UNL     1      -9.782  -0.710 122.476  0.00  0.00    +0.000 F 
ATOM     29  C   UNL     1      -8.699   0.263 124.349  0.00  0.00    +0.000 A 
ATOM     30  C   UNL     1      -9.882   1.188 124.289  0.00  0.00    +0.000 C 
ENDBRANCH  21  22
ENDBRANCH  10  21
TORSDOF 4
ENDMDL
MODEL 6
REMARK VINA RESULT:      -7.9      5.432      7.703
REMARK  Name = CHEMBL606976
REMARK  7 active torsions:
REMARK  status: ('A' for Active; 'I' for Inactive)
REMARK    1  A    between atoms: C_1  and  O_2
REMARK    2  A    between atoms: O_2  and  C_3
REMARK    3  A    between atoms: C_6  and  N_7
REMARK    4  A    between atoms: C_8  and  C_9
REMARK    5  A    between atoms: C_16  and  O_17
REMARK    6  A    between atoms: O_17  and  C_18
REMARK    7  A    between atoms: C_25  and  C_26
REMARK                            x       y       z     vdW  Elec       q    Type
REMARK                         _______ _______ _______ _____ _____    ______ ____
ROOT
ATOM      1  N   UNL     1      -7.817  -1.484 127.554  0.00  0.00    +0.000 N 
ATOM      2  C   UNL     1      -8.210  -2.740 128.024  0.00  0.00    +0.000 A 
ATOM      3  C   UNL     1      -7.887  -3.414 129.310  0.00  0.00    +0.000 C 
ATOM      4  N   UNL     1      -9.067  -3.263 127.163  0.00  0.00    +0.000 NA
ATOM      5  N   UNL     1      -9.248  -2.389 126.134  0.00  0.00    +0.000 NA
ATOM      6  C   UNL     1      -8.441  -1.352 126.308  0.00  0.00    +0.000 A 
ATOM      7  N   UNL     1      -8.277  -0.323 125.443  0.00  0.00    +0.000 N 
ATOM      8  C   UNL     1      -9.435   0.354 124.908  0.00  0.00    +0.000 C 
ATOM      9  C   UNL     1      -9.471   0.234 123.373  0.00  0.00    +0.000 C 
ATOM     10  C   UNL     1      -8.265   0.951 122.794  0.00  0.00    +0.000 C 
ATOM     11  C   UNL     1      -7.045   0.189 123.378  0.00  0.00    +0.000 C 
ATOM     12  C   UNL     1      -7.008   0.177 124.924  0.00  0.00    +0.000 C 
ENDROOT
BRANCH   1  16
ATOM     13  C   UNL     1      -5.580   1.375 129.631  0.00  0.00    +0.000 A 
ATOM     14  C   UNL     1      -4.899   0.339 129.009  0.00  0.00    +0.000 A 
ATOM     15  C   UNL     1      -5.632  -0.617 128.289  0.00  0.00    +0.000 A 
ATOM     16  C   UNL     1      -7.023  -0.497 128.198  0.00  0.00    +0.000 A 
ATOM     17  C   UNL     1      -7.622   0.547 128.881  0.00  0.00    +0.000 A 
ATOM     18  N   UNL     1      -6.929   1.474 129.599  0.00  0.00    +0.000 NA
BRANCH  13  20
ATOM     19  C   UNL     1      -5.677   3.532 130.583  0.00  0.00    +0.000 C 
ATOM     20  O   UNL     1      -4.958   2.310 130.419  0.00  0.00    +0.000 OA
ENDBRANCH  13  20
ENDBRANCH   1  16
BRANCH  10  21
ATOM     21  O   UNL     1      -8.240   2.370 123.137  0.00  0.00    +0.000 OA
BRANCH  21  22
ATOM     22  C   UNL     1      -7.375   3.223 122.463  0.00  0.00    +0.000 A 
ATOM     23  C   UNL     1      -7.630   3.392 121.082  0.00  0.00    +0.000 A 
ATOM     24  C   UNL     1      -6.712   4.065 120.261  0.00  0.00    +0.000 A 
ATOM     25  F   UNL     1      -6.940   4.180 118.944  0.00  0.00    +0.000 F 
ATOM     26  C   UNL     1      -5.547   4.598 120.768  0.00  0.00    +0.000 A 
ATOM     27  C   UNL     1      -5.290   4.437 122.110  0.00  0.00    +0.000 A 
ATOM     28  F   UNL     1      -4.135   4.927 122.585  0.00  0.00    +0.000 F 
ATOM     29  C   UNL     1      -6.142   3.720 122.967  0.00  0.00    +0.000 A 
ATOM     30  C   UNL     1      -5.492   3.471 124.298  0.00  0.00    +0.000 C 
ENDBRANCH  21  22
ENDBRANCH  10  21
TORSDOF 4
ENDMDL
MODEL 7
REMARK VINA RESULT:      -7.9      4.453      8.245
REMARK  Name = CHEMBL606976
REMARK  7 active torsions:
REMARK  status: ('A' for Active; 'I' for Inactive)
REMARK    1  A    between atoms: C_1  and  O_2
REMARK    2  A    between atoms: O_2  and  C_3
REMARK    3  A    between atoms: C_6  and  N_7
REMARK    4  A    between atoms: C_8  and  C_9
REMARK    5  A    between atoms: C_16  and  O_17
REMARK    6  A    between atoms: O_17  and  C_18
REMARK    7  A    between atoms: C_25  and  C_26
REMARK                            x       y       z     vdW  Elec       q    Type
REMARK                         _______ _______ _______ _____ _____    ______ ____
ROOT
ATOM      1  N   UNL     1      -8.216   3.617 129.910  0.00  0.00    +0.000 N 
ATOM      2  C   UNL     1      -8.502   4.933 130.284  0.00  0.00    +0.000 A 
ATOM      3  C   UNL     1      -8.757   5.500 131.636  0.00  0.00    +0.000 C 
ATOM      4  N   UNL     1      -8.406   5.706 129.215  0.00  0.00    +0.000 NA
ATOM      5  N   UNL     1      -8.068   4.936 128.143  0.00  0.00    +0.000 NA
ATOM      6  C   UNL     1      -8.034   3.667 128.524  0.00  0.00    +0.000 A 
ATOM      7  N   UNL     1      -7.821   2.603 127.712  0.00  0.00    +0.000 N 
ATOM      8  C   UNL     1      -6.707   2.615 126.793  0.00  0.00    +0.000 C 
ATOM      9  C   UNL     1      -7.203   2.497 125.340  0.00  0.00    +0.000 C 
ATOM     10  C   UNL     1      -7.879   1.151 125.157  0.00  0.00    +0.000 C 
ATOM     11  C   UNL     1      -9.075   1.181 126.147  0.00  0.00    +0.000 C 
ATOM     12  C   UNL     1      -8.652   1.408 127.617  0.00  0.00    +0.000 C 
ENDROOT
BRANCH   1  16
ATOM     13  C   UNL     1      -7.675   0.360 132.477  0.00  0.00    +0.000 A 
ATOM     14  C   UNL     1      -8.965   0.660 132.065  0.00  0.00    +0.000 A 
ATOM     15  C   UNL     1      -9.162   1.736 131.186  0.00  0.00    +0.000 A 
ATOM     16  C   UNL     1      -8.061   2.468 130.732  0.00  0.00    +0.000 A 
ATOM     17  C   UNL     1      -6.815   2.123 131.224  0.00  0.00    +0.000 A 
ATOM     18  N   UNL     1      -6.606   1.094 132.091  0.00  0.00    +0.000 NA
BRANCH  13  20
ATOM     19  C   UNL     1      -7.760  -1.941 132.991  0.00  0.00    +0.000 C 
ATOM     20  O   UNL     1      -7.393  -0.621 133.393  0.00  0.00    +0.000 OA
ENDBRANCH  13  20
ENDBRANCH   1  16
BRANCH  10  21
ATOM     21  O   UNL     1      -6.979   0.032 125.420  0.00  0.00    +0.000 OA
BRANCH  21  22
ATOM     22  C   UNL     1      -7.446  -1.270 125.291  0.00  0.00    +0.000 A 
ATOM     23  C   UNL     1      -7.896  -1.636 124.001  0.00  0.00    +0.000 A 
ATOM     24  C   UNL     1      -8.572  -2.850 123.796  0.00  0.00    +0.000 A 
ATOM     25  F   UNL     1      -9.036  -3.167 122.578  0.00  0.00    +0.000 F 
ATOM     26  C   UNL     1      -8.803  -3.729 124.830  0.00  0.00    +0.000 A 
ATOM     27  C   UNL     1      -8.371  -3.380 126.088  0.00  0.00    +0.000 A 
ATOM     28  F   UNL     1      -8.635  -4.227 127.094  0.00  0.00    +0.000 F 
ATOM     29  C   UNL     1      -7.745  -2.153 126.364  0.00  0.00    +0.000 A 
ATOM     30  C   UNL     1      -7.628  -1.921 127.844  0.00  0.00    +0.000 C 
ENDBRANCH  21  22
ENDBRANCH  10  21
TORSDOF 4
ENDMDL
MODEL 8
REMARK VINA RESULT:      -7.9      4.236      5.154
REMARK  Name = CHEMBL606976
REMARK  7 active torsions:
REMARK  status: ('A' for Active; 'I' for Inactive)
REMARK    1  A    between atoms: C_1  and  O_2
REMARK    2  A    between atoms: O_2  and  C_3
REMARK    3  A    between atoms: C_6  and  N_7
REMARK    4  A    between atoms: C_8  and  C_9
REMARK    5  A    between atoms: C_16  and  O_17
REMARK    6  A    between atoms: O_17  and  C_18
REMARK    7  A    between atoms: C_25  and  C_26
REMARK                            x       y       z     vdW  Elec       q    Type
REMARK                         _______ _______ _______ _____ _____    ______ ____
ROOT
ATOM      1  N   UNL     1      -6.699   2.749 127.969  0.00  0.00    +0.000 N 
ATOM      2  C   UNL     1      -5.306   2.741 128.087  0.00  0.00    +0.000 A 
ATOM      3  C   UNL     1      -4.297   1.951 127.330  0.00  0.00    +0.000 C 
ATOM      4  N   UNL     1      -4.951   3.678 128.949  0.00  0.00    +0.000 NA
ATOM      5  N   UNL     1      -6.070   4.303 129.409  0.00  0.00    +0.000 NA
ATOM      6  C   UNL     1      -7.135   3.702 128.897  0.00  0.00    +0.000 A 
ATOM      7  N   UNL     1      -8.425   3.988 129.195  0.00  0.00    +0.000 N 
ATOM      8  C   UNL     1      -8.878   5.359 129.167  0.00  0.00    +0.000 C 
ATOM      9  C   UNL     1      -9.392   5.787 130.554  0.00  0.00    +0.000 C 
ATOM     10  C   UNL     1     -10.610   4.953 130.908  0.00  0.00    +0.000 C 
ATOM     11  C   UNL     1     -10.081   3.494 130.943  0.00  0.00    +0.000 C 
ATOM     12  C   UNL     1      -9.449   3.035 129.607  0.00  0.00    +0.000 C 
ENDROOT
BRANCH   1  16
ATOM     13  C   UNL     1      -8.985   0.646 125.168  0.00  0.00    +0.000 A 
ATOM     14  C   UNL     1      -8.554  -0.031 126.300  0.00  0.00    +0.000 A 
ATOM     15  C   UNL     1      -7.805   0.665 127.260  0.00  0.00    +0.000 A 
ATOM     16  C   UNL     1      -7.525   2.022 127.069  0.00  0.00    +0.000 A 
ATOM     17  C   UNL     1      -7.962   2.607 125.893  0.00  0.00    +0.000 A 
ATOM     18  N   UNL     1      -8.675   1.944 124.942  0.00  0.00    +0.000 NA
BRANCH  13  20
ATOM     19  C   UNL     1      -8.925  -1.002 123.481  0.00  0.00    +0.000 C 
ATOM     20  O   UNL     1      -9.655   0.032 124.141  0.00  0.00    +0.000 OA
ENDBRANCH  13  20
ENDBRANCH   1  16
BRANCH  10  21
ATOM     21  O   UNL     1     -11.699   5.118 129.951  0.00  0.00    +0.000 OA
BRANCH  21  22
ATOM     22  C   UNL     1     -12.038   6.391 129.510  0.00  0.00    +0.000 A 
ATOM     23  C   UNL     1     -11.611   6.722 128.202  0.00  0.00    +0.000 A 
ATOM     24  C   UNL     1     -11.718   8.039 127.726  0.00  0.00    +0.000 A 
ATOM     25  F   UNL     1     -11.267   8.353 126.502  0.00  0.00    +0.000 F 
ATOM     26  C   UNL     1     -12.253   9.044 128.501  0.00  0.00    +0.000 A 
ATOM     27  C   UNL     1     -12.669   8.732 129.774  0.00  0.00    +0.000 A 
ATOM     28  F   UNL     1     -13.155   9.726 130.532  0.00  0.00    +0.000 F 
ATOM     29  C   UNL     1     -12.531   7.447 130.325  0.00  0.00    +0.000 A 
ATOM     30  C   UNL     1     -12.810   7.454 131.801  0.00  0.00    +0.000 C 
ENDBRANCH  21  22
ENDBRANCH  10  21
TORSDOF 4
ENDMDL
MODEL 9
REMARK VINA RESULT:      -7.8      4.073      6.181
REMARK  Name = CHEMBL606976
REMARK  7 active torsions:
REMARK  status: ('A' for Active; 'I' for Inactive)
REMARK    1  A    between atoms: C_1  and  O_2
REMARK    2  A    between atoms: O_2  and  C_3
REMARK    3  A    between atoms: C_6  and  N_7
REMARK    4  A    between atoms: C_8  and  C_9
REMARK    5  A    between atoms: C_16  and  O_17
REMARK    6  A    between atoms: O_17  and  C_18
REMARK    7  A    between atoms: C_25  and  C_26
REMARK                            x       y       z     vdW  Elec       q    Type
REMARK                         _______ _______ _______ _____ _____    ______ ____
ROOT
ATOM      1  N   UNL     1      -7.045  -0.744 125.379  0.00  0.00    +0.000 N 
ATOM      2  C   UNL     1      -7.544  -1.418 124.260  0.00  0.00    +0.000 A 
ATOM      3  C   UNL     1      -7.852  -2.863 124.086  0.00  0.00    +0.000 C 
ATOM      4  N   UNL     1      -7.839  -0.528 123.328  0.00  0.00    +0.000 NA
ATOM      5  N   UNL     1      -7.545   0.716 123.797  0.00  0.00    +0.000 NA
ATOM      6  C   UNL     1      -6.987   0.600 124.994  0.00  0.00    +0.000 A 
ATOM      7  N   UNL     1      -6.481   1.617 125.733  0.00  0.00    +0.000 N 
ATOM      8  C   UNL     1      -7.267   2.810 125.942  0.00  0.00    +0.000 C 
ATOM      9  C   UNL     1      -6.541   4.043 125.372  0.00  0.00    +0.000 C 
ATOM     10  C   UNL     1      -5.250   4.255 126.141  0.00  0.00    +0.000 C 
ATOM     11  C   UNL     1      -4.429   2.963 125.880  0.00  0.00    +0.000 C 
ATOM     12  C   UNL     1      -5.152   1.672 126.332  0.00  0.00    +0.000 C 
ENDROOT
BRANCH   1  16
ATOM     13  C   UNL     1      -6.269  -2.390 129.144  0.00  0.00    +0.000 A 
ATOM     14  C   UNL     1      -5.280  -2.481 128.175  0.00  0.00    +0.000 A 
ATOM     15  C   UNL     1      -5.515  -1.914 126.913  0.00  0.00    +0.000 A 
ATOM     16  C   UNL     1      -6.725  -1.258 126.664  0.00  0.00    +0.000 A 
ATOM     17  C   UNL     1      -7.669  -1.248 127.676  0.00  0.00    +0.000 A 
ATOM     18  N   UNL     1      -7.466  -1.808 128.901  0.00  0.00    +0.000 NA
BRANCH  13  20
ATOM     19  C   UNL     1      -5.833  -4.368 130.354  0.00  0.00    +0.000 C 
ATOM     20  O   UNL     1      -6.161  -2.979 130.378  0.00  0.00    +0.000 OA
ENDBRANCH  13  20
ENDBRANCH   1  16
BRANCH  10  21
ATOM     21  O   UNL     1      -5.477   4.482 127.564  0.00  0.00    +0.000 OA
BRANCH  21  22
ATOM     22  C   UNL     1      -4.471   5.045 128.339  0.00  0.00    +0.000 A 
ATOM     23  C   UNL     1      -3.762   6.115 127.743  0.00  0.00    +0.000 A 
ATOM     24  C   UNL     1      -2.601   6.626 128.344  0.00  0.00    +0.000 A 
ATOM     25  F   UNL     1      -1.909   7.610 127.748  0.00  0.00    +0.000 F 
ATOM     26  C   UNL     1      -2.122   6.123 129.533  0.00  0.00    +0.000 A 
ATOM     27  C   UNL     1      -2.804   5.081 130.118  0.00  0.00    +0.000 A 
ATOM     28  F   UNL     1      -2.308   4.575 131.257  0.00  0.00    +0.000 F 
ATOM     29  C   UNL     1      -3.936   4.488 129.533  0.00  0.00    +0.000 A 
ATOM     30  C   UNL     1      -4.310   3.215 130.237  0.00  0.00    +0.000 C 
ENDBRANCH  21  22
ENDBRANCH  10  21
TORSDOF 4
ENDMDL
