MODEL 1
REMARK VINA RESULT:      -8.3      0.000      0.000
REMARK  Name = CHEMBL373742
REMARK  21 active torsions:
REMARK  status: ('A' for Active; 'I' for Inactive)
REMARK    1  A    between atoms: N_4  and  C_5
REMARK    2  A    between atoms: C_5  and  C_6
REMARK    3  A    between atoms: C_6  and  C_7
REMARK    4  A    between atoms: C_7  and  C_8
REMARK    5  A    between atoms: C_8  and  N_9
REMARK    6  A    between atoms: C_8  and  C_69
REMARK    7  A    between atoms: C_10  and  C_12
REMARK    8  A    between atoms: C_17  and  C_19
REMARK    9  A    between atoms: C_24  and  N_25
REMARK   10  A    between atoms: C_29  and  C_30
REMARK   11  A    between atoms: C_30  and  C_31
REMARK   12  A    between atoms: C_34  and  O_35
REMARK   13  A    between atoms: C_41  and  C_42
REMARK   14  A    between atoms: C_42  and  C_43
REMARK   15  A    between atoms: C_52  and  C_53
REMARK   16  A    between atoms: C_53  and  C_54
REMARK   17  A    between atoms: C_54  and  C_55
REMARK   18  A    between atoms: C_61  and  C_62
REMARK   19  A    between atoms: C_62  and  C_63
REMARK   20  A    between atoms: N_71  and  C_72
REMARK   21  A    between atoms: C_72  and  C_73
REMARK                            x       y       z     vdW  Elec       q    Type
REMARK                         _______ _______ _______ _____ _____    ______ ____
ROOT
ATOM      1  C   UNL     1      -4.342   5.388 134.557  0.00  0.00    +0.000 C 
ATOM      2  C   UNL     1      -3.325   7.902 135.559  0.00  0.00    +0.000 C 
ATOM      3  S   UNL     1      -2.052  10.412 136.810  0.00  0.00    +0.000 S 
ATOM      4  S   UNL     1      -2.049  12.790 138.831  0.00  0.00    +0.000 S 
ATOM      5  C   UNL     1      -2.290  12.880 137.439  0.00  0.00    +0.000 C 
ATOM      6  C   UNL     1      -3.354  11.578 137.930  0.00  0.00    +0.000 C 
ATOM      7  C   UNL     1      -2.317  10.251 138.967  0.00  0.00    +0.000 C 
ATOM      8  O   UNL     1      -1.606  10.723 139.851  0.00  0.00    +0.000 OA
ATOM      9  N   UNL     1      -1.878   8.942 138.251  0.00  0.00    +0.000 N 
ATOM     10  C   UNL     1      -2.013   8.298 136.868  0.00  0.00    +0.000 C 
ATOM     11  C   UNL     1      -4.113   8.792 136.969  0.00  0.00    +0.000 C 
ATOM     12  O   UNL     1      -4.597   9.926 137.000  0.00  0.00    +0.000 OA
ATOM     13  N   UNL     1      -4.793   7.717 136.402  0.00  0.00    +0.000 N 
ATOM     14  C   UNL     1      -4.065   6.498 136.078  0.00  0.00    +0.000 C 
ATOM     15  C   UNL     1      -3.057   6.880 134.326  0.00  0.00    +0.000 C 
ATOM     16  O   UNL     1      -2.176   7.805 134.181  0.00  0.00    +0.000 OA
ATOM     17  N   UNL     1      -3.289   6.177 133.353  0.00  0.00    +0.000 N 
ATOM     18  C   UNL     1      -4.219   5.189 133.041  0.00  0.00    +0.000 C 
ATOM     19  C   UNL     1      -3.686   3.681 134.688  0.00  0.00    +0.000 C 
ATOM     20  O   UNL     1      -3.638   3.890 135.935  0.00  0.00    +0.000 OA
ATOM     21  N   UNL     1      -3.728   2.380 134.201  0.00  0.00    +0.000 N 
ATOM     22  C   UNL     1      -4.037   1.809 132.776  0.00  0.00    +0.000 C 
ATOM     23  C   UNL     1      -5.352   2.713 131.707  0.00  0.00    +0.000 C 
ATOM     24  O   UNL     1      -6.400   3.795 131.984  0.00  0.00    +0.000 OA
ATOM     25  N   UNL     1      -5.517   3.856 133.353  0.00  0.00    +0.000 N 
ATOM     26  H   UNL     1      -1.160   8.480 138.538  0.00  0.00    +0.000 HD
ATOM     27  H   UNL     1      -5.708   7.761 136.357  0.00  0.00    +0.000 HD
ATOM     28  H   UNL     1      -2.760   6.255 132.607  0.00  0.00    +0.000 HD
ATOM     29  H   UNL     1      -3.775   1.716 134.853  0.00  0.00    +0.000 HD
ATOM     30  H   UNL     1      -6.306   2.887 132.429  0.00  0.00    +0.000 HD
ENDROOT
BRANCH   1  36
ATOM     31  C   UNL     1      -6.841  -0.773 130.536  0.00  0.00    +0.000 C 
ATOM     32  C   UNL     1      -7.886  -2.059 128.954  0.00  0.00    +0.000 C 
ATOM     33  C   UNL     1      -8.154  -3.064 129.929  0.00  0.00    +0.000 C 
ATOM     34  C   UNL     1      -7.489  -1.420 131.545  0.00  0.00    +0.000 C 
ATOM     35  N   UNL     1      -6.352   0.789 132.299  0.00  0.00    +0.000 N 
ATOM     36  C   UNL     1      -5.333   2.838 133.486  0.00  0.00    +0.000 C 
ATOM     37  O   UNL     1      -6.237   1.418 133.462  0.00  0.00    +0.000 OA
BRANCH  31  39
ATOM     38  N   UNL     1      -7.458   0.798 128.725  0.00  0.00    +0.000 N 
ATOM     39  C   UNL     1      -6.643  -0.133 129.305  0.00  0.00    +0.000 C 
ATOM     40  O   UNL     1      -5.453  -0.086 129.568  0.00  0.00    +0.000 OA
ATOM     41  H   UNL     1      -8.378   0.636 128.336  0.00  0.00    +0.000 HD
BRANCH  38  42
ATOM     42  C   UNL     1      -6.973   2.188 128.686  0.00  0.00    +0.000 C 
BRANCH  42  43
ATOM     43  C   UNL     1      -8.106   3.228 128.913  0.00  0.00    +0.000 C 
ATOM     44  O   UNL     1      -9.366   2.799 128.857  0.00  0.00    +0.000 OA
ATOM     45  N   UNL     1      -7.752   4.449 129.498  0.00  0.00    +0.000 N 
ATOM     46  H   UNL     1      -6.867   4.727 129.783  0.00  0.00    +0.000 HD
BRANCH  45  47
ATOM     47  C   UNL     1      -8.669   5.453 129.905  0.00  0.00    +0.000 C 
BRANCH  47  48
ATOM     48  C   UNL     1      -8.299   6.554 130.775  0.00  0.00    +0.000 C 
ATOM     49  N   UNL     1      -8.127   6.215 132.004  0.00  0.00    +0.000 N 
ATOM     50  O   UNL     1      -7.918   7.611 130.382  0.00  0.00    +0.000 OA
ATOM     51  H   UNL     1      -8.344   5.307 132.329  0.00  0.00    +0.000 HD
ATOM     52  H   UNL     1      -7.679   6.860 132.623  0.00  0.00    +0.000 HD
ENDBRANCH  47  48
ENDBRANCH  45  47
ENDBRANCH  42  43
BRANCH  42  53
ATOM     53  C   UNL     1      -6.495   2.635 127.372  0.00  0.00    +0.000 C 
BRANCH  53  54
ATOM     54  C   UNL     1      -5.675   2.050 126.250  0.00  0.00    +0.000 C 
BRANCH  54  55
ATOM     55  C   UNL     1      -4.190   2.156 126.610  0.00  0.00    +0.000 C 
BRANCH  55  59
ATOM     56  N   UNL     1      -2.283   5.148 127.651  0.00  0.00    +0.000 NA
ATOM     57  C   UNL     1      -2.509   3.972 127.144  0.00  0.00    +0.000 C 
ATOM     58  N   UNL     1      -1.485   3.196 126.597  0.00  0.00    +0.000 N 
ATOM     59  N   UNL     1      -3.831   3.455 127.148  0.00  0.00    +0.000 N 
ATOM     60  H   UNL     1      -1.319   5.497 127.636  0.00  0.00    +0.000 HD
ATOM     61  H   UNL     1      -0.513   3.517 126.568  0.00  0.00    +0.000 HD
ATOM     62  H   UNL     1      -1.634   2.277 126.197  0.00  0.00    +0.000 HD
ATOM     63  H   UNL     1      -4.604   4.016 127.549  0.00  0.00    +0.000 HD
ENDBRANCH  55  59
ENDBRANCH  54  55
ENDBRANCH  53  54
ENDBRANCH  42  53
ENDBRANCH  38  42
ENDBRANCH  31  39
ENDBRANCH   1  36
BRANCH   6  64
ATOM     64  N   UNL     1      -4.360  11.843 138.761  0.00  0.00    +0.000 NA
ATOM     65  H   UNL     1      -4.129  11.299 139.573  0.00  0.00    +0.000 HD
ATOM     66  H   UNL     1      -5.090  11.480 138.209  0.00  0.00    +0.000 HD
ENDBRANCH   6  64
BRANCH  14  67
ATOM     67  C   UNL     1      -5.272   5.506 135.940  0.00  0.00    +0.000 C 
BRANCH  67  68
ATOM     68  C   UNL     1      -6.318   5.670 136.681  0.00  0.00    +0.000 A 
ATOM     69  C   UNL     1      -7.431   6.097 136.120  0.00  0.00    +0.000 A 
ATOM     70  C   UNL     1      -8.264   6.669 137.018  0.00  0.00    +0.000 A 
ATOM     71  C   UNL     1      -8.123   6.514 138.362  0.00  0.00    +0.000 A 
ATOM     72  C   UNL     1      -6.956   6.001 138.813  0.00  0.00    +0.000 A 
ATOM     73  C   UNL     1      -6.047   5.532 137.966  0.00  0.00    +0.000 A 
ENDBRANCH  67  68
ENDBRANCH  14  67
BRANCH  10  74
ATOM     74  C   UNL     1      -1.549   7.148 136.352  0.00  0.00    +0.000 C 
BRANCH  74  75
ATOM     75  C   UNL     1      -0.353   7.061 136.937  0.00  0.00    +0.000 A 
ATOM     76  C   UNL     1      -0.168   6.303 138.048  0.00  0.00    +0.000 A 
ATOM     77  C   UNL     1       1.056   5.845 138.353  0.00  0.00    +0.000 A 
ATOM     78  C   UNL     1       2.095   6.191 137.526  0.00  0.00    +0.000 A 
ATOM     79  C   UNL     1       1.881   7.014 136.439  0.00  0.00    +0.000 A 
ATOM     80  C   UNL     1       0.638   7.461 136.145  0.00  0.00    +0.000 A 
BRANCH  78  81
ATOM     81  O   UNL     1       3.372   5.780 137.716  0.00  0.00    +0.000 OA
ATOM     82  H   UNL     1       3.887   5.599 136.916  0.00  0.00    +0.000 HD
ENDBRANCH  78  81
ENDBRANCH  74  75
ENDBRANCH  10  74
BRANCH  18  83
ATOM     83  C   UNL     1      -4.442   4.779 131.871  0.00  0.00    +0.000 C 
BRANCH  83  84
ATOM     84  C   UNL     1      -3.839   5.169 130.824  0.00  0.00    +0.000 C 
BRANCH  84  85
ATOM     85  C   UNL     1      -4.625   6.151 130.023  0.00  0.00    +0.000 C 
ATOM     86  N   UNL     1      -4.871   7.489 130.376  0.00  0.00    +0.000 N 
ATOM     87  O   UNL     1      -5.071   5.707 128.976  0.00  0.00    +0.000 OA
ATOM     88  H   UNL     1      -4.543   7.977 131.210  0.00  0.00    +0.000 HD
ATOM     89  H   UNL     1      -5.430   8.123 129.863  0.00  0.00    +0.000 HD
ENDBRANCH  84  85
ENDBRANCH  83  84
ENDBRANCH  18  83
BRANCH  22  90
ATOM     90  C   UNL     1      -3.790   0.520 132.752  0.00  0.00    +0.000 C 
BRANCH  90  91
ATOM     91  C   UNL     1      -3.001   0.127 133.890  0.00  0.00    +0.000 C 
ATOM     92  N   UNL     1      -1.619   0.023 133.795  0.00  0.00    +0.000 N 
ATOM     93  O   UNL     1      -3.577  -0.085 134.944  0.00  0.00    +0.000 OA
ATOM     94  H   UNL     1      -1.098   0.236 132.945  0.00  0.00    +0.000 HD
ATOM     95  H   UNL     1      -1.075  -0.172 134.612  0.00  0.00    +0.000 HD
ENDBRANCH  90  91
ENDBRANCH  22  90
TORSDOF 21
ENDMDL
MODEL 2
REMARK VINA RESULT:      -8.2      2.836      6.761
REMARK  Name = CHEMBL373742
REMARK  21 active torsions:
REMARK  status: ('A' for Active; 'I' for Inactive)
REMARK    1  A    between atoms: N_4  and  C_5
REMARK    2  A    between atoms: C_5  and  C_6
REMARK    3  A    between atoms: C_6  and  C_7
REMARK    4  A    between atoms: C_7  and  C_8
REMARK    5  A    between atoms: C_8  and  N_9
REMARK    6  A    between atoms: C_8  and  C_69
REMARK    7  A    between atoms: C_10  and  C_12
REMARK    8  A    between atoms: C_17  and  C_19
REMARK    9  A    between atoms: C_24  and  N_25
REMARK   10  A    between atoms: C_29  and  C_30
REMARK   11  A    between atoms: C_30  and  C_31
REMARK   12  A    between atoms: C_34  and  O_35
REMARK   13  A    between atoms: C_41  and  C_42
REMARK   14  A    between atoms: C_42  and  C_43
REMARK   15  A    between atoms: C_52  and  C_53
REMARK   16  A    between atoms: C_53  and  C_54
REMARK   17  A    between atoms: C_54  and  C_55
REMARK   18  A    between atoms: C_61  and  C_62
REMARK   19  A    between atoms: C_62  and  C_63
REMARK   20  A    between atoms: N_71  and  C_72
REMARK   21  A    between atoms: C_72  and  C_73
REMARK                            x       y       z     vdW  Elec       q    Type
REMARK                         _______ _______ _______ _____ _____    ______ ____
ROOT
ATOM      1  C   UNL     1      -5.457   4.900 133.354  0.00  0.00    +0.000 C 
ATOM      2  C   UNL     1      -4.680   5.303 136.109  0.00  0.00    +0.000 C 
ATOM      3  S   UNL     1      -4.007   6.003 139.032  0.00  0.00    +0.000 S 
ATOM      4  S   UNL     1      -2.088   7.096 141.237  0.00  0.00    +0.000 S 
ATOM      5  C   UNL     1      -2.412   5.736 141.015  0.00  0.00    +0.000 C 
ATOM      6  C   UNL     1      -1.987   6.298 139.411  0.00  0.00    +0.000 C 
ATOM      7  C   UNL     1      -3.011   7.942 139.007  0.00  0.00    +0.000 C 
ATOM      8  O   UNL     1      -2.996   8.793 139.894  0.00  0.00    +0.000 OA
ATOM      9  N   UNL     1      -4.256   7.822 138.083  0.00  0.00    +0.000 N 
ATOM     10  C   UNL     1      -5.004   6.729 137.314  0.00  0.00    +0.000 C 
ATOM     11  C   UNL     1      -3.078   6.089 136.577  0.00  0.00    +0.000 C 
ATOM     12  O   UNL     1      -2.153   5.628 137.250  0.00  0.00    +0.000 OA
ATOM     13  N   UNL     1      -3.272   5.723 135.247  0.00  0.00    +0.000 N 
ATOM     14  C   UNL     1      -4.547   6.011 134.604  0.00  0.00    +0.000 C 
ATOM     15  C   UNL     1      -5.863   4.576 135.267  0.00  0.00    +0.000 C 
ATOM     16  O   UNL     1      -6.181   4.397 136.500  0.00  0.00    +0.000 OA
ATOM     17  N   UNL     1      -6.398   3.847 134.444  0.00  0.00    +0.000 N 
ATOM     18  C   UNL     1      -6.253   3.618 133.078  0.00  0.00    +0.000 C 
ATOM     19  C   UNL     1      -6.721   5.735 132.321  0.00  0.00    +0.000 C 
ATOM     20  O   UNL     1      -6.163   6.815 132.667  0.00  0.00    +0.000 OA
ATOM     21  N   UNL     1      -7.491   5.688 131.165  0.00  0.00    +0.000 N 
ATOM     22  C   UNL     1      -8.085   4.487 130.355  0.00  0.00    +0.000 C 
ATOM     23  C   UNL     1      -7.054   2.870 130.252  0.00  0.00    +0.000 C 
ATOM     24  O   UNL     1      -5.610   2.495 130.601  0.00  0.00    +0.000 OA
ATOM     25  N   UNL     1      -5.730   3.962 131.299  0.00  0.00    +0.000 N 
ATOM     26  H   UNL     1      -4.923   8.425 138.132  0.00  0.00    +0.000 HD
ATOM     27  H   UNL     1      -2.549   5.417 134.774  0.00  0.00    +0.000 HD
ATOM     28  H   UNL     1      -7.076   3.291 134.712  0.00  0.00    +0.000 HD
ATOM     29  H   UNL     1      -7.505   6.476 130.668  0.00  0.00    +0.000 HD
ATOM     30  H   UNL     1      -5.932   3.209 129.954  0.00  0.00    +0.000 HD
ENDROOT
BRANCH   1  36
ATOM     31  C   UNL     1      -7.942   2.477 126.403  0.00  0.00    +0.000 C 
ATOM     32  C   UNL     1      -8.323   1.159 124.568  0.00  0.00    +0.000 C 
ATOM     33  C   UNL     1      -8.231   2.298 123.715  0.00  0.00    +0.000 C 
ATOM     34  C   UNL     1      -7.364   3.443 125.637  0.00  0.00    +0.000 C 
ATOM     35  N   UNL     1      -6.920   3.739 128.177  0.00  0.00    +0.000 N 
ATOM     36  C   UNL     1      -6.298   4.453 130.575  0.00  0.00    +0.000 C 
ATOM     37  O   UNL     1      -6.274   4.644 128.903  0.00  0.00    +0.000 OA
BRANCH  31  39
ATOM     38  N   UNL     1      -7.366   0.193 127.166  0.00  0.00    +0.000 N 
ATOM     39  C   UNL     1      -8.249   1.197 126.885  0.00  0.00    +0.000 C 
ATOM     40  O   UNL     1      -9.107   1.711 127.583  0.00  0.00    +0.000 OA
ATOM     41  H   UNL     1      -6.826  -0.341 126.497  0.00  0.00    +0.000 HD
BRANCH  38  42
ATOM     42  C   UNL     1      -7.145  -0.133 128.585  0.00  0.00    +0.000 C 
BRANCH  42  43
ATOM     43  C   UNL     1      -5.695  -0.613 128.874  0.00  0.00    +0.000 C 
ATOM     44  O   UNL     1      -4.926  -0.935 127.834  0.00  0.00    +0.000 OA
ATOM     45  N   UNL     1      -5.171  -0.352 130.145  0.00  0.00    +0.000 N 
ATOM     46  H   UNL     1      -5.614   0.101 130.880  0.00  0.00    +0.000 HD
BRANCH  45  47
ATOM     47  C   UNL     1      -3.828  -0.590 130.537  0.00  0.00    +0.000 C 
BRANCH  47  48
ATOM     48  C   UNL     1      -3.269  -1.923 130.673  0.00  0.00    +0.000 C 
ATOM     49  N   UNL     1      -2.621  -2.326 129.637  0.00  0.00    +0.000 N 
ATOM     50  O   UNL     1      -3.163  -2.495 131.711  0.00  0.00    +0.000 OA
ATOM     51  H   UNL     1      -2.614  -1.811 128.793  0.00  0.00    +0.000 HD
ATOM     52  H   UNL     1      -2.040  -3.135 129.719  0.00  0.00    +0.000 HD
ENDBRANCH  47  48
ENDBRANCH  45  47
ENDBRANCH  42  43
BRANCH  42  53
ATOM     53  C   UNL     1      -7.887  -1.303 129.070  0.00  0.00    +0.000 C 
BRANCH  53  54
ATOM     54  C   UNL     1      -8.139  -2.712 128.594  0.00  0.00    +0.000 C 
BRANCH  54  55
ATOM     55  C   UNL     1      -7.402  -3.688 129.516  0.00  0.00    +0.000 C 
BRANCH  55  59
ATOM     56  N   UNL     1      -6.112  -3.119 132.935  0.00  0.00    +0.000 NA
ATOM     57  C   UNL     1      -6.227  -3.662 131.759  0.00  0.00    +0.000 C 
ATOM     58  N   UNL     1      -5.429  -4.737 131.362  0.00  0.00    +0.000 N 
ATOM     59  N   UNL     1      -7.192  -3.154 130.850  0.00  0.00    +0.000 N 
ATOM     60  H   UNL     1      -5.408  -3.507 133.572  0.00  0.00    +0.000 HD
ATOM     61  H   UNL     1      -4.717  -5.145 131.975  0.00  0.00    +0.000 HD
ATOM     62  H   UNL     1      -5.498  -5.177 130.452  0.00  0.00    +0.000 HD
ATOM     63  H   UNL     1      -7.793  -2.358 131.126  0.00  0.00    +0.000 HD
ENDBRANCH  55  59
ENDBRANCH  54  55
ENDBRANCH  53  54
ENDBRANCH  42  53
ENDBRANCH  38  42
ENDBRANCH  31  39
ENDBRANCH   1  36
BRANCH   6  64
ATOM     64  N   UNL     1      -0.738   6.693 139.172  0.00  0.00    +0.000 NA
ATOM     65  H   UNL     1      -0.724   7.626 139.544  0.00  0.00    +0.000 HD
ATOM     66  H   UNL     1      -0.763   6.635 138.190  0.00  0.00    +0.000 HD
ENDBRANCH   6  64
BRANCH  14  67
ATOM     67  C   UNL     1      -4.116   5.865 133.102  0.00  0.00    +0.000 C 
BRANCH  67  68
ATOM     68  C   UNL     1      -2.962   6.310 132.726  0.00  0.00    +0.000 A 
ATOM     69  C   UNL     1      -2.046   5.447 132.337  0.00  0.00    +0.000 A 
ATOM     70  C   UNL     1      -0.798   5.957 132.433  0.00  0.00    +0.000 A 
ATOM     71  C   UNL     1      -0.550   7.286 132.579  0.00  0.00    +0.000 A 
ATOM     72  C   UNL     1      -1.590   8.082 132.915  0.00  0.00    +0.000 A 
ATOM     73  C   UNL     1      -2.829   7.604 132.953  0.00  0.00    +0.000 A 
ENDBRANCH  67  68
ENDBRANCH  14  67
BRANCH  10  74
ATOM     74  C   UNL     1      -6.115   6.748 136.559  0.00  0.00    +0.000 C 
BRANCH  74  75
ATOM     75  C   UNL     1      -6.918   7.520 137.293  0.00  0.00    +0.000 A 
ATOM     76  C   UNL     1      -6.716   8.860 137.382  0.00  0.00    +0.000 A 
ATOM     77  C   UNL     1      -7.734   9.673 137.703  0.00  0.00    +0.000 A 
ATOM     78  C   UNL     1      -8.955   9.102 137.960  0.00  0.00    +0.000 A 
ATOM     79  C   UNL     1      -9.110   7.732 137.920  0.00  0.00    +0.000 A 
ATOM     80  C   UNL     1      -8.073   6.928 137.588  0.00  0.00    +0.000 A 
BRANCH  78  81
ATOM     81  O   UNL     1     -10.063   9.814 138.279  0.00  0.00    +0.000 OA
ATOM     82  H   UNL     1      -9.914  10.674 138.698  0.00  0.00    +0.000 HD
ENDBRANCH  78  81
ENDBRANCH  74  75
ENDBRANCH  10  74
BRANCH  18  83
ATOM     83  C   UNL     1      -6.737   2.622 132.478  0.00  0.00    +0.000 C 
BRANCH  83  84
ATOM     84  C   UNL     1      -7.496   1.745 132.996  0.00  0.00    +0.000 C 
BRANCH  84  85
ATOM     85  C   UNL     1      -6.880   0.387 133.041  0.00  0.00    +0.000 C 
ATOM     86  N   UNL     1      -5.733   0.029 133.771  0.00  0.00    +0.000 N 
ATOM     87  O   UNL     1      -7.461  -0.453 132.371  0.00  0.00    +0.000 OA
ATOM     88  H   UNL     1      -5.173   0.632 134.374  0.00  0.00    +0.000 HD
ATOM     89  H   UNL     1      -5.304  -0.862 133.762  0.00  0.00    +0.000 HD
ENDBRANCH  84  85
ENDBRANCH  83  84
ENDBRANCH  18  83
BRANCH  22  90
ATOM     90  C   UNL     1      -8.893   4.936 129.424  0.00  0.00    +0.000 C 
BRANCH  90  91
ATOM     91  C   UNL     1      -9.710   6.009 129.927  0.00  0.00    +0.000 C 
ATOM     92  N   UNL     1     -10.840   5.743 130.691  0.00  0.00    +0.000 N 
ATOM     93  O   UNL     1      -9.368   7.155 129.688  0.00  0.00    +0.000 OA
ATOM     94  H   UNL     1     -11.134   4.802 130.950  0.00  0.00    +0.000 HD
ATOM     95  H   UNL     1     -11.354   6.498 131.102  0.00  0.00    +0.000 HD
ENDBRANCH  90  91
ENDBRANCH  22  90
TORSDOF 21
ENDMDL
MODEL 3
REMARK VINA RESULT:      -8.1      2.879      6.733
REMARK  Name = CHEMBL373742
REMARK  21 active torsions:
REMARK  status: ('A' for Active; 'I' for Inactive)
REMARK    1  A    between atoms: N_4  and  C_5
REMARK    2  A    between atoms: C_5  and  C_6
REMARK    3  A    between atoms: C_6  and  C_7
REMARK    4  A    between atoms: C_7  and  C_8
REMARK    5  A    between atoms: C_8  and  N_9
REMARK    6  A    between atoms: C_8  and  C_69
REMARK    7  A    between atoms: C_10  and  C_12
REMARK    8  A    between atoms: C_17  and  C_19
REMARK    9  A    between atoms: C_24  and  N_25
REMARK   10  A    between atoms: C_29  and  C_30
REMARK   11  A    between atoms: C_30  and  C_31
REMARK   12  A    between atoms: C_34  and  O_35
REMARK   13  A    between atoms: C_41  and  C_42
REMARK   14  A    between atoms: C_42  and  C_43
REMARK   15  A    between atoms: C_52  and  C_53
REMARK   16  A    between atoms: C_53  and  C_54
REMARK   17  A    between atoms: C_54  and  C_55
REMARK   18  A    between atoms: C_61  and  C_62
REMARK   19  A    between atoms: C_62  and  C_63
REMARK   20  A    between atoms: N_71  and  C_72
REMARK   21  A    between atoms: C_72  and  C_73
REMARK                            x       y       z     vdW  Elec       q    Type
REMARK                         _______ _______ _______ _____ _____    ______ ____
ROOT
ATOM      1  C   UNL     1      -5.467   4.917 133.313  0.00  0.00    +0.000 C 
ATOM      2  C   UNL     1      -4.696   5.338 136.067  0.00  0.00    +0.000 C 
ATOM      3  S   UNL     1      -4.030   6.056 138.987  0.00  0.00    +0.000 S 
ATOM      4  S   UNL     1      -2.118   7.167 141.189  0.00  0.00    +0.000 S 
ATOM      5  C   UNL     1      -2.438   5.804 140.973  0.00  0.00    +0.000 C 
ATOM      6  C   UNL     1      -2.012   6.359 139.367  0.00  0.00    +0.000 C 
ATOM      7  C   UNL     1      -3.040   7.997 138.953  0.00  0.00    +0.000 C 
ATOM      8  O   UNL     1      -3.030   8.853 139.835  0.00  0.00    +0.000 OA
ATOM      9  N   UNL     1      -4.283   7.868 138.028  0.00  0.00    +0.000 N 
ATOM     10  C   UNL     1      -5.027   6.770 137.263  0.00  0.00    +0.000 C 
ATOM     11  C   UNL     1      -3.097   6.131 136.533  0.00  0.00    +0.000 C 
ATOM     12  O   UNL     1      -2.172   5.677 137.210  0.00  0.00    +0.000 OA
ATOM     13  N   UNL     1      -3.288   5.757 135.205  0.00  0.00    +0.000 N 
ATOM     14  C   UNL     1      -4.563   6.037 134.557  0.00  0.00    +0.000 C 
ATOM     15  C   UNL     1      -5.875   4.602 135.226  0.00  0.00    +0.000 C 
ATOM     16  O   UNL     1      -6.195   4.429 136.460  0.00  0.00    +0.000 OA
ATOM     17  N   UNL     1      -6.407   3.868 134.407  0.00  0.00    +0.000 N 
ATOM     18  C   UNL     1      -6.259   3.631 133.042  0.00  0.00    +0.000 C 
ATOM     19  C   UNL     1      -6.732   5.742 132.272  0.00  0.00    +0.000 C 
ATOM     20  O   UNL     1      -6.177   6.827 132.614  0.00  0.00    +0.000 OA
ATOM     21  N   UNL     1      -7.500   5.687 131.116  0.00  0.00    +0.000 N 
ATOM     22  C   UNL     1      -8.089   4.479 130.311  0.00  0.00    +0.000 C 
ATOM     23  C   UNL     1      -7.052   2.865 130.218  0.00  0.00    +0.000 C 
ATOM     24  O   UNL     1      -5.608   2.496 130.572  0.00  0.00    +0.000 OA
ATOM     25  N   UNL     1      -5.734   3.967 131.262  0.00  0.00    +0.000 N 
ATOM     26  H   UNL     1      -4.953   8.470 138.071  0.00  0.00    +0.000 HD
ATOM     27  H   UNL     1      -2.563   5.450 134.734  0.00  0.00    +0.000 HD
ATOM     28  H   UNL     1      -7.084   3.311 134.676  0.00  0.00    +0.000 HD
ATOM     29  H   UNL     1      -7.515   6.472 130.614  0.00  0.00    +0.000 HD
ATOM     30  H   UNL     1      -5.930   3.206 129.921  0.00  0.00    +0.000 HD
ENDROOT
BRANCH   1  36
ATOM     31  C   UNL     1      -7.924   2.446 126.368  0.00  0.00    +0.000 C 
ATOM     32  C   UNL     1      -8.291   1.118 124.538  0.00  0.00    +0.000 C 
ATOM     33  C   UNL     1      -8.209   2.254 123.681  0.00  0.00    +0.000 C 
ATOM     34  C   UNL     1      -7.355   3.415 125.599  0.00  0.00    +0.000 C 
ATOM     35  N   UNL     1      -6.915   3.724 128.139  0.00  0.00    +0.000 N 
ATOM     36  C   UNL     1      -6.302   4.452 130.535  0.00  0.00    +0.000 C 
ATOM     37  O   UNL     1      -6.279   4.638 128.862  0.00  0.00    +0.000 OA
BRANCH  31  39
ATOM     38  N   UNL     1      -7.324   0.185 127.181  0.00  0.00    +0.000 N 
ATOM     39  C   UNL     1      -8.220   1.165 126.855  0.00  0.00    +0.000 C 
ATOM     40  O   UNL     1      -9.115   1.667 127.514  0.00  0.00    +0.000 OA
ATOM     41  H   UNL     1      -6.747  -0.343 126.540  0.00  0.00    +0.000 HD
BRANCH  38  42
ATOM     42  C   UNL     1      -7.149  -0.118 128.611  0.00  0.00    +0.000 C 
BRANCH  42  43
ATOM     43  C   UNL     1      -5.743  -0.694 128.937  0.00  0.00    +0.000 C 
ATOM     44  O   UNL     1      -5.037  -1.220 127.936  0.00  0.00    +0.000 OA
ATOM     45  N   UNL     1      -5.160  -0.323 130.154  0.00  0.00    +0.000 N 
ATOM     46  H   UNL     1      -5.538   0.260 130.831  0.00  0.00    +0.000 HD
BRANCH  45  47
ATOM     47  C   UNL     1      -3.835  -0.637 130.552  0.00  0.00    +0.000 C 
BRANCH  47  48
ATOM     48  C   UNL     1      -3.336  -1.998 130.634  0.00  0.00    +0.000 C 
ATOM     49  N   UNL     1      -2.618  -2.353 129.627  0.00  0.00    +0.000 N 
ATOM     50  O   UNL     1      -3.336  -2.646 131.632  0.00  0.00    +0.000 OA
ATOM     51  H   UNL     1      -2.524  -1.780 128.826  0.00  0.00    +0.000 HD
ATOM     52  H   UNL     1      -2.074  -3.189 129.695  0.00  0.00    +0.000 HD
ENDBRANCH  47  48
ENDBRANCH  45  47
ENDBRANCH  42  43
BRANCH  42  53
ATOM     53  C   UNL     1      -7.982  -1.219 129.112  0.00  0.00    +0.000 C 
BRANCH  53  54
ATOM     54  C   UNL     1      -7.759  -2.638 129.571  0.00  0.00    +0.000 C 
BRANCH  54  55
ATOM     55  C   UNL     1      -7.790  -3.566 128.354  0.00  0.00    +0.000 C 
BRANCH  55  59
ATOM     56  N   UNL     1      -9.927  -2.848 125.422  0.00  0.00    +0.000 NA
ATOM     57  C   UNL     1      -8.841  -3.043 126.111  0.00  0.00    +0.000 C 
ATOM     58  N   UNL     1      -7.575  -2.973 125.525  0.00  0.00    +0.000 N 
ATOM     59  N   UNL     1      -8.938  -3.334 127.496  0.00  0.00    +0.000 N 
ATOM     60  H   UNL     1      -9.827  -2.639 124.423  0.00  0.00    +0.000 HD
ATOM     61  H   UNL     1      -7.443  -2.766 124.530  0.00  0.00    +0.000 HD
ATOM     62  H   UNL     1      -6.714  -3.121 126.038  0.00  0.00    +0.000 HD
ATOM     63  H   UNL     1      -9.868  -3.390 127.948  0.00  0.00    +0.000 HD
ENDBRANCH  55  59
ENDBRANCH  54  55
ENDBRANCH  53  54
ENDBRANCH  42  53
ENDBRANCH  38  42
ENDBRANCH  31  39
ENDBRANCH   1  36
BRANCH   6  64
ATOM     64  N   UNL     1      -0.763   6.757 139.129  0.00  0.00    +0.000 NA
ATOM     65  H   UNL     1      -0.252   5.893 139.117  0.00  0.00    +0.000 HD
ATOM     66  H   UNL     1      -0.640   7.305 139.938  0.00  0.00    +0.000 HD
ENDBRANCH   6  64
BRANCH  14  67
ATOM     67  C   UNL     1      -4.128   5.884 133.057  0.00  0.00    +0.000 C 
BRANCH  67  68
ATOM     68  C   UNL     1      -2.970   6.320 132.683  0.00  0.00    +0.000 A 
ATOM     69  C   UNL     1      -2.062   5.450 132.292  0.00  0.00    +0.000 A 
ATOM     70  C   UNL     1      -0.809   5.946 132.390  0.00  0.00    +0.000 A 
ATOM     71  C   UNL     1      -0.548   7.272 132.542  0.00  0.00    +0.000 A 
ATOM     72  C   UNL     1      -1.581   8.077 132.879  0.00  0.00    +0.000 A 
ATOM     73  C   UNL     1      -2.824   7.611 132.916  0.00  0.00    +0.000 A 
ENDBRANCH  67  68
ENDBRANCH  14  67
BRANCH  10  74
ATOM     74  C   UNL     1      -6.137   6.781 136.506  0.00  0.00    +0.000 C 
BRANCH  74  75
ATOM     75  C   UNL     1      -6.957   7.520 137.254  0.00  0.00    +0.000 A 
ATOM     76  C   UNL     1      -6.781   8.861 137.375  0.00  0.00    +0.000 A 
ATOM     77  C   UNL     1      -7.815   9.648 137.711  0.00  0.00    +0.000 A 
ATOM     78  C   UNL     1      -9.026   9.048 137.948  0.00  0.00    +0.000 A 
ATOM     79  C   UNL     1      -9.155   7.676 137.876  0.00  0.00    +0.000 A 
ATOM     80  C   UNL     1      -8.102   6.900 137.529  0.00  0.00    +0.000 A 
BRANCH  78  81
ATOM     81  O   UNL     1     -10.149   9.732 138.279  0.00  0.00    +0.000 OA
ATOM     82  H   UNL     1     -10.957   9.208 138.372  0.00  0.00    +0.000 HD
ENDBRANCH  78  81
ENDBRANCH  74  75
ENDBRANCH  10  74
BRANCH  18  83
ATOM     83  C   UNL     1      -6.738   2.630 132.447  0.00  0.00    +0.000 C 
BRANCH  83  84
ATOM     84  C   UNL     1      -7.425   1.709 132.987  0.00  0.00    +0.000 C 
BRANCH  84  85
ATOM     85  C   UNL     1      -8.876   1.782 132.649  0.00  0.00    +0.000 C 
ATOM     86  N   UNL     1      -9.755   2.814 133.020  0.00  0.00    +0.000 N 
ATOM     87  O   UNL     1      -9.289   0.841 131.989  0.00  0.00    +0.000 OA
ATOM     88  H   UNL     1      -9.529   3.654 133.554  0.00  0.00    +0.000 HD
ATOM     89  H   UNL     1     -10.725   2.836 132.831  0.00  0.00    +0.000 HD
ENDBRANCH  84  85
ENDBRANCH  83  84
ENDBRANCH  18  83
BRANCH  22  90
ATOM     90  C   UNL     1      -8.896   4.921 129.376  0.00  0.00    +0.000 C 
BRANCH  90  91
ATOM     91  C   UNL     1     -10.073   5.517 129.953  0.00  0.00    +0.000 C 
ATOM     92  N   UNL     1     -10.660   6.635 129.375  0.00  0.00    +0.000 N 
ATOM     93  O   UNL     1     -10.553   4.997 130.946  0.00  0.00    +0.000 OA
ATOM     94  H   UNL     1     -10.316   7.071 128.520  0.00  0.00    +0.000 HD
ATOM     95  H   UNL     1     -11.522   6.991 129.739  0.00  0.00    +0.000 HD
ENDBRANCH  90  91
ENDBRANCH  22  90
TORSDOF 21
ENDMDL
MODEL 4
REMARK VINA RESULT:      -8.0      2.543      6.283
REMARK  Name = CHEMBL373742
REMARK  21 active torsions:
REMARK  status: ('A' for Active; 'I' for Inactive)
REMARK    1  A    between atoms: N_4  and  C_5
REMARK    2  A    between atoms: C_5  and  C_6
REMARK    3  A    between atoms: C_6  and  C_7
REMARK    4  A    between atoms: C_7  and  C_8
REMARK    5  A    between atoms: C_8  and  N_9
REMARK    6  A    between atoms: C_8  and  C_69
REMARK    7  A    between atoms: C_10  and  C_12
REMARK    8  A    between atoms: C_17  and  C_19
REMARK    9  A    between atoms: C_24  and  N_25
REMARK   10  A    between atoms: C_29  and  C_30
REMARK   11  A    between atoms: C_30  and  C_31
REMARK   12  A    between atoms: C_34  and  O_35
REMARK   13  A    between atoms: C_41  and  C_42
REMARK   14  A    between atoms: C_42  and  C_43
REMARK   15  A    between atoms: C_52  and  C_53
REMARK   16  A    between atoms: C_53  and  C_54
REMARK   17  A    between atoms: C_54  and  C_55
REMARK   18  A    between atoms: C_61  and  C_62
REMARK   19  A    between atoms: C_62  and  C_63
REMARK   20  A    between atoms: N_71  and  C_72
REMARK   21  A    between atoms: C_72  and  C_73
REMARK                            x       y       z     vdW  Elec       q    Type
REMARK                         _______ _______ _______ _____ _____    ______ ____
ROOT
ATOM      1  C   UNL     1      -5.527   5.022 133.346  0.00  0.00    +0.000 C 
ATOM      2  C   UNL     1      -4.596   5.362 136.061  0.00  0.00    +0.000 C 
ATOM      3  S   UNL     1      -3.813   5.955 138.980  0.00  0.00    +0.000 S 
ATOM      4  S   UNL     1      -1.969   7.261 141.133  0.00  0.00    +0.000 S 
ATOM      5  C   UNL     1      -2.017   5.886 140.801  0.00  0.00    +0.000 C 
ATOM      6  C   UNL     1      -1.875   6.655 139.234  0.00  0.00    +0.000 C 
ATOM      7  C   UNL     1      -3.257   8.061 139.073  0.00  0.00    +0.000 C 
ATOM      8  O   UNL     1      -3.340   8.819 140.036  0.00  0.00    +0.000 OA
ATOM      9  N   UNL     1      -4.531   7.745 138.238  0.00  0.00    +0.000 N 
ATOM     10  C   UNL     1      -5.100   6.580 137.423  0.00  0.00    +0.000 C 
ATOM     11  C   UNL     1      -3.160   6.440 136.483  0.00  0.00    +0.000 C 
ATOM     12  O   UNL     1      -2.099   6.142 137.036  0.00  0.00    +0.000 OA
ATOM     13  N   UNL     1      -3.398   6.150 135.142  0.00  0.00    +0.000 N 
ATOM     14  C   UNL     1      -4.760   6.201 134.628  0.00  0.00    +0.000 C 
ATOM     15  C   UNL     1      -5.672   4.463 135.242  0.00  0.00    +0.000 C 
ATOM     16  O   UNL     1      -5.827   4.119 136.471  0.00  0.00    +0.000 OA
ATOM     17  N   UNL     1      -6.116   3.704 134.393  0.00  0.00    +0.000 N 
ATOM     18  C   UNL     1      -6.056   3.623 133.004  0.00  0.00    +0.000 C 
ATOM     19  C   UNL     1      -7.032   5.639 132.498  0.00  0.00    +0.000 C 
ATOM     20  O   UNL     1      -6.685   6.784 132.907  0.00  0.00    +0.000 OA
ATOM     21  N   UNL     1      -7.881   5.517 131.405  0.00  0.00    +0.000 N 
ATOM     22  C   UNL     1      -8.280   4.284 130.526  0.00  0.00    +0.000 C 
ATOM     23  C   UNL     1      -6.944   2.948 130.185  0.00  0.00    +0.000 C 
ATOM     24  O   UNL     1      -5.427   2.872 130.386  0.00  0.00    +0.000 OA
ATOM     25  N   UNL     1      -5.789   4.216 131.234  0.00  0.00    +0.000 N 
ATOM     26  H   UNL     1      -5.303   8.180 138.396  0.00  0.00    +0.000 HD
ATOM     27  H   UNL     1      -2.674   6.049 134.587  0.00  0.00    +0.000 HD
ATOM     28  H   UNL     1      -6.633   2.992 134.655  0.00  0.00    +0.000 HD
ATOM     29  H   UNL     1      -8.108   6.320 130.990  0.00  0.00    +0.000 HD
ATOM     30  H   UNL     1      -5.952   3.547 129.840  0.00  0.00    +0.000 HD
ENDROOT
BRANCH   1  36
ATOM     31  C   UNL     1      -8.121   2.682 126.405  0.00  0.00    +0.000 C 
ATOM     32  C   UNL     1      -8.408   1.456 124.492  0.00  0.00    +0.000 C 
ATOM     33  C   UNL     1      -8.610   2.650 123.741  0.00  0.00    +0.000 C 
ATOM     34  C   UNL     1      -7.807   3.798 125.689  0.00  0.00    +0.000 C 
ATOM     35  N   UNL     1      -7.202   3.985 128.206  0.00  0.00    +0.000 N 
ATOM     36  C   UNL     1      -6.514   4.626 130.607  0.00  0.00    +0.000 C 
ATOM     37  O   UNL     1      -6.677   4.942 128.961  0.00  0.00    +0.000 OA
BRANCH  31  39
ATOM     38  N   UNL     1      -7.069   0.482 126.834  0.00  0.00    +0.000 N 
ATOM     39  C   UNL     1      -8.136   1.335 126.792  0.00  0.00    +0.000 C 
ATOM     40  O   UNL     1      -8.942   1.635 127.657  0.00  0.00    +0.000 OA
ATOM     41  H   UNL     1      -6.565   0.106 126.042  0.00  0.00    +0.000 HD
BRANCH  38  42
ATOM     42  C   UNL     1      -6.573   0.091 128.164  0.00  0.00    +0.000 C 
BRANCH  42  43
ATOM     43  C   UNL     1      -5.198   0.730 128.506  0.00  0.00    +0.000 C 
ATOM     44  O   UNL     1      -4.458   0.152 129.452  0.00  0.00    +0.000 OA
ATOM     45  N   UNL     1      -4.665   1.642 127.586  0.00  0.00    +0.000 N 
ATOM     46  H   UNL     1      -5.060   1.926 126.748  0.00  0.00    +0.000 HD
BRANCH  45  47
ATOM     47  C   UNL     1      -3.368   2.212 127.664  0.00  0.00    +0.000 C 
BRANCH  47  48
ATOM     48  C   UNL     1      -3.122   3.636 127.533  0.00  0.00    +0.000 C 
ATOM     49  N   UNL     1      -3.595   4.340 128.499  0.00  0.00    +0.000 N 
ATOM     50  O   UNL     1      -2.334   4.107 126.774  0.00  0.00    +0.000 OA
ATOM     51  H   UNL     1      -4.172   3.944 129.199  0.00  0.00    +0.000 HD
ATOM     52  H   UNL     1      -3.300   5.290 128.593  0.00  0.00    +0.000 HD
ENDBRANCH  47  48
ENDBRANCH  45  47
ENDBRANCH  42  43
BRANCH  42  53
ATOM     53  C   UNL     1      -6.217  -1.328 128.294  0.00  0.00    +0.000 C 
BRANCH  53  54
ATOM     54  C   UNL     1      -6.639  -2.486 129.164  0.00  0.00    +0.000 C 
BRANCH  54  55
ATOM     55  C   UNL     1      -5.400  -3.303 129.540  0.00  0.00    +0.000 C 
BRANCH  55  59
ATOM     56  N   UNL     1      -2.930  -1.999 131.963  0.00  0.00    +0.000 NA
ATOM     57  C   UNL     1      -3.415  -2.401 130.825  0.00  0.00    +0.000 C 
ATOM     58  N   UNL     1      -2.642  -2.420 129.661  0.00  0.00    +0.000 N 
ATOM     59  N   UNL     1      -4.764  -2.835 130.758  0.00  0.00    +0.000 N 
ATOM     60  H   UNL     1      -1.952  -1.691 131.983  0.00  0.00    +0.000 HD
ATOM     61  H   UNL     1      -1.664  -2.118 129.650  0.00  0.00    +0.000 HD
ATOM     62  H   UNL     1      -2.995  -2.728 128.763  0.00  0.00    +0.000 HD
ATOM     63  H   UNL     1      -5.352  -2.828 131.610  0.00  0.00    +0.000 HD
ENDBRANCH  55  59
ENDBRANCH  54  55
ENDBRANCH  53  54
ENDBRANCH  42  53
ENDBRANCH  38  42
ENDBRANCH  31  39
ENDBRANCH   1  36
BRANCH   6  64
ATOM     64  N   UNL     1      -0.766   7.333 138.943  0.00  0.00    +0.000 NA
ATOM     65  H   UNL     1      -1.109   8.089 138.377  0.00  0.00    +0.000 HD
ATOM     66  H   UNL     1      -0.298   6.621 138.450  0.00  0.00    +0.000 HD
ENDBRANCH   6  64
BRANCH  14  67
ATOM     67  C   UNL     1      -4.451   6.275 133.091  0.00  0.00    +0.000 C 
BRANCH  67  68
ATOM     68  C   UNL     1      -3.230   6.419 132.693  0.00  0.00    +0.000 A 
ATOM     69  C   UNL     1      -2.516   5.343 132.435  0.00  0.00    +0.000 A 
ATOM     70  C   UNL     1      -1.188   5.588 132.501  0.00  0.00    +0.000 A 
ATOM     71  C   UNL     1      -0.666   6.843 132.493  0.00  0.00    +0.000 A 
ATOM     72  C   UNL     1      -1.515   7.874 132.703  0.00  0.00    +0.000 A 
ATOM     73  C   UNL     1      -2.826   7.674 132.767  0.00  0.00    +0.000 A 
ENDBRANCH  67  68
ENDBRANCH  14  67
BRANCH  10  74
ATOM     74  C   UNL     1      -6.256   6.415 136.759  0.00  0.00    +0.000 C 
BRANCH  74  75
ATOM     75  C   UNL     1      -7.042   7.299 137.376  0.00  0.00    +0.000 A 
ATOM     76  C   UNL     1      -6.805   8.633 137.287  0.00  0.00    +0.000 A 
ATOM     77  C   UNL     1      -7.802   9.507 137.488  0.00  0.00    +0.000 A 
ATOM     78  C   UNL     1      -9.039   9.008 137.808  0.00  0.00    +0.000 A 
ATOM     79  C   UNL     1      -9.230   7.648 137.951  0.00  0.00    +0.000 A 
ATOM     80  C   UNL     1      -8.213   6.781 137.737  0.00  0.00    +0.000 A 
BRANCH  78  81
ATOM     81  O   UNL     1     -10.129   9.784 138.021  0.00  0.00    +0.000 OA
ATOM     82  H   UNL     1     -10.491  10.236 137.245  0.00  0.00    +0.000 HD
ENDBRANCH  78  81
ENDBRANCH  74  75
ENDBRANCH  10  74
BRANCH  18  83
ATOM     83  C   UNL     1      -6.372   2.596 132.346  0.00  0.00    +0.000 C 
BRANCH  83  84
ATOM     84  C   UNL     1      -6.616   1.450 132.837  0.00  0.00    +0.000 C 
BRANCH  84  85
ATOM     85  C   UNL     1      -5.500   0.479 132.645  0.00  0.00    +0.000 C 
ATOM     86  N   UNL     1      -4.153   0.809 132.419  0.00  0.00    +0.000 N 
ATOM     87  O   UNL     1      -5.837  -0.694 132.700  0.00  0.00    +0.000 OA
ATOM     88  H   UNL     1      -3.748   1.745 132.368  0.00  0.00    +0.000 HD
ATOM     89  H   UNL     1      -3.426   0.162 132.249  0.00  0.00    +0.000 HD
ENDBRANCH  84  85
ENDBRANCH  83  84
ENDBRANCH  18  83
BRANCH  22  90
ATOM     90  C   UNL     1      -9.250   4.619 129.707  0.00  0.00    +0.000 C 
BRANCH  90  91
ATOM     91  C   UNL     1     -10.516   4.635 130.391  0.00  0.00    +0.000 C 
ATOM     92  N   UNL     1     -11.188   3.451 130.671  0.00  0.00    +0.000 N 
ATOM     93  O   UNL     1     -10.969   5.712 130.739  0.00  0.00    +0.000 OA
ATOM     94  H   UNL     1     -10.822   2.529 130.436  0.00  0.00    +0.000 HD
ATOM     95  H   UNL     1     -12.027   3.470 131.216  0.00  0.00    +0.000 HD
ENDBRANCH  90  91
ENDBRANCH  22  90
TORSDOF 21
ENDMDL
MODEL 5
REMARK VINA RESULT:      -7.9      4.626      9.179
REMARK  Name = CHEMBL373742
REMARK  21 active torsions:
REMARK  status: ('A' for Active; 'I' for Inactive)
REMARK    1  A    between atoms: N_4  and  C_5
REMARK    2  A    between atoms: C_5  and  C_6
REMARK    3  A    between atoms: C_6  and  C_7
REMARK    4  A    between atoms: C_7  and  C_8
REMARK    5  A    between atoms: C_8  and  N_9
REMARK    6  A    between atoms: C_8  and  C_69
REMARK    7  A    between atoms: C_10  and  C_12
REMARK    8  A    between atoms: C_17  and  C_19
REMARK    9  A    between atoms: C_24  and  N_25
REMARK   10  A    between atoms: C_29  and  C_30
REMARK   11  A    between atoms: C_30  and  C_31
REMARK   12  A    between atoms: C_34  and  O_35
REMARK   13  A    between atoms: C_41  and  C_42
REMARK   14  A    between atoms: C_42  and  C_43
REMARK   15  A    between atoms: C_52  and  C_53
REMARK   16  A    between atoms: C_53  and  C_54
REMARK   17  A    between atoms: C_54  and  C_55
REMARK   18  A    between atoms: C_61  and  C_62
REMARK   19  A    between atoms: C_62  and  C_63
REMARK   20  A    between atoms: N_71  and  C_72
REMARK   21  A    between atoms: C_72  and  C_73
REMARK                            x       y       z     vdW  Elec       q    Type
REMARK                         _______ _______ _______ _____ _____    ______ ____
ROOT
ATOM      1  C   UNL     1      -5.882   1.508 134.270  0.00  0.00    +0.000 C 
ATOM      2  C   UNL     1      -7.673   2.934 132.506  0.00  0.00    +0.000 C 
ATOM      3  S   UNL     1      -9.327   4.576 130.493  0.00  0.00    +0.000 S 
ATOM      4  S   UNL     1     -11.042   7.062 129.706  0.00  0.00    +0.000 S 
ATOM      5  C   UNL     1     -11.531   5.756 129.947  0.00  0.00    +0.000 C 
ATOM      6  C   UNL     1     -10.515   6.050 131.344  0.00  0.00    +0.000 C 
ATOM      7  C   UNL     1      -8.735   6.660 130.734  0.00  0.00    +0.000 C 
ATOM      8  O   UNL     1      -8.753   7.551 129.889  0.00  0.00    +0.000 OA
ATOM      9  N   UNL     1      -7.568   5.632 130.737  0.00  0.00    +0.000 N 
ATOM     10  C   UNL     1      -7.344   4.162 131.100  0.00  0.00    +0.000 C 
ATOM     11  C   UNL     1      -8.388   4.578 132.945  0.00  0.00    +0.000 C 
ATOM     12  O   UNL     1      -9.570   4.906 133.059  0.00  0.00    +0.000 OA
ATOM     13  N   UNL     1      -7.726   3.857 133.937  0.00  0.00    +0.000 N 
ATOM     14  C   UNL     1      -6.464   3.201 133.625  0.00  0.00    +0.000 C 
ATOM     15  C   UNL     1      -6.946   1.485 132.599  0.00  0.00    +0.000 C 
ATOM     16  O   UNL     1      -7.582   1.462 131.481  0.00  0.00    +0.000 OA
ATOM     17  N   UNL     1      -6.597   0.409 133.061  0.00  0.00    +0.000 N 
ATOM     18  C   UNL     1      -6.027  -0.020 134.257  0.00  0.00    +0.000 C 
ATOM     19  C   UNL     1      -4.079   1.192 134.165  0.00  0.00    +0.000 C 
ATOM     20  O   UNL     1      -3.958   2.443 134.020  0.00  0.00    +0.000 OA
ATOM     21  N   UNL     1      -3.004   0.436 134.616  0.00  0.00    +0.000 N 
ATOM     22  C   UNL     1      -2.908  -1.042 135.124  0.00  0.00    +0.000 C 
ATOM     23  C   UNL     1      -4.384  -1.748 136.129  0.00  0.00    +0.000 C 
ATOM     24  O   UNL     1      -5.624  -1.136 136.788  0.00  0.00    +0.000 OA
ATOM     25  N   UNL     1      -5.095   0.117 135.890  0.00  0.00    +0.000 N 
ATOM     26  H   UNL     1      -6.863   5.737 130.186  0.00  0.00    +0.000 HD
ATOM     27  H   UNL     1      -8.043   3.914 134.796  0.00  0.00    +0.000 HD
ATOM     28  H   UNL     1      -6.695  -0.350 132.554  0.00  0.00    +0.000 HD
ATOM     29  H   UNL     1      -2.245   0.927 134.846  0.00  0.00    +0.000 HD
ATOM     30  H   UNL     1      -4.649  -0.915 136.964  0.00  0.00    +0.000 HD
ENDROOT
BRANCH   1  36
ATOM     31  C   UNL     1      -1.952  -3.464 138.766  0.00  0.00    +0.000 C 
ATOM     32  C   UNL     1      -1.474  -5.108 140.288  0.00  0.00    +0.000 C 
ATOM     33  C   UNL     1      -0.308  -4.401 140.704  0.00  0.00    +0.000 C 
ATOM     34  C   UNL     1      -1.193  -2.560 139.446  0.00  0.00    +0.000 C 
ATOM     35  N   UNL     1      -2.756  -1.473 137.681  0.00  0.00    +0.000 N 
ATOM     36  C   UNL     1      -4.067   0.003 136.023  0.00  0.00    +0.000 C 
ATOM     37  O   UNL     1      -2.961  -0.227 137.272  0.00  0.00    +0.000 OA
BRANCH  31  39
ATOM     38  N   UNL     1      -4.144  -4.584 139.041  0.00  0.00    +0.000 N 
ATOM     39  C   UNL     1      -2.873  -4.497 138.543  0.00  0.00    +0.000 C 
ATOM     40  O   UNL     1      -2.471  -4.552 137.393  0.00  0.00    +0.000 OA
ATOM     41  H   UNL     1      -4.404  -4.747 140.005  0.00  0.00    +0.000 HD
BRANCH  38  42
ATOM     42  C   UNL     1      -5.253  -4.389 138.093  0.00  0.00    +0.000 C 
BRANCH  42  43
ATOM     43  C   UNL     1      -6.522  -3.796 138.766  0.00  0.00    +0.000 C 
ATOM     44  O   UNL     1      -6.421  -2.599 139.343  0.00  0.00    +0.000 OA
ATOM     45  N   UNL     1      -7.756  -4.369 138.433  0.00  0.00    +0.000 N 
ATOM     46  H   UNL     1      -7.914  -5.105 137.822  0.00  0.00    +0.000 HD
BRANCH  45  47
ATOM     47  C   UNL     1      -9.021  -3.870 138.839  0.00  0.00    +0.000 C 
BRANCH  47  48
ATOM     48  C   UNL     1      -9.705  -2.794 138.145  0.00  0.00    +0.000 C 
ATOM     49  N   UNL     1     -10.584  -3.196 137.296  0.00  0.00    +0.000 N 
ATOM     50  O   UNL     1      -9.682  -1.657 138.496  0.00  0.00    +0.000 OA
ATOM     51  H   UNL     1     -10.687  -4.152 137.065  0.00  0.00    +0.000 HD
ATOM     52  H   UNL     1     -11.236  -2.533 136.928  0.00  0.00    +0.000 HD
ENDBRANCH  47  48
ENDBRANCH  45  47
ENDBRANCH  42  43
BRANCH  42  53
ATOM     53  C   UNL     1      -5.824  -5.630 137.553  0.00  0.00    +0.000 C 
BRANCH  53  54
ATOM     54  C   UNL     1      -5.670  -6.448 136.296  0.00  0.00    +0.000 C 
BRANCH  54  55
ATOM     55  C   UNL     1      -5.174  -5.539 135.168  0.00  0.00    +0.000 C 
BRANCH  55  59
ATOM     56  N   UNL     1      -1.751  -5.045 133.858  0.00  0.00    +0.000 NA
ATOM     57  C   UNL     1      -3.044  -4.930 133.942  0.00  0.00    +0.000 C 
ATOM     58  N   UNL     1      -3.777  -4.166 133.032  0.00  0.00    +0.000 N 
ATOM     59  N   UNL     1      -3.735  -5.600 134.986  0.00  0.00    +0.000 N 
ATOM     60  H   UNL     1      -1.277  -4.551 133.094  0.00  0.00    +0.000 HD
ATOM     61  H   UNL     1      -3.332  -3.661 132.259  0.00  0.00    +0.000 HD
ATOM     62  H   UNL     1      -4.783  -4.060 133.075  0.00  0.00    +0.000 HD
ATOM     63  H   UNL     1      -3.209  -6.171 135.670  0.00  0.00    +0.000 HD
ENDBRANCH  55  59
ENDBRANCH  54  55
ENDBRANCH  53  54
ENDBRANCH  42  53
ENDBRANCH  38  42
ENDBRANCH  31  39
ENDBRANCH   1  36
BRANCH   6  64
ATOM     64  N   UNL     1     -10.853   7.015 132.198  0.00  0.00    +0.000 NA
ATOM     65  H   UNL     1      -9.999   7.536 132.295  0.00  0.00    +0.000 HD
ATOM     66  H   UNL     1     -11.082   6.442 132.965  0.00  0.00    +0.000 HD
ENDBRANCH   6  64
BRANCH  14  67
ATOM     67  C   UNL     1      -5.928   2.968 135.081  0.00  0.00    +0.000 C 
BRANCH  67  68
ATOM     68  C   UNL     1      -5.625   3.986 135.818  0.00  0.00    +0.000 A 
ATOM     69  C   UNL     1      -5.555   5.176 135.256  0.00  0.00    +0.000 A 
ATOM     70  C   UNL     1      -4.795   6.031 135.976  0.00  0.00    +0.000 A 
ATOM     71  C   UNL     1      -4.441   5.799 137.268  0.00  0.00    +0.000 A 
ATOM     72  C   UNL     1      -4.625   4.550 137.752  0.00  0.00    +0.000 A 
ATOM     73  C   UNL     1      -5.263   3.630 137.037  0.00  0.00    +0.000 A 
ENDBRANCH  67  68
ENDBRANCH  14  67
BRANCH  10  74
ATOM     74  C   UNL     1      -6.268   3.360 131.024  0.00  0.00    +0.000 C 
BRANCH  74  75
ATOM     75  C   UNL     1      -5.427   4.117 130.317  0.00  0.00    +0.000 A 
ATOM     76  C   UNL     1      -4.379   4.744 130.909  0.00  0.00    +0.000 A 
ATOM     77  C   UNL     1      -3.307   5.095 130.182  0.00  0.00    +0.000 A 
ATOM     78  C   UNL     1      -3.328   4.823 128.838  0.00  0.00    +0.000 A 
ATOM     79  C   UNL     1      -4.435   4.239 128.257  0.00  0.00    +0.000 A 
ATOM     80  C   UNL     1      -5.505   3.886 129.009  0.00  0.00    +0.000 A 
BRANCH  78  81
ATOM     81  O   UNL     1      -2.303   5.113 127.998  0.00  0.00    +0.000 OA
ATOM     82  H   UNL     1      -1.646   5.743 128.327  0.00  0.00    +0.000 HD
ENDBRANCH  78  81
ENDBRANCH  74  75
ENDBRANCH  10  74
BRANCH  18  83
ATOM     83  C   UNL     1      -5.994  -1.223 134.627  0.00  0.00    +0.000 C 
BRANCH  83  84
ATOM     84  C   UNL     1      -6.488  -2.205 133.991  0.00  0.00    +0.000 C 
BRANCH  84  85
ATOM     85  C   UNL     1      -7.674  -2.807 134.667  0.00  0.00    +0.000 C 
ATOM     86  N   UNL     1      -8.633  -3.635 134.060  0.00  0.00    +0.000 N 
ATOM     87  O   UNL     1      -7.775  -2.528 135.852  0.00  0.00    +0.000 OA
ATOM     88  H   UNL     1      -8.650  -3.949 133.089  0.00  0.00    +0.000 HD
ATOM     89  H   UNL     1      -9.441  -3.995 134.501  0.00  0.00    +0.000 HD
ENDBRANCH  84  85
ENDBRANCH  83  84
ENDBRANCH  18  83
BRANCH  22  90
ATOM     90  C   UNL     1      -1.648  -1.375 135.284  0.00  0.00    +0.000 C 
BRANCH  90  91
ATOM     91  C   UNL     1      -1.030  -1.665 134.017  0.00  0.00    +0.000 C 
ATOM     92  N   UNL     1       0.349  -1.799 133.913  0.00  0.00    +0.000 N 
ATOM     93  O   UNL     1      -1.751  -1.815 133.045  0.00  0.00    +0.000 OA
ATOM     94  H   UNL     1       0.981  -1.726 134.710  0.00  0.00    +0.000 HD
ATOM     95  H   UNL     1       0.760  -2.079 133.045  0.00  0.00    +0.000 HD
ENDBRANCH  90  91
ENDBRANCH  22  90
TORSDOF 21
ENDMDL
MODEL 6
REMARK VINA RESULT:      -7.9      5.226     11.245
REMARK  Name = CHEMBL373742
REMARK  21 active torsions:
REMARK  status: ('A' for Active; 'I' for Inactive)
REMARK    1  A    between atoms: N_4  and  C_5
REMARK    2  A    between atoms: C_5  and  C_6
REMARK    3  A    between atoms: C_6  and  C_7
REMARK    4  A    between atoms: C_7  and  C_8
REMARK    5  A    between atoms: C_8  and  N_9
REMARK    6  A    between atoms: C_8  and  C_69
REMARK    7  A    between atoms: C_10  and  C_12
REMARK    8  A    between atoms: C_17  and  C_19
REMARK    9  A    between atoms: C_24  and  N_25
REMARK   10  A    between atoms: C_29  and  C_30
REMARK   11  A    between atoms: C_30  and  C_31
REMARK   12  A    between atoms: C_34  and  O_35
REMARK   13  A    between atoms: C_41  and  C_42
REMARK   14  A    between atoms: C_42  and  C_43
REMARK   15  A    between atoms: C_52  and  C_53
REMARK   16  A    between atoms: C_53  and  C_54
REMARK   17  A    between atoms: C_54  and  C_55
REMARK   18  A    between atoms: C_61  and  C_62
REMARK   19  A    between atoms: C_62  and  C_63
REMARK   20  A    between atoms: N_71  and  C_72
REMARK   21  A    between atoms: C_72  and  C_73
REMARK                            x       y       z     vdW  Elec       q    Type
REMARK                         _______ _______ _______ _____ _____    ______ ____
ROOT
ATOM      1  C   UNL     1      -5.840   0.348 131.062  0.00  0.00    +0.000 C 
ATOM      2  C   UNL     1      -6.218  -0.910 128.487  0.00  0.00    +0.000 C 
ATOM      3  S   UNL     1      -6.567  -1.971 125.617  0.00  0.00    +0.000 S 
ATOM      4  S   UNL     1      -8.325  -2.832 123.187  0.00  0.00    +0.000 S 
ATOM      5  C   UNL     1      -7.624  -3.702 124.057  0.00  0.00    +0.000 C 
ATOM      6  C   UNL     1      -8.477  -2.649 125.169  0.00  0.00    +0.000 C 
ATOM      7  C   UNL     1      -8.122  -0.766 124.679  0.00  0.00    +0.000 C 
ATOM      8  O   UNL     1      -8.256  -0.505 123.486  0.00  0.00    +0.000 OA
ATOM      9  N   UNL     1      -7.083   0.027 125.522  0.00  0.00    +0.000 N 
ATOM     10  C   UNL     1      -6.167  -0.215 126.725  0.00  0.00    +0.000 C 
ATOM     11  C   UNL     1      -7.882  -1.084 127.710  0.00  0.00    +0.000 C 
ATOM     12  O   UNL     1      -8.479  -2.108 127.371  0.00  0.00    +0.000 OA
ATOM     13  N   UNL     1      -7.812  -0.680 129.041  0.00  0.00    +0.000 N 
ATOM     14  C   UNL     1      -6.829   0.319 129.436  0.00  0.00    +0.000 C 
ATOM     15  C   UNL     1      -5.028  -0.666 129.565  0.00  0.00    +0.000 C 
ATOM     16  O   UNL     1      -4.462  -1.275 128.584  0.00  0.00    +0.000 OA
ATOM     17  N   UNL     1      -4.437  -0.668 130.635  0.00  0.00    +0.000 N 
ATOM     18  C   UNL     1      -4.734  -0.261 131.934  0.00  0.00    +0.000 C 
ATOM     19  C   UNL     1      -5.109   1.966 131.521  0.00  0.00    +0.000 C 
ATOM     20  O   UNL     1      -5.917   2.467 130.686  0.00  0.00    +0.000 OA
ATOM     21  N   UNL     1      -4.576   2.754 132.533  0.00  0.00    +0.000 N 
ATOM     22  C   UNL     1      -3.776   2.387 133.829  0.00  0.00    +0.000 C 
ATOM     23  C   UNL     1      -4.235   0.762 134.743  0.00  0.00    +0.000 C 
ATOM     24  O   UNL     1      -5.398  -0.230 134.649  0.00  0.00    +0.000 OA
ATOM     25  N   UNL     1      -5.638   0.663 133.306  0.00  0.00    +0.000 N 
ATOM     26  H   UNL     1      -6.647   0.732 125.169  0.00  0.00    +0.000 HD
ATOM     27  H   UNL     1      -8.469  -0.966 129.614  0.00  0.00    +0.000 HD
ATOM     28  H   UNL     1      -3.581  -0.994 130.674  0.00  0.00    +0.000 HD
ATOM     29  H   UNL     1      -4.902   3.626 132.568  0.00  0.00    +0.000 HD
ATOM     30  H   UNL     1      -5.439   0.765 134.845  0.00  0.00    +0.000 HD
ENDROOT
BRANCH   1  36
ATOM     31  C   UNL     1      -4.278   2.460 138.374  0.00  0.00    +0.000 C 
ATOM     32  C   UNL     1      -4.105   2.424 140.658  0.00  0.00    +0.000 C 
ATOM     33  C   UNL     1      -4.375   3.823 140.714  0.00  0.00    +0.000 C 
ATOM     34  C   UNL     1      -5.008   3.610 138.409  0.00  0.00    +0.000 C 
ATOM     35  N   UNL     1      -5.091   2.407 136.111  0.00  0.00    +0.000 N 
ATOM     36  C   UNL     1      -5.391   1.605 133.679  0.00  0.00    +0.000 C 
ATOM     37  O   UNL     1      -5.667   2.679 134.946  0.00  0.00    +0.000 OA
BRANCH  31  39
ATOM     38  N   UNL     1      -4.622   0.069 138.918  0.00  0.00    +0.000 N 
ATOM     39  C   UNL     1      -3.842   1.175 138.723  0.00  0.00    +0.000 C 
ATOM     40  O   UNL     1      -2.884   1.345 137.987  0.00  0.00    +0.000 OA
ATOM     41  H   UNL     1      -5.262  -0.090 139.685  0.00  0.00    +0.000 HD
BRANCH  38  42
ATOM     42  C   UNL     1      -4.558  -0.989 137.896  0.00  0.00    +0.000 C 
BRANCH  42  43
ATOM     43  C   UNL     1      -5.895  -1.767 137.751  0.00  0.00    +0.000 C 
ATOM     44  O   UNL     1      -6.852  -1.537 138.649  0.00  0.00    +0.000 OA
ATOM     45  N   UNL     1      -6.151  -2.385 136.521  0.00  0.00    +0.000 N 
ATOM     46  H   UNL     1      -5.582  -2.384 135.735  0.00  0.00    +0.000 HD
BRANCH  45  47
ATOM     47  C   UNL     1      -7.372  -3.014 136.164  0.00  0.00    +0.000 C 
BRANCH  47  48
ATOM     48  C   UNL     1      -7.917  -2.976 134.820  0.00  0.00    +0.000 C 
ATOM     49  N   UNL     1      -8.883  -3.802 134.623  0.00  0.00    +0.000 N 
ATOM     50  O   UNL     1      -7.707  -2.098 134.043  0.00  0.00    +0.000 OA
ATOM     51  H   UNL     1      -9.139  -4.475 135.302  0.00  0.00    +0.000 HD
ATOM     52  H   UNL     1      -9.444  -3.701 133.802  0.00  0.00    +0.000 HD
ENDBRANCH  47  48
ENDBRANCH  45  47
ENDBRANCH  42  43
BRANCH  42  53
ATOM     53  C   UNL     1      -3.663  -2.106 138.225  0.00  0.00    +0.000 C 
BRANCH  53  54
ATOM     54  C   UNL     1      -2.760  -3.044 137.464  0.00  0.00    +0.000 C 
BRANCH  54  55
ATOM     55  C   UNL     1      -1.893  -2.228 136.500  0.00  0.00    +0.000 C 
BRANCH  55  59
ATOM     56  N   UNL     1       0.847  -3.337 134.278  0.00  0.00    +0.000 NA
ATOM     57  C   UNL     1       0.065  -2.521 134.923  0.00  0.00    +0.000 C 
ATOM     58  N   UNL     1       0.210  -1.135 134.832  0.00  0.00    +0.000 N 
ATOM     59  N   UNL     1      -0.967  -3.049 135.742  0.00  0.00    +0.000 N 
ATOM     60  H   UNL     1       1.584  -2.928 133.694  0.00  0.00    +0.000 HD
ATOM     61  H   UNL     1       0.936  -0.698 134.257  0.00  0.00    +0.000 HD
ATOM     62  H   UNL     1      -0.386  -0.479 135.324  0.00  0.00    +0.000 HD
ATOM     63  H   UNL     1      -1.090  -4.074 135.821  0.00  0.00    +0.000 HD
ENDBRANCH  55  59
ENDBRANCH  54  55
ENDBRANCH  53  54
ENDBRANCH  42  53
ENDBRANCH  38  42
ENDBRANCH  31  39
ENDBRANCH   1  36
BRANCH   6  64
ATOM     64  N   UNL     1      -9.808  -2.674 125.193  0.00  0.00    +0.000 NA
ATOM     65  H   UNL     1     -10.039  -1.833 125.691  0.00  0.00    +0.000 HD
ATOM     66  H   UNL     1      -9.918  -3.508 125.706  0.00  0.00    +0.000 HD
ENDBRANCH   6  64
BRANCH  14  67
ATOM     67  C   UNL     1      -7.442   0.753 130.814  0.00  0.00    +0.000 C 
BRANCH  67  68
ATOM     68  C   UNL     1      -8.564   1.393 130.837  0.00  0.00    +0.000 A 
ATOM     69  C   UNL     1      -8.870   2.173 129.821  0.00  0.00    +0.000 A 
ATOM     70  C   UNL     1      -9.779   3.114 130.160  0.00  0.00    +0.000 A 
ATOM     71  C   UNL     1     -10.528   3.045 131.293  0.00  0.00    +0.000 A 
ATOM     72  C   UNL     1     -10.152   2.154 132.238  0.00  0.00    +0.000 A 
ATOM     73  C   UNL     1      -9.179   1.281 132.001  0.00  0.00    +0.000 A 
ENDBRANCH  67  68
ENDBRANCH  14  67
BRANCH  10  74
ATOM     74  C   UNL     1      -5.269   0.561 127.354  0.00  0.00    +0.000 C 
BRANCH  74  75
ATOM     75  C   UNL     1      -5.486   1.741 126.770  0.00  0.00    +0.000 A 
ATOM     76  C   UNL     1      -6.607   2.460 127.033  0.00  0.00    +0.000 A 
ATOM     77  C   UNL     1      -6.614   3.788 126.839  0.00  0.00    +0.000 A 
ATOM     78  C   UNL     1      -5.474   4.371 126.347  0.00  0.00    +0.000 A 
ATOM     79  C   UNL     1      -4.373   3.600 126.032  0.00  0.00    +0.000 A 
ATOM     80  C   UNL     1      -4.382   2.263 126.241  0.00  0.00    +0.000 A 
BRANCH  78  81
ATOM     81  O   UNL     1      -5.350   5.701 126.121  0.00  0.00    +0.000 OA
ATOM     82  H   UNL     1      -4.446   6.048 126.092  0.00  0.00    +0.000 HD
ENDBRANCH  78  81
ENDBRANCH  74  75
ENDBRANCH  10  74
BRANCH  18  83
ATOM     83  C   UNL     1      -4.066  -0.603 132.946  0.00  0.00    +0.000 C 
BRANCH  83  84
ATOM     84  C   UNL     1      -3.087  -1.411 132.947  0.00  0.00    +0.000 C 
BRANCH  84  85
ATOM     85  C   UNL     1      -3.492  -2.824 133.200  0.00  0.00    +0.000 C 
ATOM     86  N   UNL     1      -4.783  -3.260 133.543  0.00  0.00    +0.000 N 
ATOM     87  O   UNL     1      -2.587  -3.637 133.085  0.00  0.00    +0.000 OA
ATOM     88  H   UNL     1      -5.619  -2.684 133.654  0.00  0.00    +0.000 HD
ATOM     89  H   UNL     1      -5.036  -4.192 133.753  0.00  0.00    +0.000 HD
ENDBRANCH  84  85
ENDBRANCH  83  84
ENDBRANCH  18  83
BRANCH  22  90
ATOM     90  C   UNL     1      -3.329   3.482 134.398  0.00  0.00    +0.000 C 
BRANCH  90  91
ATOM     91  C   UNL     1      -2.822   4.403 133.414  0.00  0.00    +0.000 C 
ATOM     92  N   UNL     1      -1.552   4.240 132.876  0.00  0.00    +0.000 N 
ATOM     93  O   UNL     1      -3.549   5.311 133.047  0.00  0.00    +0.000 OA
ATOM     94  H   UNL     1      -0.933   3.468 133.123  0.00  0.00    +0.000 HD
ATOM     95  H   UNL     1      -1.243   4.838 132.135  0.00  0.00    +0.000 HD
ENDBRANCH  90  91
ENDBRANCH  22  90
TORSDOF 21
ENDMDL
MODEL 7
REMARK VINA RESULT:      -7.9      3.042      7.039
REMARK  Name = CHEMBL373742
REMARK  21 active torsions:
REMARK  status: ('A' for Active; 'I' for Inactive)
REMARK    1  A    between atoms: N_4  and  C_5
REMARK    2  A    between atoms: C_5  and  C_6
REMARK    3  A    between atoms: C_6  and  C_7
REMARK    4  A    between atoms: C_7  and  C_8
REMARK    5  A    between atoms: C_8  and  N_9
REMARK    6  A    between atoms: C_8  and  C_69
REMARK    7  A    between atoms: C_10  and  C_12
REMARK    8  A    between atoms: C_17  and  C_19
REMARK    9  A    between atoms: C_24  and  N_25
REMARK   10  A    between atoms: C_29  and  C_30
REMARK   11  A    between atoms: C_30  and  C_31
REMARK   12  A    between atoms: C_34  and  O_35
REMARK   13  A    between atoms: C_41  and  C_42
REMARK   14  A    between atoms: C_42  and  C_43
REMARK   15  A    between atoms: C_52  and  C_53
REMARK   16  A    between atoms: C_53  and  C_54
REMARK   17  A    between atoms: C_54  and  C_55
REMARK   18  A    between atoms: C_61  and  C_62
REMARK   19  A    between atoms: C_62  and  C_63
REMARK   20  A    between atoms: N_71  and  C_72
REMARK   21  A    between atoms: C_72  and  C_73
REMARK                            x       y       z     vdW  Elec       q    Type
REMARK                         _______ _______ _______ _____ _____    ______ ____
ROOT
ATOM      1  C   UNL     1      -4.547   3.980 134.936  0.00  0.00    +0.000 C 
ATOM      2  C   UNL     1      -3.418   5.646 137.011  0.00  0.00    +0.000 C 
ATOM      3  S   UNL     1      -2.445   7.623 139.163  0.00  0.00    +0.000 S 
ATOM      4  S   UNL     1      -0.574   9.910 140.167  0.00  0.00    +0.000 S 
ATOM      5  C   UNL     1      -0.495   8.546 140.538  0.00  0.00    +0.000 C 
ATOM      6  C   UNL     1      -0.585   8.465 138.790  0.00  0.00    +0.000 C 
ATOM      7  C   UNL     1      -2.127   9.537 138.170  0.00  0.00    +0.000 C 
ATOM      8  O   UNL     1      -2.207  10.661 138.658  0.00  0.00    +0.000 OA
ATOM      9  N   UNL     1      -3.427   8.785 137.765  0.00  0.00    +0.000 N 
ATOM     10  C   UNL     1      -3.931   7.341 137.685  0.00  0.00    +0.000 C 
ATOM     11  C   UNL     1      -2.081   6.872 136.673  0.00  0.00    +0.000 C 
ATOM     12  O   UNL     1      -0.948   6.939 137.152  0.00  0.00    +0.000 OA
ATOM     13  N   UNL     1      -2.406   5.955 135.676  0.00  0.00    +0.000 N 
ATOM     14  C   UNL     1      -3.805   5.673 135.388  0.00  0.00    +0.000 C 
ATOM     15  C   UNL     1      -4.454   4.404 136.870  0.00  0.00    +0.000 C 
ATOM     16  O   UNL     1      -4.457   4.692 138.123  0.00  0.00    +0.000 OA
ATOM     17  N   UNL     1      -4.884   3.305 136.552  0.00  0.00    +0.000 N 
ATOM     18  C   UNL     1      -4.942   2.564 135.374  0.00  0.00    +0.000 C 
ATOM     19  C   UNL     1      -6.183   4.023 134.108  0.00  0.00    +0.000 C 
ATOM     20  O   UNL     1      -5.933   5.241 133.874  0.00  0.00    +0.000 OA
ATOM     21  N   UNL     1      -7.108   3.340 133.329  0.00  0.00    +0.000 N 
ATOM     22  C   UNL     1      -7.443   1.815 133.204  0.00  0.00    +0.000 C 
ATOM     23  C   UNL     1      -6.000   0.558 133.362  0.00  0.00    +0.000 C 
ATOM     24  O   UNL     1      -4.472   0.674 133.368  0.00  0.00    +0.000 OA
ATOM     25  N   UNL     1      -4.906   2.238 133.517  0.00  0.00    +0.000 N 
ATOM     26  H   UNL     1      -4.226   9.198 137.799  0.00  0.00    +0.000 HD
ATOM     27  H   UNL     1      -1.729   5.638 135.144  0.00  0.00    +0.000 HD
ATOM     28  H   UNL     1      -5.290   2.782 137.186  0.00  0.00    +0.000 HD
ATOM     29  H   UNL     1      -7.462   3.827 132.618  0.00  0.00    +0.000 HD
ATOM     30  H   UNL     1      -5.119   0.970 132.643  0.00  0.00    +0.000 HD
ENDROOT
BRANCH   1  36
ATOM     31  C   UNL     1      -7.276  -1.594 130.262  0.00  0.00    +0.000 C 
ATOM     32  C   UNL     1      -7.466  -3.564 129.107  0.00  0.00    +0.000 C 
ATOM     33  C   UNL     1      -8.067  -2.878 128.011  0.00  0.00    +0.000 C 
ATOM     34  C   UNL     1      -7.358  -0.868 129.112  0.00  0.00    +0.000 C 
ATOM     35  N   UNL     1      -6.515   0.510 131.144  0.00  0.00    +0.000 N 
ATOM     36  C   UNL     1      -5.728   2.252 132.874  0.00  0.00    +0.000 C 
ATOM     37  O   UNL     1      -6.170   1.780 131.320  0.00  0.00    +0.000 OA
BRANCH  31  39
ATOM     38  N   UNL     1      -5.619  -3.068 131.363  0.00  0.00    +0.000 N 
ATOM     39  C   UNL     1      -6.889  -2.614 131.142  0.00  0.00    +0.000 C 
ATOM     40  O   UNL     1      -7.726  -2.198 131.926  0.00  0.00    +0.000 OA
ATOM     41  H   UNL     1      -5.047  -3.598 130.718  0.00  0.00    +0.000 HD
BRANCH  38  42
ATOM     42  C   UNL     1      -4.998  -2.730 132.654  0.00  0.00    +0.000 C 
BRANCH  42  43
ATOM     43  C   UNL     1      -3.504  -2.326 132.516  0.00  0.00    +0.000 C 
ATOM     44  O   UNL     1      -3.008  -2.181 131.287  0.00  0.00    +0.000 OA
ATOM     45  N   UNL     1      -2.869  -1.805 133.650  0.00  0.00    +0.000 N 
ATOM     46  H   UNL     1      -3.259  -1.664 134.527  0.00  0.00    +0.000 HD
BRANCH  45  47
ATOM     47  C   UNL     1      -1.560  -1.257 133.671  0.00  0.00    +0.000 C 
BRANCH  47  48
ATOM     48  C   UNL     1      -0.442  -1.908 134.329  0.00  0.00    +0.000 C 
ATOM     49  N   UNL     1       0.288  -1.113 135.027  0.00  0.00    +0.000 N 
ATOM     50  O   UNL     1      -0.343  -3.087 134.458  0.00  0.00    +0.000 OA
ATOM     51  H   UNL     1       0.154  -0.133 135.012  0.00  0.00    +0.000 HD
ATOM     52  H   UNL     1       0.948  -1.504 135.669  0.00  0.00    +0.000 HD
ENDBRANCH  47  48
ENDBRANCH  45  47
ENDBRANCH  42  43
BRANCH  42  53
ATOM     53  C   UNL     1      -4.858  -3.859 133.582  0.00  0.00    +0.000 C 
BRANCH  53  54
ATOM     54  C   UNL     1      -5.387  -5.268 133.679  0.00  0.00    +0.000 C 
BRANCH  54  55
ATOM     55  C   UNL     1      -6.609  -5.278 134.602  0.00  0.00    +0.000 C 
BRANCH  55  59
ATOM     56  N   UNL     1      -7.585  -2.205 136.413  0.00  0.00    +0.000 NA
ATOM     57  C   UNL     1      -7.653  -3.176 135.550  0.00  0.00    +0.000 C 
ATOM     58  N   UNL     1      -8.708  -3.279 134.640  0.00  0.00    +0.000 N 
ATOM     59  N   UNL     1      -6.629  -4.158 135.524  0.00  0.00    +0.000 N 
ATOM     60  H   UNL     1      -8.338  -1.509 136.409  0.00  0.00    +0.000 HD
ATOM     61  H   UNL     1      -9.473  -2.600 134.612  0.00  0.00    +0.000 HD
ATOM     62  H   UNL     1      -8.785  -4.024 133.958  0.00  0.00    +0.000 HD
ATOM     63  H   UNL     1      -5.839  -4.098 136.191  0.00  0.00    +0.000 HD
ENDBRANCH  55  59
ENDBRANCH  54  55
ENDBRANCH  53  54
ENDBRANCH  42  53
ENDBRANCH  38  42
ENDBRANCH  31  39
ENDBRANCH   1  36
BRANCH   6  64
ATOM     64  N   UNL     1       0.409   8.978 138.066  0.00  0.00    +0.000 NA
ATOM     65  H   UNL     1       1.144   9.088 138.741  0.00  0.00    +0.000 HD
ATOM     66  H   UNL     1      -0.039   9.813 137.795  0.00  0.00    +0.000 HD
ENDBRANCH   6  64
BRANCH  14  67
ATOM     67  C   UNL     1      -3.649   5.010 133.974  0.00  0.00    +0.000 C 
BRANCH  67  68
ATOM     68  C   UNL     1      -2.812   5.512 133.126  0.00  0.00    +0.000 A 
ATOM     69  C   UNL     1      -1.765   4.797 132.770  0.00  0.00    +0.000 A 
ATOM     70  C   UNL     1      -0.764   5.568 132.290  0.00  0.00    +0.000 A 
ATOM     71  C   UNL     1      -0.945   6.860 131.906  0.00  0.00    +0.000 A 
ATOM     72  C   UNL     1      -2.095   7.467 132.276  0.00  0.00    +0.000 A 
ATOM     73  C   UNL     1      -3.069   6.780 132.862  0.00  0.00    +0.000 A 
ENDBRANCH  67  68
ENDBRANCH  14  67
BRANCH  10  74
ATOM     74  C   UNL     1      -5.116   6.811 137.341  0.00  0.00    +0.000 C 
BRANCH  74  75
ATOM     75  C   UNL     1      -5.963   7.660 137.925  0.00  0.00    +0.000 A 
ATOM     76  C   UNL     1      -6.155   8.911 137.434  0.00  0.00    +0.000 A 
ATOM     77  C   UNL     1      -7.291   9.572 137.703  0.00  0.00    +0.000 A 
ATOM     78  C   UNL     1      -8.219   8.954 138.502  0.00  0.00    +0.000 A 
ATOM     79  C   UNL     1      -7.965   7.707 139.035  0.00  0.00    +0.000 A 
ATOM     80  C   UNL     1      -6.816   7.052 138.746  0.00  0.00    +0.000 A 
BRANCH  78  81
ATOM     81  O   UNL     1      -9.410   9.509 138.834  0.00  0.00    +0.000 OA
ATOM     82  H   UNL     1     -10.193   9.130 138.409  0.00  0.00    +0.000 HD
ENDBRANCH  78  81
ENDBRANCH  74  75
ENDBRANCH  10  74
BRANCH  18  83
ATOM     83  C   UNL     1      -5.197   1.331 135.332  0.00  0.00    +0.000 C 
BRANCH  83  84
ATOM     84  C   UNL     1      -5.341   0.572 136.339  0.00  0.00    +0.000 C 
BRANCH  84  85
ATOM     85  C   UNL     1      -4.254  -0.442 136.471  0.00  0.00    +0.000 C 
ATOM     86  N   UNL     1      -2.931  -0.180 136.866  0.00  0.00    +0.000 N 
ATOM     87  O   UNL     1      -4.594  -1.584 136.205  0.00  0.00    +0.000 OA
ATOM     88  H   UNL     1      -2.532   0.722 137.127  0.00  0.00    +0.000 HD
ATOM     89  H   UNL     1      -2.204  -0.849 136.910  0.00  0.00    +0.000 HD
ENDBRANCH  84  85
ENDBRANCH  83  84
ENDBRANCH  18  83
BRANCH  22  90
ATOM     90  C   UNL     1      -8.515   1.656 132.463  0.00  0.00    +0.000 C 
BRANCH  90  91
ATOM     91  C   UNL     1      -9.439   2.741 132.659  0.00  0.00    +0.000 C 
ATOM     92  N   UNL     1     -10.120   3.298 131.583  0.00  0.00    +0.000 N 
ATOM     93  O   UNL     1      -9.627   3.140 133.796  0.00  0.00    +0.000 OA
ATOM     94  H   UNL     1     -10.025   2.963 130.625  0.00  0.00    +0.000 HD
ATOM     95  H   UNL     1     -10.819   3.997 131.741  0.00  0.00    +0.000 HD
ENDBRANCH  90  91
ENDBRANCH  22  90
TORSDOF 21
ENDMDL
MODEL 8
REMARK VINA RESULT:      -7.8      6.181      8.405
REMARK  Name = CHEMBL373742
REMARK  21 active torsions:
REMARK  status: ('A' for Active; 'I' for Inactive)
REMARK    1  A    between atoms: N_4  and  C_5
REMARK    2  A    between atoms: C_5  and  C_6
REMARK    3  A    between atoms: C_6  and  C_7
REMARK    4  A    between atoms: C_7  and  C_8
REMARK    5  A    between atoms: C_8  and  N_9
REMARK    6  A    between atoms: C_8  and  C_69
REMARK    7  A    between atoms: C_10  and  C_12
REMARK    8  A    between atoms: C_17  and  C_19
REMARK    9  A    between atoms: C_24  and  N_25
REMARK   10  A    between atoms: C_29  and  C_30
REMARK   11  A    between atoms: C_30  and  C_31
REMARK   12  A    between atoms: C_34  and  O_35
REMARK   13  A    between atoms: C_41  and  C_42
REMARK   14  A    between atoms: C_42  and  C_43
REMARK   15  A    between atoms: C_52  and  C_53
REMARK   16  A    between atoms: C_53  and  C_54
REMARK   17  A    between atoms: C_54  and  C_55
REMARK   18  A    between atoms: C_61  and  C_62
REMARK   19  A    between atoms: C_62  and  C_63
REMARK   20  A    between atoms: N_71  and  C_72
REMARK   21  A    between atoms: C_72  and  C_73
REMARK                            x       y       z     vdW  Elec       q    Type
REMARK                         _______ _______ _______ _____ _____    ______ ____
ROOT
ATOM      1  C   UNL     1      -6.323  -2.199 134.330  0.00  0.00    +0.000 C 
ATOM      2  C   UNL     1      -5.670  -1.763 137.112  0.00  0.00    +0.000 C 
ATOM      3  S   UNL     1      -4.729  -1.486 140.031  0.00  0.00    +0.000 S 
ATOM      4  S   UNL     1      -4.869  -2.231 143.059  0.00  0.00    +0.000 S 
ATOM      5  C   UNL     1      -5.341  -1.031 142.474  0.00  0.00    +0.000 C 
ATOM      6  C   UNL     1      -6.039  -2.263 141.442  0.00  0.00    +0.000 C 
ATOM      7  C   UNL     1      -4.613  -3.501 140.855  0.00  0.00    +0.000 C 
ATOM      8  O   UNL     1      -3.877  -3.907 141.751  0.00  0.00    +0.000 OA
ATOM      9  N   UNL     1      -4.046  -3.337 139.416  0.00  0.00    +0.000 N 
ATOM     10  C   UNL     1      -4.270  -2.435 138.198  0.00  0.00    +0.000 C 
ATOM     11  C   UNL     1      -6.384  -2.793 138.466  0.00  0.00    +0.000 C 
ATOM     12  O   UNL     1      -7.068  -2.445 139.430  0.00  0.00    +0.000 OA
ATOM     13  N   UNL     1      -6.922  -2.915 137.187  0.00  0.00    +0.000 N 
ATOM     14  C   UNL     1      -6.030  -2.987 136.037  0.00  0.00    +0.000 C 
ATOM     15  C   UNL     1      -5.407  -1.062 135.670  0.00  0.00    +0.000 C 
ATOM     16  O   UNL     1      -4.757  -0.337 136.510  0.00  0.00    +0.000 OA
ATOM     17  N   UNL     1      -5.649  -0.567 134.580  0.00  0.00    +0.000 N 
ATOM     18  C   UNL     1      -6.406  -0.932 133.469  0.00  0.00    +0.000 C 
ATOM     19  C   UNL     1      -5.335  -2.896 132.952  0.00  0.00    +0.000 C 
ATOM     20  O   UNL     1      -5.131  -3.884 133.714  0.00  0.00    +0.000 OA
ATOM     21  N   UNL     1      -5.199  -3.039 131.576  0.00  0.00    +0.000 N 
ATOM     22  C   UNL     1      -5.613  -2.109 130.385  0.00  0.00    +0.000 C 
ATOM     23  C   UNL     1      -7.231  -1.089 130.556  0.00  0.00    +0.000 C 
ATOM     24  O   UNL     1      -8.413  -1.107 131.531  0.00  0.00    +0.000 OA
ATOM     25  N   UNL     1      -7.353  -2.074 132.305  0.00  0.00    +0.000 N 
ATOM     26  H   UNL     1      -3.216  -3.621 139.214  0.00  0.00    +0.000 HD
ATOM     27  H   UNL     1      -7.823  -3.067 137.111  0.00  0.00    +0.000 HD
ATOM     28  H   UNL     1      -5.270   0.239 134.359  0.00  0.00    +0.000 HD
ATOM     29  H   UNL     1      -5.012  -3.904 131.285  0.00  0.00    +0.000 HD
ATOM     30  H   UNL     1      -8.075  -1.863 130.944  0.00  0.00    +0.000 HD
ENDROOT
BRANCH   1  36
ATOM     31  C   UNL     1      -7.899  -1.897 126.728  0.00  0.00    +0.000 C 
ATOM     32  C   UNL     1      -8.719  -1.207 124.703  0.00  0.00    +0.000 C 
ATOM     33  C   UNL     1      -8.899  -2.562 124.299  0.00  0.00    +0.000 C 
ATOM     34  C   UNL     1      -8.501  -3.112 126.601  0.00  0.00    +0.000 C 
ATOM     35  N   UNL     1      -7.672  -2.620 129.010  0.00  0.00    +0.000 N 
ATOM     36  C   UNL     1      -6.955  -2.585 131.487  0.00  0.00    +0.000 C 
ATOM     37  O   UNL     1      -7.679  -3.304 130.148  0.00  0.00    +0.000 OA
BRANCH  31  39
ATOM     38  N   UNL     1      -8.474   0.431 127.348  0.00  0.00    +0.000 N 
ATOM     39  C   UNL     1      -7.734  -0.506 126.681  0.00  0.00    +0.000 C 
ATOM     40  O   UNL     1      -6.528  -0.691 126.662  0.00  0.00    +0.000 OA
ATOM     41  H   UNL     1      -9.438   0.678 127.167  0.00  0.00    +0.000 HD
BRANCH  38  42
ATOM     42  C   UNL     1      -7.822   1.133 128.466  0.00  0.00    +0.000 C 
BRANCH  42  43
ATOM     43  C   UNL     1      -8.523   2.472 128.826  0.00  0.00    +0.000 C 
ATOM     44  O   UNL     1      -8.587   3.415 127.885  0.00  0.00    +0.000 OA
ATOM     45  N   UNL     1      -9.339   2.488 129.963  0.00  0.00    +0.000 N 
ATOM     46  H   UNL     1      -9.520   1.749 130.564  0.00  0.00    +0.000 HD
BRANCH  45  47
ATOM     47  C   UNL     1     -10.161   3.574 130.360  0.00  0.00    +0.000 C 
BRANCH  47  48
ATOM     48  C   UNL     1      -9.701   4.633 131.240  0.00  0.00    +0.000 C 
ATOM     49  N   UNL     1     -10.102   4.515 132.456  0.00  0.00    +0.000 N 
ATOM     50  O   UNL     1      -8.822   5.388 130.966  0.00  0.00    +0.000 OA
ATOM     51  H   UNL     1     -10.759   3.825 132.723  0.00  0.00    +0.000 HD
ATOM     52  H   UNL     1      -9.672   5.078 133.162  0.00  0.00    +0.000 HD
ENDBRANCH  47  48
ENDBRANCH  45  47
ENDBRANCH  42  43
BRANCH  42  53
ATOM     53  C   UNL     1      -6.475   1.637 128.172  0.00  0.00    +0.000 C 
BRANCH  53  54
ATOM     54  C   UNL     1      -5.155   1.716 128.898  0.00  0.00    +0.000 C 
BRANCH  54  55
ATOM     55  C   UNL     1      -4.324   2.854 128.296  0.00  0.00    +0.000 C 
BRANCH  55  59
ATOM     56  N   UNL     1      -1.082   2.718 126.523  0.00  0.00    +0.000 NA
ATOM     57  C   UNL     1      -2.103   3.233 127.144  0.00  0.00    +0.000 C 
ATOM     58  N   UNL     1      -2.206   4.606 127.377  0.00  0.00    +0.000 N 
ATOM     59  N   UNL     1      -3.144   2.382 127.596  0.00  0.00    +0.000 N 
ATOM     60  H   UNL     1      -0.344   3.357 126.206  0.00  0.00    +0.000 HD
ATOM     61  H   UNL     1      -1.487   5.268 127.073  0.00  0.00    +0.000 HD
ATOM     62  H   UNL     1      -2.990   5.032 127.858  0.00  0.00    +0.000 HD
ATOM     63  H   UNL     1      -3.084   1.361 127.432  0.00  0.00    +0.000 HD
ENDBRANCH  55  59
ENDBRANCH  54  55
ENDBRANCH  53  54
ENDBRANCH  42  53
ENDBRANCH  38  42
ENDBRANCH  31  39
ENDBRANCH   1  36
BRANCH   6  64
ATOM     64  N   UNL     1      -6.934  -3.106 141.955  0.00  0.00    +0.000 NA
ATOM     65  H   UNL     1      -7.590  -2.491 142.402  0.00  0.00    +0.000 HD
ATOM     66  H   UNL     1      -6.330  -3.589 142.565  0.00  0.00    +0.000 HD
ENDBRANCH   6  64
BRANCH  14  67
ATOM     67  C   UNL     1      -7.028  -3.570 134.975  0.00  0.00    +0.000 C 
BRANCH  67  68
ATOM     68  C   UNL     1      -7.704  -4.636 135.255  0.00  0.00    +0.000 A 
ATOM     69  C   UNL     1      -9.019  -4.563 135.281  0.00  0.00    +0.000 A 
ATOM     70  C   UNL     1      -9.566  -5.552 136.023  0.00  0.00    +0.000 A 
ATOM     71  C   UNL     1      -8.877  -6.662 136.400  0.00  0.00    +0.000 A 
ATOM     72  C   UNL     1      -7.532  -6.640 136.260  0.00  0.00    +0.000 A 
ATOM     73  C   UNL     1      -6.928  -5.631 135.643  0.00  0.00    +0.000 A 
ENDBRANCH  67  68
ENDBRANCH  14  67
BRANCH  10  74
ATOM     74  C   UNL     1      -3.678  -2.371 136.994  0.00  0.00    +0.000 C 
BRANCH  74  75
ATOM     75  C   UNL     1      -2.472  -2.870 137.268  0.00  0.00    +0.000 A 
ATOM     76  C   UNL     1      -2.115  -4.114 136.857  0.00  0.00    +0.000 A 
ATOM     77  C   UNL     1      -0.819  -4.427 136.711  0.00  0.00    +0.000 A 
ATOM     78  C   UNL     1       0.112  -3.467 137.015  0.00  0.00    +0.000 A 
ATOM     79  C   UNL     1      -0.284  -2.233 137.489  0.00  0.00    +0.000 A 
ATOM     80  C   UNL     1      -1.597  -1.932 137.623  0.00  0.00    +0.000 A 
BRANCH  78  81
ATOM     81  O   UNL     1       1.449  -3.654 136.896  0.00  0.00    +0.000 OA
ATOM     82  H   UNL     1       1.962  -2.894 136.586  0.00  0.00    +0.000 HD
ENDBRANCH  78  81
ENDBRANCH  74  75
ENDBRANCH  10  74
BRANCH  18  83
ATOM     83  C   UNL     1      -6.727  -0.137 132.546  0.00  0.00    +0.000 C 
BRANCH  83  84
ATOM     84  C   UNL     1      -6.442   1.100 132.504  0.00  0.00    +0.000 C 
BRANCH  84  85
ATOM     85  C   UNL     1      -7.500   1.968 133.098  0.00  0.00    +0.000 C 
ATOM     86  N   UNL     1      -7.278   3.094 133.910  0.00  0.00    +0.000 N 
ATOM     87  O   UNL     1      -8.642   1.632 132.824  0.00  0.00    +0.000 OA
ATOM     88  H   UNL     1      -6.378   3.481 134.195  0.00  0.00    +0.000 HD
ATOM     89  H   UNL     1      -7.983   3.640 134.336  0.00  0.00    +0.000 HD
ENDBRANCH  84  85
ENDBRANCH  83  84
ENDBRANCH  18  83
BRANCH  22  90
ATOM     90  C   UNL     1      -5.127  -2.585 129.262  0.00  0.00    +0.000 C 
BRANCH  90  91
ATOM     91  C   UNL     1      -3.775  -3.047 129.444  0.00  0.00    +0.000 C 
ATOM     92  N   UNL     1      -2.734  -2.145 129.623  0.00  0.00    +0.000 N 
ATOM     93  O   UNL     1      -3.576  -4.250 129.462  0.00  0.00    +0.000 OA
ATOM     94  H   UNL     1      -2.866  -1.135 129.659  0.00  0.00    +0.000 HD
ATOM     95  H   UNL     1      -1.813  -2.480 129.827  0.00  0.00    +0.000 HD
ENDBRANCH  90  91
ENDBRANCH  22  90
TORSDOF 21
ENDMDL
MODEL 9
REMARK VINA RESULT:      -7.8      2.748      6.982
REMARK  Name = CHEMBL373742
REMARK  21 active torsions:
REMARK  status: ('A' for Active; 'I' for Inactive)
REMARK    1  A    between atoms: N_4  and  C_5
REMARK    2  A    between atoms: C_5  and  C_6
REMARK    3  A    between atoms: C_6  and  C_7
REMARK    4  A    between atoms: C_7  and  C_8
REMARK    5  A    between atoms: C_8  and  N_9
REMARK    6  A    between atoms: C_8  and  C_69
REMARK    7  A    between atoms: C_10  and  C_12
REMARK    8  A    between atoms: C_17  and  C_19
REMARK    9  A    between atoms: C_24  and  N_25
REMARK   10  A    between atoms: C_29  and  C_30
REMARK   11  A    between atoms: C_30  and  C_31
REMARK   12  A    between atoms: C_34  and  O_35
REMARK   13  A    between atoms: C_41  and  C_42
REMARK   14  A    between atoms: C_42  and  C_43
REMARK   15  A    between atoms: C_52  and  C_53
REMARK   16  A    between atoms: C_53  and  C_54
REMARK   17  A    between atoms: C_54  and  C_55
REMARK   18  A    between atoms: C_61  and  C_62
REMARK   19  A    between atoms: C_62  and  C_63
REMARK   20  A    between atoms: N_71  and  C_72
REMARK   21  A    between atoms: C_72  and  C_73
REMARK                            x       y       z     vdW  Elec       q    Type
REMARK                         _______ _______ _______ _____ _____    ______ ____
ROOT
ATOM      1  C   UNL     1      -5.140   4.705 133.915  0.00  0.00    +0.000 C 
ATOM      2  C   UNL     1      -4.602   5.400 136.669  0.00  0.00    +0.000 C 
ATOM      3  S   UNL     1      -4.214   6.388 139.560  0.00  0.00    +0.000 S 
ATOM      4  S   UNL     1      -2.591   7.869 141.777  0.00  0.00    +0.000 S 
ATOM      5  C   UNL     1      -2.734   6.466 141.646  0.00  0.00    +0.000 C 
ATOM      6  C   UNL     1      -2.274   6.960 140.029  0.00  0.00    +0.000 C 
ATOM      7  C   UNL     1      -3.459   8.429 139.438  0.00  0.00    +0.000 C 
ATOM      8  O   UNL     1      -3.607   9.337 140.253  0.00  0.00    +0.000 OA
ATOM      9  N   UNL     1      -4.617   8.088 138.457  0.00  0.00    +0.000 N 
ATOM     10  C   UNL     1      -5.176   6.858 137.736  0.00  0.00    +0.000 C 
ATOM     11  C   UNL     1      -3.141   6.412 137.163  0.00  0.00    +0.000 C 
ATOM     12  O   UNL     1      -2.214   6.121 137.923  0.00  0.00    +0.000 OA
ATOM     13  N   UNL     1      -3.202   5.930 135.858  0.00  0.00    +0.000 N 
ATOM     14  C   UNL     1      -4.456   6.008 135.122  0.00  0.00    +0.000 C 
ATOM     15  C   UNL     1      -5.630   4.471 135.821  0.00  0.00    +0.000 C 
ATOM     16  O   UNL     1      -6.006   4.343 137.045  0.00  0.00    +0.000 OA
ATOM     17  N   UNL     1      -6.018   3.624 135.030  0.00  0.00    +0.000 N 
ATOM     18  C   UNL     1      -5.756   3.317 133.697  0.00  0.00    +0.000 C 
ATOM     19  C   UNL     1      -6.424   5.298 132.748  0.00  0.00    +0.000 C 
ATOM     20  O   UNL     1      -6.025   6.463 133.039  0.00  0.00    +0.000 OA
ATOM     21  N   UNL     1      -7.105   5.072 131.558  0.00  0.00    +0.000 N 
ATOM     22  C   UNL     1      -7.495   3.750 130.814  0.00  0.00    +0.000 C 
ATOM     23  C   UNL     1      -6.271   2.273 130.899  0.00  0.00    +0.000 C 
ATOM     24  O   UNL     1      -4.819   2.108 131.358  0.00  0.00    +0.000 OA
ATOM     25  N   UNL     1      -5.161   3.595 131.930  0.00  0.00    +0.000 N 
ATOM     26  H   UNL     1      -5.354   8.604 138.419  0.00  0.00    +0.000 HD
ATOM     27  H   UNL     1      -2.417   5.683 135.452  0.00  0.00    +0.000 HD
ATOM     28  H   UNL     1      -6.640   3.008 135.303  0.00  0.00    +0.000 HD
ATOM     29  H   UNL     1      -7.180   5.814 131.000  0.00  0.00    +0.000 HD
ATOM     30  H   UNL     1      -5.181   2.727 130.640  0.00  0.00    +0.000 HD
ENDROOT
BRANCH   1  36
ATOM     31  C   UNL     1      -6.817   1.490 127.044  0.00  0.00    +0.000 C 
ATOM     32  C   UNL     1      -6.890   0.012 125.294  0.00  0.00    +0.000 C 
ATOM     33  C   UNL     1      -6.910   1.094 124.365  0.00  0.00    +0.000 C 
ATOM     34  C   UNL     1      -6.338   2.479 126.239  0.00  0.00    +0.000 C 
ATOM     35  N   UNL     1      -6.099   3.003 128.770  0.00  0.00    +0.000 N 
ATOM     36  C   UNL     1      -5.735   3.957 131.138  0.00  0.00    +0.000 C 
ATOM     37  O   UNL     1      -5.636   4.039 129.459  0.00  0.00    +0.000 OA
BRANCH  31  39
ATOM     38  N   UNL     1      -5.986  -0.554 128.168  0.00  0.00    +0.000 N 
ATOM     39  C   UNL     1      -6.966   0.213 127.603  0.00  0.00    +0.000 C 
ATOM     40  O   UNL     1      -8.039   0.581 128.053  0.00  0.00    +0.000 OA
ATOM     41  H   UNL     1      -5.221  -1.007 127.686  0.00  0.00    +0.000 HD
BRANCH  38  42
ATOM     42  C   UNL     1      -6.020  -0.718 129.631  0.00  0.00    +0.000 C 
BRANCH  42  43
ATOM     43  C   UNL     1      -4.731  -1.383 130.192  0.00  0.00    +0.000 C 
ATOM     44  O   UNL     1      -3.770  -0.585 130.658  0.00  0.00    +0.000 OA
ATOM     45  N   UNL     1      -4.790  -2.747 130.497  0.00  0.00    +0.000 N 
ATOM     46  H   UNL     1      -5.554  -3.337 130.398  0.00  0.00    +0.000 HD
BRANCH  45  47
ATOM     47  C   UNL     1      -3.762  -3.482 131.144  0.00  0.00    +0.000 C 
BRANCH  47  48
ATOM     48  C   UNL     1      -3.749  -3.732 132.573  0.00  0.00    +0.000 C 
ATOM     49  N   UNL     1      -2.747  -4.432 132.972  0.00  0.00    +0.000 N 
ATOM     50  O   UNL     1      -4.420  -3.138 133.357  0.00  0.00    +0.000 OA
ATOM     51  H   UNL     1      -2.117  -4.851 132.335  0.00  0.00    +0.000 HD
ATOM     52  H   UNL     1      -2.551  -4.478 133.952  0.00  0.00    +0.000 HD
ENDBRANCH  47  48
ENDBRANCH  45  47
ENDBRANCH  42  43
BRANCH  42  53
ATOM     53  C   UNL     1      -7.017  -1.679 130.119  0.00  0.00    +0.000 C 
BRANCH  53  54
ATOM     54  C   UNL     1      -8.022  -1.737 131.242  0.00  0.00    +0.000 C 
BRANCH  54  55
ATOM     55  C   UNL     1      -7.673  -2.913 132.161  0.00  0.00    +0.000 C 
BRANCH  55  59
ATOM     56  N   UNL     1      -7.731  -2.613 135.846  0.00  0.00    +0.000 NA
ATOM     57  C   UNL     1      -8.046  -3.047 134.661  0.00  0.00    +0.000 C 
ATOM     58  N   UNL     1      -9.012  -4.037 134.472  0.00  0.00    +0.000 N 
ATOM     59  N   UNL     1      -7.395  -2.500 133.524  0.00  0.00    +0.000 N 
ATOM     60  H   UNL     1      -8.217  -3.024 136.650  0.00  0.00    +0.000 HD
ATOM     61  H   UNL     1      -9.514  -4.467 135.254  0.00  0.00    +0.000 HD
ATOM     62  H   UNL     1      -9.276  -4.393 133.561  0.00  0.00    +0.000 HD
ATOM     63  H   UNL     1      -6.677  -1.765 133.644  0.00  0.00    +0.000 HD
ENDBRANCH  55  59
ENDBRANCH  54  55
ENDBRANCH  53  54
ENDBRANCH  42  53
ENDBRANCH  38  42
ENDBRANCH  31  39
ENDBRANCH   1  36
BRANCH   6  64
ATOM     64  N   UNL     1      -1.069   7.491 139.831  0.00  0.00    +0.000 NA
ATOM     65  H   UNL     1      -1.056   8.262 140.475  0.00  0.00    +0.000 HD
ATOM     66  H   UNL     1      -1.183   7.738 138.885  0.00  0.00    +0.000 HD
ENDBRANCH   6  64
BRANCH  14  67
ATOM     67  C   UNL     1      -3.912   5.810 133.664  0.00  0.00    +0.000 C 
BRANCH  67  68
ATOM     68  C   UNL     1      -2.714   6.201 133.373  0.00  0.00    +0.000 A 
ATOM     69  C   UNL     1      -2.458   7.493 133.349  0.00  0.00    +0.000 A 
ATOM     70  C   UNL     1      -1.372   7.779 132.597  0.00  0.00    +0.000 A 
ATOM     71  C   UNL     1      -0.472   6.838 132.208  0.00  0.00    +0.000 A 
ATOM     72  C   UNL     1      -0.826   5.540 132.347  0.00  0.00    +0.000 A 
ATOM     73  C   UNL     1      -1.947   5.203 132.974  0.00  0.00    +0.000 A 
ENDBRANCH  67  68
ENDBRANCH  14  67
BRANCH  10  74
ATOM     74  C   UNL     1      -6.228   6.682 136.920  0.00  0.00    +0.000 C 
BRANCH  74  75
ATOM     75  C   UNL     1      -7.126   7.503 137.469  0.00  0.00    +0.000 A 
ATOM     76  C   UNL     1      -6.975   8.851 137.409  0.00  0.00    +0.000 A 
ATOM     77  C   UNL     1      -8.045   9.652 137.524  0.00  0.00    +0.000 A 
ATOM     78  C   UNL     1      -9.268   9.065 137.730  0.00  0.00    +0.000 A 
ATOM     79  C   UNL     1      -9.375   7.694 137.847  0.00  0.00    +0.000 A 
ATOM     80  C   UNL     1      -8.285   6.901 137.721  0.00  0.00    +0.000 A 
BRANCH  78  81
ATOM     81  O   UNL     1     -10.424   9.762 137.848  0.00  0.00    +0.000 OA
ATOM     82  H   UNL     1     -11.082   9.400 138.459  0.00  0.00    +0.000 HD
ENDBRANCH  78  81
ENDBRANCH  74  75
ENDBRANCH  10  74
BRANCH  18  83
ATOM     83  C   UNL     1      -6.075   2.227 133.152  0.00  0.00    +0.000 C 
BRANCH  83  84
ATOM     84  C   UNL     1      -6.645   1.251 133.731  0.00  0.00    +0.000 C 
BRANCH  84  85
ATOM     85  C   UNL     1      -5.687   0.224 134.233  0.00  0.00    +0.000 C 
ATOM     86  N   UNL     1      -4.497  -0.169 133.598  0.00  0.00    +0.000 N 
ATOM     87  O   UNL     1      -6.007  -0.288 135.295  0.00  0.00    +0.000 OA
ATOM     88  H   UNL     1      -4.117   0.192 132.722  0.00  0.00    +0.000 HD
ATOM     89  H   UNL     1      -3.888  -0.881 133.913  0.00  0.00    +0.000 HD
ENDBRANCH  84  85
ENDBRANCH  83  84
ENDBRANCH  18  83
BRANCH  22  90
ATOM     90  C   UNL     1      -8.287   4.027 129.805  0.00  0.00    +0.000 C 
BRANCH  90  91
ATOM     91  C   UNL     1      -9.531   4.586 130.268  0.00  0.00    +0.000 C 
ATOM     92  N   UNL     1     -10.447   3.805 130.961  0.00  0.00    +0.000 N 
ATOM     93  O   UNL     1      -9.744   5.768 130.058  0.00  0.00    +0.000 OA
ATOM     94  H   UNL     1     -10.286   2.826 131.195  0.00  0.00    +0.000 HD
ATOM     95  H   UNL     1     -11.270   4.224 131.346  0.00  0.00    +0.000 HD
ENDBRANCH  90  91
ENDBRANCH  22  90
TORSDOF 21
ENDMDL
