MODEL 1
REMARK VINA RESULT:      -8.8      0.000      0.000
REMARK  Name = CHEMBL514586
REMARK  11 active torsions:
REMARK  status: ('A' for Active; 'I' for Inactive)
REMARK    1  A    between atoms: C_1  and  O_2
REMARK    2  A    between atoms: O_2  and  C_3
REMARK    3  A    between atoms: C_6  and  N_7
REMARK    4  A    between atoms: N_7  and  C_8
REMARK    5  A    between atoms: N_7  and  S_22
REMARK    6  A    between atoms: C_8  and  C_9
REMARK    7  A    between atoms: C_12  and  C_13
REMARK    8  A    between atoms: C_18  and  C_19
REMARK    9  A    between atoms: S_22  and  C_25
REMARK   10  A    between atoms: C_28  and  S_29
REMARK   11  A    between atoms: S_29  and  C_30
REMARK                            x       y       z     vdW  Elec       q    Type
REMARK                         _______ _______ _______ _____ _____    ______ ____
ROOT
ATOM      1  N   UNL     1     -10.052   5.277 130.973  0.00  0.00    +0.000 N 
ENDROOT
BRANCH   1   5
ATOM      2  C   UNL     1     -12.537   8.528 129.685  0.00  0.00    +0.000 A 
ATOM      3  C   UNL     1     -12.990   7.713 130.709  0.00  0.00    +0.000 A 
ATOM      4  C   UNL     1     -12.198   6.634 131.150  0.00  0.00    +0.000 A 
ATOM      5  C   UNL     1     -10.944   6.396 130.601  0.00  0.00    +0.000 A 
ATOM      6  C   UNL     1     -10.556   7.430 129.762  0.00  0.00    +0.000 A 
ATOM      7  N   UNL     1     -11.308   8.413 129.204  0.00  0.00    +0.000 NA
BRANCH   2   9
ATOM      8  C   UNL     1     -13.370  10.665 129.938  0.00  0.00    +0.000 C 
ATOM      9  O   UNL     1     -13.261   9.523 129.105  0.00  0.00    +0.000 OA
ENDBRANCH   2   9
ENDBRANCH   1   5
BRANCH   1  10
ATOM     10  S   UNL     1      -9.264   5.387 132.487  0.00  0.00    +0.000 S 
ATOM     11  O   UNL     1      -9.783   6.592 133.127  0.00  0.00    +0.000 OA
ATOM     12  O   UNL     1      -9.359   4.124 133.175  0.00  0.00    +0.000 OA
BRANCH  10  13
ATOM     13  C   UNL     1      -7.514   5.702 132.238  0.00  0.00    +0.000 A 
ATOM     14  C   UNL     1      -6.594   5.486 133.279  0.00  0.00    +0.000 A 
ATOM     15  C   UNL     1      -5.277   5.968 133.165  0.00  0.00    +0.000 A 
ATOM     16  C   UNL     1      -4.874   6.620 131.993  0.00  0.00    +0.000 A 
ATOM     17  C   UNL     1      -5.793   6.839 130.961  0.00  0.00    +0.000 A 
ATOM     18  C   UNL     1      -7.115   6.396 131.093  0.00  0.00    +0.000 A 
BRANCH  16  19
ATOM     19  S   UNL     1      -3.145   7.004 131.730  0.00  0.00    +0.000 S 
ATOM     20  C   UNL     1      -2.251   5.479 131.841  0.00  0.00    +0.000 C 
ATOM     21  O   UNL     1      -3.044   7.485 130.368  0.00  0.00    +0.000 OA
ATOM     22  O   UNL     1      -2.716   7.836 132.842  0.00  0.00    +0.000 OA
ENDBRANCH  16  19
ENDBRANCH  10  13
ENDBRANCH   1  10
BRANCH   1  23
ATOM     23  C   UNL     1     -10.040   3.933 130.273  0.00  0.00    +0.000 C 
BRANCH  23  24
ATOM     24  C   UNL     1      -8.781   3.481 129.520  0.00  0.00    +0.000 A 
ATOM     25  C   UNL     1      -7.852   2.659 130.166  0.00  0.00    +0.000 A 
ATOM     26  C   UNL     1      -6.530   2.653 129.713  0.00  0.00    +0.000 A 
ATOM     27  C   UNL     1      -6.138   3.462 128.636  0.00  0.00    +0.000 A 
ATOM     28  C   UNL     1      -7.152   4.174 128.002  0.00  0.00    +0.000 A 
ATOM     29  N   UNL     1      -8.467   4.146 128.375  0.00  0.00    +0.000 NA
BRANCH  27  30
ATOM     30  C   UNL     1      -4.760   3.480 128.130  0.00  0.00    +0.000 A 
ATOM     31  C   UNL     1      -3.811   4.420 128.579  0.00  0.00    +0.000 A 
ATOM     32  C   UNL     1      -2.534   4.474 128.008  0.00  0.00    +0.000 A 
ATOM     33  C   UNL     1      -2.187   3.585 126.993  0.00  0.00    +0.000 A 
ATOM     34  C   UNL     1      -3.109   2.639 126.549  0.00  0.00    +0.000 A 
ATOM     35  C   UNL     1      -4.392   2.577 127.109  0.00  0.00    +0.000 A 
ATOM     36  C   UNL     1      -5.384   1.574 126.577  0.00  0.00    +0.000 C 
ENDBRANCH  27  30
ENDBRANCH  23  24
ENDBRANCH   1  23
TORSDOF 8
ENDMDL
MODEL 2
REMARK VINA RESULT:      -8.7      3.263      4.974
REMARK  Name = CHEMBL514586
REMARK  11 active torsions:
REMARK  status: ('A' for Active; 'I' for Inactive)
REMARK    1  A    between atoms: C_1  and  O_2
REMARK    2  A    between atoms: O_2  and  C_3
REMARK    3  A    between atoms: C_6  and  N_7
REMARK    4  A    between atoms: N_7  and  C_8
REMARK    5  A    between atoms: N_7  and  S_22
REMARK    6  A    between atoms: C_8  and  C_9
REMARK    7  A    between atoms: C_12  and  C_13
REMARK    8  A    between atoms: C_18  and  C_19
REMARK    9  A    between atoms: S_22  and  C_25
REMARK   10  A    between atoms: C_28  and  S_29
REMARK   11  A    between atoms: S_29  and  C_30
REMARK                            x       y       z     vdW  Elec       q    Type
REMARK                         _______ _______ _______ _____ _____    ______ ____
ROOT
ATOM      1  N   UNL     1     -10.433   5.413 131.393  0.00  0.00    +0.000 N 
ENDROOT
BRANCH   1   5
ATOM      2  C   UNL     1     -12.581   8.735 129.735  0.00  0.00    +0.000 A 
ATOM      3  C   UNL     1     -13.062   8.147 130.893  0.00  0.00    +0.000 A 
ATOM      4  C   UNL     1     -12.380   7.050 131.458  0.00  0.00    +0.000 A 
ATOM      5  C   UNL     1     -11.204   6.571 130.894  0.00  0.00    +0.000 A 
ATOM      6  C   UNL     1     -10.749   7.410 129.888  0.00  0.00    +0.000 A 
ATOM      7  N   UNL     1     -11.410   8.390 129.220  0.00  0.00    +0.000 NA
BRANCH   2   9
ATOM      8  C   UNL     1     -13.488  10.853 129.847  0.00  0.00    +0.000 C 
ATOM      9  O   UNL     1     -13.215   9.720 129.041  0.00  0.00    +0.000 OA
ENDBRANCH   2   9
ENDBRANCH   1   5
BRANCH   1  10
ATOM     10  S   UNL     1     -10.169   4.129 130.296  0.00  0.00    +0.000 S 
ATOM     11  O   UNL     1     -11.473   3.512 130.072  0.00  0.00    +0.000 OA
ATOM     12  O   UNL     1      -9.410   4.606 129.167  0.00  0.00    +0.000 OA
BRANCH  10  13
ATOM     13  C   UNL     1      -9.174   2.856 131.078  0.00  0.00    +0.000 A 
ATOM     14  C   UNL     1      -7.781   2.825 130.895  0.00  0.00    +0.000 A 
ATOM     15  C   UNL     1      -7.043   1.694 131.295  0.00  0.00    +0.000 A 
ATOM     16  C   UNL     1      -7.696   0.624 131.919  0.00  0.00    +0.000 A 
ATOM     17  C   UNL     1      -9.084   0.655 132.095  0.00  0.00    +0.000 A 
ATOM     18  C   UNL     1      -9.822   1.762 131.659  0.00  0.00    +0.000 A 
BRANCH  16  19
ATOM     19  S   UNL     1      -6.743  -0.696 132.664  0.00  0.00    +0.000 S 
ATOM     20  C   UNL     1      -6.356  -1.849 131.376  0.00  0.00    +0.000 C 
ATOM     21  O   UNL     1      -5.505  -0.093 133.113  0.00  0.00    +0.000 OA
ATOM     22  O   UNL     1      -7.616  -1.378 133.605  0.00  0.00    +0.000 OA
ENDBRANCH  16  19
ENDBRANCH  10  13
ENDBRANCH   1  10
BRANCH   1  23
ATOM     23  C   UNL     1      -9.614   5.424 132.668  0.00  0.00    +0.000 C 
BRANCH  23  24
ATOM     24  C   UNL     1      -8.203   6.028 132.659  0.00  0.00    +0.000 A 
ATOM     25  C   UNL     1      -7.699   6.579 131.477  0.00  0.00    +0.000 A 
ATOM     26  C   UNL     1      -6.314   6.665 131.312  0.00  0.00    +0.000 A 
ATOM     27  C   UNL     1      -5.444   6.200 132.308  0.00  0.00    +0.000 A 
ATOM     28  C   UNL     1      -6.039   5.753 133.484  0.00  0.00    +0.000 A 
ATOM     29  N   UNL     1      -7.388   5.723 133.706  0.00  0.00    +0.000 NA
BRANCH  27  30
ATOM     30  C   UNL     1      -3.984   6.276 132.172  0.00  0.00    +0.000 A 
ATOM     31  C   UNL     1      -3.255   7.419 132.558  0.00  0.00    +0.000 A 
ATOM     32  C   UNL     1      -1.877   7.499 132.327  0.00  0.00    +0.000 A 
ATOM     33  C   UNL     1      -1.210   6.439 131.717  0.00  0.00    +0.000 A 
ATOM     34  C   UNL     1      -1.914   5.296 131.343  0.00  0.00    +0.000 A 
ATOM     35  C   UNL     1      -3.294   5.204 131.566  0.00  0.00    +0.000 A 
ATOM     36  C   UNL     1      -4.037   3.975 131.109  0.00  0.00    +0.000 C 
ENDBRANCH  27  30
ENDBRANCH  23  24
ENDBRANCH   1  23
TORSDOF 8
ENDMDL
MODEL 3
REMARK VINA RESULT:      -8.3      4.312      8.154
REMARK  Name = CHEMBL514586
REMARK  11 active torsions:
REMARK  status: ('A' for Active; 'I' for Inactive)
REMARK    1  A    between atoms: C_1  and  O_2
REMARK    2  A    between atoms: O_2  and  C_3
REMARK    3  A    between atoms: C_6  and  N_7
REMARK    4  A    between atoms: N_7  and  C_8
REMARK    5  A    between atoms: N_7  and  S_22
REMARK    6  A    between atoms: C_8  and  C_9
REMARK    7  A    between atoms: C_12  and  C_13
REMARK    8  A    between atoms: C_18  and  C_19
REMARK    9  A    between atoms: S_22  and  C_25
REMARK   10  A    between atoms: C_28  and  S_29
REMARK   11  A    between atoms: S_29  and  C_30
REMARK                            x       y       z     vdW  Elec       q    Type
REMARK                         _______ _______ _______ _____ _____    ______ ____
ROOT
ATOM      1  N   UNL     1      -7.212   1.441 130.770  0.00  0.00    +0.000 N 
ENDROOT
BRANCH   1   5
ATOM      2  C   UNL     1      -6.389  -2.680 131.632  0.00  0.00    +0.000 A 
ATOM      3  C   UNL     1      -7.503  -2.373 130.869  0.00  0.00    +0.000 A 
ATOM      4  C   UNL     1      -7.802  -1.027 130.575  0.00  0.00    +0.000 A 
ATOM      5  C   UNL     1      -6.971   0.001 131.003  0.00  0.00    +0.000 A 
ATOM      6  C   UNL     1      -5.796  -0.495 131.547  0.00  0.00    +0.000 A 
ATOM      7  N   UNL     1      -5.507  -1.752 131.972  0.00  0.00    +0.000 NA
BRANCH   2   9
ATOM      8  C   UNL     1      -5.417  -4.697 131.075  0.00  0.00    +0.000 C 
ATOM      9  O   UNL     1      -6.067  -3.927 132.072  0.00  0.00    +0.000 OA
ENDBRANCH   2   9
ENDBRANCH   1   5
BRANCH   1  10
ATOM     10  S   UNL     1      -7.648   2.381 132.130  0.00  0.00    +0.000 S 
ATOM     11  O   UNL     1      -8.240   1.454 133.091  0.00  0.00    +0.000 OA
ATOM     12  O   UNL     1      -6.530   3.198 132.533  0.00  0.00    +0.000 OA
BRANCH  10  13
ATOM     13  C   UNL     1      -8.971   3.511 131.689  0.00  0.00    +0.000 A 
ATOM     14  C   UNL     1     -10.086   3.057 130.964  0.00  0.00    +0.000 A 
ATOM     15  C   UNL     1     -10.988   3.983 130.407  0.00  0.00    +0.000 A 
ATOM     16  C   UNL     1     -10.797   5.353 130.618  0.00  0.00    +0.000 A 
ATOM     17  C   UNL     1      -9.682   5.803 131.335  0.00  0.00    +0.000 A 
ATOM     18  C   UNL     1      -8.763   4.883 131.853  0.00  0.00    +0.000 A 
BRANCH  16  19
ATOM     19  S   UNL     1     -12.068   6.520 130.141  0.00  0.00    +0.000 S 
ATOM     20  C   UNL     1     -11.246   7.993 129.600  0.00  0.00    +0.000 C 
ATOM     21  O   UNL     1     -12.741   5.936 129.000  0.00  0.00    +0.000 OA
ATOM     22  O   UNL     1     -12.812   6.860 131.343  0.00  0.00    +0.000 OA
ENDBRANCH  16  19
ENDBRANCH  10  13
ENDBRANCH   1  10
BRANCH   1  23
ATOM     23  C   UNL     1      -6.801   2.178 129.512  0.00  0.00    +0.000 C 
BRANCH  23  24
ATOM     24  C   UNL     1      -7.171   1.601 128.139  0.00  0.00    +0.000 A 
ATOM     25  C   UNL     1      -8.508   1.602 127.730  0.00  0.00    +0.000 A 
ATOM     26  C   UNL     1      -8.918   0.675 126.768  0.00  0.00    +0.000 A 
ATOM     27  C   UNL     1      -8.009  -0.245 126.227  0.00  0.00    +0.000 A 
ATOM     28  C   UNL     1      -6.683  -0.108 126.628  0.00  0.00    +0.000 A 
ATOM     29  N   UNL     1      -6.236   0.834 127.512  0.00  0.00    +0.000 NA
BRANCH  27  30
ATOM     30  C   UNL     1      -8.402  -1.231 125.212  0.00  0.00    +0.000 A 
ATOM     31  C   UNL     1      -8.531  -0.892 123.850  0.00  0.00    +0.000 A 
ATOM     32  C   UNL     1      -9.000  -1.829 122.922  0.00  0.00    +0.000 A 
ATOM     33  C   UNL     1      -9.336  -3.115 123.340  0.00  0.00    +0.000 A 
ATOM     34  C   UNL     1      -9.200  -3.470 124.681  0.00  0.00    +0.000 A 
ATOM     35  C   UNL     1      -8.734  -2.541 125.620  0.00  0.00    +0.000 A 
ATOM     36  C   UNL     1      -8.640  -2.939 127.071  0.00  0.00    +0.000 C 
ENDBRANCH  27  30
ENDBRANCH  23  24
ENDBRANCH   1  23
TORSDOF 8
ENDMDL
MODEL 4
REMARK VINA RESULT:      -8.1      2.235      4.491
REMARK  Name = CHEMBL514586
REMARK  11 active torsions:
REMARK  status: ('A' for Active; 'I' for Inactive)
REMARK    1  A    between atoms: C_1  and  O_2
REMARK    2  A    between atoms: O_2  and  C_3
REMARK    3  A    between atoms: C_6  and  N_7
REMARK    4  A    between atoms: N_7  and  C_8
REMARK    5  A    between atoms: N_7  and  S_22
REMARK    6  A    between atoms: C_8  and  C_9
REMARK    7  A    between atoms: C_12  and  C_13
REMARK    8  A    between atoms: C_18  and  C_19
REMARK    9  A    between atoms: S_22  and  C_25
REMARK   10  A    between atoms: C_28  and  S_29
REMARK   11  A    between atoms: S_29  and  C_30
REMARK                            x       y       z     vdW  Elec       q    Type
REMARK                         _______ _______ _______ _____ _____    ______ ____
ROOT
ATOM      1  N   UNL     1     -10.042   5.174 131.638  0.00  0.00    +0.000 N 
ENDROOT
BRANCH   1   5
ATOM      2  C   UNL     1     -12.140   8.329 129.625  0.00  0.00    +0.000 A 
ATOM      3  C   UNL     1     -10.849   8.029 129.222  0.00  0.00    +0.000 A 
ATOM      4  C   UNL     1     -10.133   7.001 129.869  0.00  0.00    +0.000 A 
ATOM      5  C   UNL     1     -10.717   6.250 130.882  0.00  0.00    +0.000 A 
ATOM      6  C   UNL     1     -12.071   6.527 130.998  0.00  0.00    +0.000 A 
ATOM      7  N   UNL     1     -12.780   7.577 130.507  0.00  0.00    +0.000 NA
BRANCH   2   9
ATOM      8  C   UNL     1     -13.204  10.302 130.170  0.00  0.00    +0.000 C 
ATOM      9  O   UNL     1     -12.880   9.369 129.153  0.00  0.00    +0.000 OA
ENDBRANCH   2   9
ENDBRANCH   1   5
BRANCH   1  10
ATOM     10  S   UNL     1      -9.775   3.700 130.814  0.00  0.00    +0.000 S 
ATOM     11  O   UNL     1      -9.476   2.709 131.845  0.00  0.00    +0.000 OA
ATOM     12  O   UNL     1     -10.857   3.457 129.893  0.00  0.00    +0.000 OA
BRANCH  10  13
ATOM     13  C   UNL     1      -8.281   3.818 129.827  0.00  0.00    +0.000 A 
ATOM     14  C   UNL     1      -8.331   4.309 128.511  0.00  0.00    +0.000 A 
ATOM     15  C   UNL     1      -7.217   4.164 127.663  0.00  0.00    +0.000 A 
ATOM     16  C   UNL     1      -6.045   3.574 128.149  0.00  0.00    +0.000 A 
ATOM     17  C   UNL     1      -6.000   3.081 129.458  0.00  0.00    +0.000 A 
ATOM     18  C   UNL     1      -7.122   3.187 130.288  0.00  0.00    +0.000 A 
BRANCH  16  19
ATOM     19  S   UNL     1      -4.546   3.620 127.172  0.00  0.00    +0.000 S 
ATOM     20  C   UNL     1      -3.255   2.923 128.166  0.00  0.00    +0.000 C 
ATOM     21  O   UNL     1      -4.773   2.736 126.048  0.00  0.00    +0.000 OA
ATOM     22  O   UNL     1      -4.215   5.019 126.958  0.00  0.00    +0.000 OA
ENDBRANCH  16  19
ENDBRANCH  10  13
ENDBRANCH   1  10
BRANCH   1  23
ATOM     23  C   UNL     1      -9.307   5.389 132.945  0.00  0.00    +0.000 C 
BRANCH  23  24
ATOM     24  C   UNL     1      -7.892   5.983 132.932  0.00  0.00    +0.000 A 
ATOM     25  C   UNL     1      -7.353   6.448 131.729  0.00  0.00    +0.000 A 
ATOM     26  C   UNL     1      -5.963   6.515 131.595  0.00  0.00    +0.000 A 
ATOM     27  C   UNL     1      -5.123   6.116 132.645  0.00  0.00    +0.000 A 
ATOM     28  C   UNL     1      -5.753   5.756 133.833  0.00  0.00    +0.000 A 
ATOM     29  N   UNL     1      -7.107   5.749 134.019  0.00  0.00    +0.000 NA
BRANCH  27  30
ATOM     30  C   UNL     1      -3.659   6.175 132.543  0.00  0.00    +0.000 A 
ATOM     31  C   UNL     1      -2.956   7.396 132.573  0.00  0.00    +0.000 A 
ATOM     32  C   UNL     1      -1.570   7.427 132.376  0.00  0.00    +0.000 A 
ATOM     33  C   UNL     1      -0.872   6.242 132.159  0.00  0.00    +0.000 A 
ATOM     34  C   UNL     1      -1.550   5.025 132.142  0.00  0.00    +0.000 A 
ATOM     35  C   UNL     1      -2.937   4.980 132.334  0.00  0.00    +0.000 A 
ATOM     36  C   UNL     1      -3.651   3.655 132.265  0.00  0.00    +0.000 C 
ENDBRANCH  27  30
ENDBRANCH  23  24
ENDBRANCH   1  23
TORSDOF 8
ENDMDL
MODEL 5
REMARK VINA RESULT:      -8.1      3.045      6.907
REMARK  Name = CHEMBL514586
REMARK  11 active torsions:
REMARK  status: ('A' for Active; 'I' for Inactive)
REMARK    1  A    between atoms: C_1  and  O_2
REMARK    2  A    between atoms: O_2  and  C_3
REMARK    3  A    between atoms: C_6  and  N_7
REMARK    4  A    between atoms: N_7  and  C_8
REMARK    5  A    between atoms: N_7  and  S_22
REMARK    6  A    between atoms: C_8  and  C_9
REMARK    7  A    between atoms: C_12  and  C_13
REMARK    8  A    between atoms: C_18  and  C_19
REMARK    9  A    between atoms: S_22  and  C_25
REMARK   10  A    between atoms: C_28  and  S_29
REMARK   11  A    between atoms: S_29  and  C_30
REMARK                            x       y       z     vdW  Elec       q    Type
REMARK                         _______ _______ _______ _____ _____    ______ ____
ROOT
ATOM      1  N   UNL     1      -7.734   3.218 131.137  0.00  0.00    +0.000 N 
ENDROOT
BRANCH   1   5
ATOM      2  C   UNL     1      -4.063   4.737 129.517  0.00  0.00    +0.000 A 
ATOM      3  C   UNL     1      -4.007   3.677 130.407  0.00  0.00    +0.000 A 
ATOM      4  C   UNL     1      -5.196   3.161 130.960  0.00  0.00    +0.000 A 
ATOM      5  C   UNL     1      -6.436   3.671 130.594  0.00  0.00    +0.000 A 
ATOM      6  C   UNL     1      -6.323   4.559 129.535  0.00  0.00    +0.000 A 
ATOM      7  N   UNL     1      -5.219   5.187 129.053  0.00  0.00    +0.000 NA
BRANCH   2   9
ATOM      8  C   UNL     1      -2.634   4.928 127.717  0.00  0.00    +0.000 C 
ATOM      9  O   UNL     1      -2.980   5.387 129.012  0.00  0.00    +0.000 OA
ENDBRANCH   2   9
ENDBRANCH   1   5
BRANCH   1  10
ATOM     10  S   UNL     1      -8.536   4.280 132.210  0.00  0.00    +0.000 S 
ATOM     11  O   UNL     1      -9.446   3.450 132.996  0.00  0.00    +0.000 OA
ATOM     12  O   UNL     1      -7.569   5.106 132.888  0.00  0.00    +0.000 OA
BRANCH  10  13
ATOM     13  C   UNL     1      -9.597   5.393 131.284  0.00  0.00    +0.000 A 
ATOM     14  C   UNL     1     -10.842   4.956 130.800  0.00  0.00    +0.000 A 
ATOM     15  C   UNL     1     -11.550   5.740 129.869  0.00  0.00    +0.000 A 
ATOM     16  C   UNL     1     -11.033   6.977 129.466  0.00  0.00    +0.000 A 
ATOM     17  C   UNL     1      -9.791   7.407 129.945  0.00  0.00    +0.000 A 
ATOM     18  C   UNL     1      -9.068   6.607 130.838  0.00  0.00    +0.000 A 
BRANCH  16  19
ATOM     19  S   UNL     1     -12.038   8.094 128.493  0.00  0.00    +0.000 S 
ATOM     20  C   UNL     1     -13.480   7.196 127.992  0.00  0.00    +0.000 C 
ATOM     21  O   UNL     1     -12.455   9.147 129.395  0.00  0.00    +0.000 OA
ATOM     22  O   UNL     1     -11.287   8.408 127.288  0.00  0.00    +0.000 OA
ENDBRANCH  16  19
ENDBRANCH  10  13
ENDBRANCH   1  10
BRANCH   1  23
ATOM     23  C   UNL     1      -8.529   2.056 130.576  0.00  0.00    +0.000 C 
BRANCH  23  24
ATOM     24  C   UNL     1      -7.995   1.285 129.362  0.00  0.00    +0.000 A 
ATOM     25  C   UNL     1      -8.414   1.647 128.079  0.00  0.00    +0.000 A 
ATOM     26  C   UNL     1      -8.352   0.696 127.056  0.00  0.00    +0.000 A 
ATOM     27  C   UNL     1      -7.886  -0.601 127.313  0.00  0.00    +0.000 A 
ATOM     28  C   UNL     1      -7.406  -0.839 128.598  0.00  0.00    +0.000 A 
ATOM     29  N   UNL     1      -7.385   0.091 129.600  0.00  0.00    +0.000 NA
BRANCH  27  30
ATOM     30  C   UNL     1      -7.803  -1.627 126.265  0.00  0.00    +0.000 A 
ATOM     31  C   UNL     1      -8.844  -2.550 126.038  0.00  0.00    +0.000 A 
ATOM     32  C   UNL     1      -8.696  -3.575 125.097  0.00  0.00    +0.000 A 
ATOM     33  C   UNL     1      -7.514  -3.685 124.367  0.00  0.00    +0.000 A 
ATOM     34  C   UNL     1      -6.482  -2.771 124.569  0.00  0.00    +0.000 A 
ATOM     35  C   UNL     1      -6.615  -1.742 125.510  0.00  0.00    +0.000 A 
ATOM     36  C   UNL     1      -5.465  -0.796 125.741  0.00  0.00    +0.000 C 
ENDBRANCH  27  30
ENDBRANCH  23  24
ENDBRANCH   1  23
TORSDOF 8
ENDMDL
MODEL 6
REMARK VINA RESULT:      -8.0      3.397      7.072
REMARK  Name = CHEMBL514586
REMARK  11 active torsions:
REMARK  status: ('A' for Active; 'I' for Inactive)
REMARK    1  A    between atoms: C_1  and  O_2
REMARK    2  A    between atoms: O_2  and  C_3
REMARK    3  A    between atoms: C_6  and  N_7
REMARK    4  A    between atoms: N_7  and  C_8
REMARK    5  A    between atoms: N_7  and  S_22
REMARK    6  A    between atoms: C_8  and  C_9
REMARK    7  A    between atoms: C_12  and  C_13
REMARK    8  A    between atoms: C_18  and  C_19
REMARK    9  A    between atoms: S_22  and  C_25
REMARK   10  A    between atoms: C_28  and  S_29
REMARK   11  A    between atoms: S_29  and  C_30
REMARK                            x       y       z     vdW  Elec       q    Type
REMARK                         _______ _______ _______ _____ _____    ______ ____
ROOT
ATOM      1  N   UNL     1      -6.229   2.331 130.769  0.00  0.00    +0.000 N 
ENDROOT
BRANCH   1   5
ATOM      2  C   UNL     1      -4.128   5.353 128.565  0.00  0.00    +0.000 A 
ATOM      3  C   UNL     1      -3.425   4.596 129.488  0.00  0.00    +0.000 A 
ATOM      4  C   UNL     1      -4.090   3.600 130.231  0.00  0.00    +0.000 A 
ATOM      5  C   UNL     1      -5.438   3.332 130.023  0.00  0.00    +0.000 A 
ATOM      6  C   UNL     1      -5.923   4.014 128.918  0.00  0.00    +0.000 A 
ATOM      7  N   UNL     1      -5.383   5.067 128.251  0.00  0.00    +0.000 NA
BRANCH   2   9
ATOM      8  C   UNL     1      -2.275   6.686 128.233  0.00  0.00    +0.000 C 
ATOM      9  O   UNL     1      -3.620   6.411 127.878  0.00  0.00    +0.000 OA
ENDBRANCH   2   9
ENDBRANCH   1   5
BRANCH   1  10
ATOM     10  S   UNL     1      -7.276   2.922 131.986  0.00  0.00    +0.000 S 
ATOM     11  O   UNL     1      -8.062   1.776 132.435  0.00  0.00    +0.000 OA
ATOM     12  O   UNL     1      -6.518   3.681 132.949  0.00  0.00    +0.000 OA
BRANCH  10  13
ATOM     13  C   UNL     1      -8.466   4.055 131.264  0.00  0.00    +0.000 A 
ATOM     14  C   UNL     1      -8.308   5.444 131.408  0.00  0.00    +0.000 A 
ATOM     15  C   UNL     1      -9.363   6.312 131.066  0.00  0.00    +0.000 A 
ATOM     16  C   UNL     1     -10.549   5.790 130.537  0.00  0.00    +0.000 A 
ATOM     17  C   UNL     1     -10.705   4.405 130.400  0.00  0.00    +0.000 A 
ATOM     18  C   UNL     1      -9.672   3.541 130.780  0.00  0.00    +0.000 A 
BRANCH  16  19
ATOM     19  S   UNL     1     -11.788   6.888 129.858  0.00  0.00    +0.000 S 
ATOM     20  C   UNL     1     -12.880   7.323 131.183  0.00  0.00    +0.000 C 
ATOM     21  O   UNL     1     -11.082   8.084 129.447  0.00  0.00    +0.000 OA
ATOM     22  O   UNL     1     -12.563   6.121 128.897  0.00  0.00    +0.000 OA
ENDBRANCH  16  19
ENDBRANCH  10  13
ENDBRANCH   1  10
BRANCH   1  23
ATOM     23  C   UNL     1      -6.410   0.892 130.328  0.00  0.00    +0.000 C 
BRANCH  23  24
ATOM     24  C   UNL     1      -6.701   0.581 128.854  0.00  0.00    +0.000 A 
ATOM     25  C   UNL     1      -7.938   0.936 128.307  0.00  0.00    +0.000 A 
ATOM     26  C   UNL     1      -8.399   0.247 127.181  0.00  0.00    +0.000 A 
ATOM     27  C   UNL     1      -7.640  -0.786 126.614  0.00  0.00    +0.000 A 
ATOM     28  C   UNL     1      -6.383  -1.004 127.173  0.00  0.00    +0.000 A 
ATOM     29  N   UNL     1      -5.874  -0.300 128.227  0.00  0.00    +0.000 NA
BRANCH  27  30
ATOM     30  C   UNL     1      -8.089  -1.530 125.430  0.00  0.00    +0.000 A 
ATOM     31  C   UNL     1      -7.988  -0.997 124.129  0.00  0.00    +0.000 A 
ATOM     32  C   UNL     1      -8.513  -1.689 123.031  0.00  0.00    +0.000 A 
ATOM     33  C   UNL     1      -9.135  -2.921 123.218  0.00  0.00    +0.000 A 
ATOM     34  C   UNL     1      -9.229  -3.469 124.496  0.00  0.00    +0.000 A 
ATOM     35  C   UNL     1      -8.711  -2.786 125.603  0.00  0.00    +0.000 A 
ATOM     36  C   UNL     1      -8.868  -3.380 126.980  0.00  0.00    +0.000 C 
ENDBRANCH  27  30
ENDBRANCH  23  24
ENDBRANCH   1  23
TORSDOF 8
ENDMDL
MODEL 7
REMARK VINA RESULT:      -8.0      3.320      6.523
REMARK  Name = CHEMBL514586
REMARK  11 active torsions:
REMARK  status: ('A' for Active; 'I' for Inactive)
REMARK    1  A    between atoms: C_1  and  O_2
REMARK    2  A    between atoms: O_2  and  C_3
REMARK    3  A    between atoms: C_6  and  N_7
REMARK    4  A    between atoms: N_7  and  C_8
REMARK    5  A    between atoms: N_7  and  S_22
REMARK    6  A    between atoms: C_8  and  C_9
REMARK    7  A    between atoms: C_12  and  C_13
REMARK    8  A    between atoms: C_18  and  C_19
REMARK    9  A    between atoms: S_22  and  C_25
REMARK   10  A    between atoms: C_28  and  S_29
REMARK   11  A    between atoms: S_29  and  C_30
REMARK                            x       y       z     vdW  Elec       q    Type
REMARK                         _______ _______ _______ _____ _____    ______ ____
ROOT
ATOM      1  N   UNL     1      -7.185   3.538 132.296  0.00  0.00    +0.000 N 
ENDROOT
BRANCH   1   5
ATOM      2  C   UNL     1      -6.122   4.510 128.254  0.00  0.00    +0.000 A 
ATOM      3  C   UNL     1      -7.220   3.693 128.473  0.00  0.00    +0.000 A 
ATOM      4  C   UNL     1      -7.589   3.352 129.790  0.00  0.00    +0.000 A 
ATOM      5  C   UNL     1      -6.894   3.858 130.882  0.00  0.00    +0.000 A 
ATOM      6  C   UNL     1      -5.982   4.828 130.494  0.00  0.00    +0.000 A 
ATOM      7  N   UNL     1      -5.494   5.104 129.257  0.00  0.00    +0.000 NA
BRANCH   2   9
ATOM      8  C   UNL     1      -4.217   5.076 127.084  0.00  0.00    +0.000 C 
ATOM      9  O   UNL     1      -5.608   4.810 127.031  0.00  0.00    +0.000 OA
ENDBRANCH   2   9
ENDBRANCH   1   5
BRANCH   1  10
ATOM     10  S   UNL     1      -8.312   4.541 133.100  0.00  0.00    +0.000 S 
ATOM     11  O   UNL     1      -9.246   3.642 133.772  0.00  0.00    +0.000 OA
ATOM     12  O   UNL     1      -7.611   5.537 133.871  0.00  0.00    +0.000 OA
BRANCH  10  13
ATOM     13  C   UNL     1      -9.301   5.432 131.895  0.00  0.00    +0.000 A 
ATOM     14  C   UNL     1     -10.412   4.820 131.290  0.00  0.00    +0.000 A 
ATOM     15  C   UNL     1     -11.026   5.420 130.174  0.00  0.00    +0.000 A 
ATOM     16  C   UNL     1     -10.556   6.651 129.701  0.00  0.00    +0.000 A 
ATOM     17  C   UNL     1      -9.445   7.255 130.302  0.00  0.00    +0.000 A 
ATOM     18  C   UNL     1      -8.810   6.637 131.385  0.00  0.00    +0.000 A 
BRANCH  16  19
ATOM     19  S   UNL     1     -11.482   7.547 128.459  0.00  0.00    +0.000 S 
ATOM     20  C   UNL     1     -12.769   8.425 129.301  0.00  0.00    +0.000 C 
ATOM     21  O   UNL     1     -10.566   8.520 127.900  0.00  0.00    +0.000 OA
ATOM     22  O   UNL     1     -12.122   6.560 127.605  0.00  0.00    +0.000 OA
ENDBRANCH  16  19
ENDBRANCH  10  13
ENDBRANCH   1  10
BRANCH   1  23
ATOM     23  C   UNL     1      -6.808   2.231 132.965  0.00  0.00    +0.000 C 
BRANCH  23  24
ATOM     24  C   UNL     1      -7.039   0.906 132.227  0.00  0.00    +0.000 A 
ATOM     25  C   UNL     1      -5.998   0.344 131.482  0.00  0.00    +0.000 A 
ATOM     26  C   UNL     1      -6.313  -0.539 130.445  0.00  0.00    +0.000 A 
ATOM     27  C   UNL     1      -7.648  -0.849 130.149  0.00  0.00    +0.000 A 
ATOM     28  C   UNL     1      -8.607  -0.313 131.003  0.00  0.00    +0.000 A 
ATOM     29  N   UNL     1      -8.328   0.495 132.070  0.00  0.00    +0.000 NA
BRANCH  27  30
ATOM     30  C   UNL     1      -8.018  -1.774 129.070  0.00  0.00    +0.000 A 
ATOM     31  C   UNL     1      -8.354  -3.120 129.320  0.00  0.00    +0.000 A 
ATOM     32  C   UNL     1      -8.607  -4.001 128.262  0.00  0.00    +0.000 A 
ATOM     33  C   UNL     1      -8.538  -3.547 126.947  0.00  0.00    +0.000 A 
ATOM     34  C   UNL     1      -8.223  -2.216 126.684  0.00  0.00    +0.000 A 
ATOM     35  C   UNL     1      -7.963  -1.324 127.732  0.00  0.00    +0.000 A 
ATOM     36  C   UNL     1      -7.579   0.099 127.417  0.00  0.00    +0.000 C 
ENDBRANCH  27  30
ENDBRANCH  23  24
ENDBRANCH   1  23
TORSDOF 8
ENDMDL
MODEL 8
REMARK VINA RESULT:      -7.9      3.508      6.743
REMARK  Name = CHEMBL514586
REMARK  11 active torsions:
REMARK  status: ('A' for Active; 'I' for Inactive)
REMARK    1  A    between atoms: C_1  and  O_2
REMARK    2  A    between atoms: O_2  and  C_3
REMARK    3  A    between atoms: C_6  and  N_7
REMARK    4  A    between atoms: N_7  and  C_8
REMARK    5  A    between atoms: N_7  and  S_22
REMARK    6  A    between atoms: C_8  and  C_9
REMARK    7  A    between atoms: C_12  and  C_13
REMARK    8  A    between atoms: C_18  and  C_19
REMARK    9  A    between atoms: S_22  and  C_25
REMARK   10  A    between atoms: C_28  and  S_29
REMARK   11  A    between atoms: S_29  and  C_30
REMARK                            x       y       z     vdW  Elec       q    Type
REMARK                         _______ _______ _______ _____ _____    ______ ____
ROOT
ATOM      1  N   UNL     1      -5.458   3.754 131.014  0.00  0.00    +0.000 N 
ENDROOT
BRANCH   1   5
ATOM      2  C   UNL     1      -5.639   4.564 126.805  0.00  0.00    +0.000 A 
ATOM      3  C   UNL     1      -6.599   3.735 127.363  0.00  0.00    +0.000 A 
ATOM      4  C   UNL     1      -6.562   3.447 128.742  0.00  0.00    +0.000 A 
ATOM      5  C   UNL     1      -5.598   4.015 129.566  0.00  0.00    +0.000 A 
ATOM      6  C   UNL     1      -4.869   4.986 128.895  0.00  0.00    +0.000 A 
ATOM      7  N   UNL     1      -4.767   5.216 127.560  0.00  0.00    +0.000 NA
BRANCH   2   9
ATOM      8  C   UNL     1      -6.595   4.306 124.721  0.00  0.00    +0.000 C 
ATOM      9  O   UNL     1      -5.509   4.819 125.475  0.00  0.00    +0.000 OA
ENDBRANCH   2   9
ENDBRANCH   1   5
BRANCH   1  10
ATOM     10  S   UNL     1      -6.215   4.858 132.077  0.00  0.00    +0.000 S 
ATOM     11  O   UNL     1      -6.525   4.106 133.290  0.00  0.00    +0.000 OA
ATOM     12  O   UNL     1      -5.423   6.059 132.173  0.00  0.00    +0.000 OA
BRANCH  10  13
ATOM     13  C   UNL     1      -7.807   5.350 131.409  0.00  0.00    +0.000 A 
ATOM     14  C   UNL     1      -8.009   6.656 130.931  0.00  0.00    +0.000 A 
ATOM     15  C   UNL     1      -9.311   7.109 130.647  0.00  0.00    +0.000 A 
ATOM     16  C   UNL     1     -10.398   6.238 130.795  0.00  0.00    +0.000 A 
ATOM     17  C   UNL     1     -10.194   4.940 131.276  0.00  0.00    +0.000 A 
ATOM     18  C   UNL     1      -8.903   4.504 131.599  0.00  0.00    +0.000 A 
BRANCH  16  19
ATOM     19  S   UNL     1     -12.015   6.712 130.193  0.00  0.00    +0.000 S 
ATOM     20  C   UNL     1     -11.847   8.313 129.454  0.00  0.00    +0.000 C 
ATOM     21  O   UNL     1     -12.347   5.767 129.147  0.00  0.00    +0.000 OA
ATOM     22  O   UNL     1     -12.878   6.862 131.353  0.00  0.00    +0.000 OA
ENDBRANCH  16  19
ENDBRANCH  10  13
ENDBRANCH   1  10
BRANCH   1  23
ATOM     23  C   UNL     1      -4.977   2.440 131.596  0.00  0.00    +0.000 C 
BRANCH  23  24
ATOM     24  C   UNL     1      -5.551   1.119 131.066  0.00  0.00    +0.000 A 
ATOM     25  C   UNL     1      -4.771   0.320 130.225  0.00  0.00    +0.000 A 
ATOM     26  C   UNL     1      -5.411  -0.577 129.365  0.00  0.00    +0.000 A 
ATOM     27  C   UNL     1      -6.810  -0.669 129.338  0.00  0.00    +0.000 A 
ATOM     28  C   UNL     1      -7.494   0.100 130.275  0.00  0.00    +0.000 A 
ATOM     29  N   UNL     1      -6.895   0.932 131.178  0.00  0.00    +0.000 NA
BRANCH  27  30
ATOM     30  C   UNL     1      -7.518  -1.601 128.451  0.00  0.00    +0.000 A 
ATOM     31  C   UNL     1      -7.932  -1.231 127.155  0.00  0.00    +0.000 A 
ATOM     32  C   UNL     1      -8.689  -2.109 126.370  0.00  0.00    +0.000 A 
ATOM     33  C   UNL     1      -9.031  -3.366 126.864  0.00  0.00    +0.000 A 
ATOM     34  C   UNL     1      -8.616  -3.752 128.137  0.00  0.00    +0.000 A 
ATOM     35  C   UNL     1      -7.862  -2.882 128.934  0.00  0.00    +0.000 A 
ATOM     36  C   UNL     1      -7.466  -3.308 130.325  0.00  0.00    +0.000 C 
ENDBRANCH  27  30
ENDBRANCH  23  24
ENDBRANCH   1  23
TORSDOF 8
ENDMDL
MODEL 9
REMARK VINA RESULT:      -7.8      4.410      7.491
REMARK  Name = CHEMBL514586
REMARK  11 active torsions:
REMARK  status: ('A' for Active; 'I' for Inactive)
REMARK    1  A    between atoms: C_1  and  O_2
REMARK    2  A    between atoms: O_2  and  C_3
REMARK    3  A    between atoms: C_6  and  N_7
REMARK    4  A    between atoms: N_7  and  C_8
REMARK    5  A    between atoms: N_7  and  S_22
REMARK    6  A    between atoms: C_8  and  C_9
REMARK    7  A    between atoms: C_12  and  C_13
REMARK    8  A    between atoms: C_18  and  C_19
REMARK    9  A    between atoms: S_22  and  C_25
REMARK   10  A    between atoms: C_28  and  S_29
REMARK   11  A    between atoms: S_29  and  C_30
REMARK                            x       y       z     vdW  Elec       q    Type
REMARK                         _______ _______ _______ _____ _____    ______ ____
ROOT
ATOM      1  N   UNL     1      -6.349   3.543 125.216  0.00  0.00    +0.000 N 
ENDROOT
BRANCH   1   5
ATOM      2  C   UNL     1      -6.172   4.105 120.966  0.00  0.00    +0.000 A 
ATOM      3  C   UNL     1      -5.089   4.504 121.734  0.00  0.00    +0.000 A 
ATOM      4  C   UNL     1      -5.122   4.337 123.133  0.00  0.00    +0.000 A 
ATOM      5  C   UNL     1      -6.208   3.737 123.757  0.00  0.00    +0.000 A 
ATOM      6  C   UNL     1      -7.087   3.197 122.830  0.00  0.00    +0.000 A 
ATOM      7  N   UNL     1      -7.182   3.431 121.496  0.00  0.00    +0.000 NA
BRANCH   2   9
ATOM      8  C   UNL     1      -5.646   5.508 119.212  0.00  0.00    +0.000 C 
ATOM      9  O   UNL     1      -6.298   4.320 119.629  0.00  0.00    +0.000 OA
ENDBRANCH   2   9
ENDBRANCH   1   5
BRANCH   1  10
ATOM     10  S   UNL     1      -7.869   3.918 125.903  0.00  0.00    +0.000 S 
ATOM     11  O   UNL     1      -7.900   5.371 126.049  0.00  0.00    +0.000 OA
ATOM     12  O   UNL     1      -8.913   3.260 125.158  0.00  0.00    +0.000 OA
BRANCH  10  13
ATOM     13  C   UNL     1      -7.954   3.275 127.577  0.00  0.00    +0.000 A 
ATOM     14  C   UNL     1      -7.492   4.040 128.661  0.00  0.00    +0.000 A 
ATOM     15  C   UNL     1      -7.327   3.443 129.925  0.00  0.00    +0.000 A 
ATOM     16  C   UNL     1      -7.671   2.098 130.109  0.00  0.00    +0.000 A 
ATOM     17  C   UNL     1      -8.125   1.337 129.026  0.00  0.00    +0.000 A 
ATOM     18  C   UNL     1      -8.249   1.921 127.760  0.00  0.00    +0.000 A 
BRANCH  16  19
ATOM     19  S   UNL     1      -7.714   1.401 131.757  0.00  0.00    +0.000 S 
ATOM     20  C   UNL     1      -7.124  -0.265 131.633  0.00  0.00    +0.000 C 
ATOM     21  O   UNL     1      -6.759   2.158 132.538  0.00  0.00    +0.000 OA
ATOM     22  O   UNL     1      -9.109   1.334 132.158  0.00  0.00    +0.000 OA
ENDBRANCH  16  19
ENDBRANCH  10  13
ENDBRANCH   1  10
BRANCH   1  23
ATOM     23  C   UNL     1      -5.372   2.756 126.065  0.00  0.00    +0.000 C 
BRANCH  23  24
ATOM     24  C   UNL     1      -4.403   3.499 126.994  0.00  0.00    +0.000 A 
ATOM     25  C   UNL     1      -3.970   2.883 128.172  0.00  0.00    +0.000 A 
ATOM     26  C   UNL     1      -3.524   3.684 129.227  0.00  0.00    +0.000 A 
ATOM     27  C   UNL     1      -3.519   5.081 129.112  0.00  0.00    +0.000 A 
ATOM     28  C   UNL     1      -3.881   5.597 127.871  0.00  0.00    +0.000 A 
ATOM     29  N   UNL     1      -4.253   4.838 126.796  0.00  0.00    +0.000 NA
BRANCH  27  30
ATOM     30  C   UNL     1      -3.055   5.955 130.197  0.00  0.00    +0.000 A 
ATOM     31  C   UNL     1      -1.691   6.075 130.530  0.00  0.00    +0.000 A 
ATOM     32  C   UNL     1      -1.289   6.841 131.631  0.00  0.00    +0.000 A 
ATOM     33  C   UNL     1      -2.241   7.502 132.404  0.00  0.00    +0.000 A 
ATOM     34  C   UNL     1      -3.593   7.406 132.078  0.00  0.00    +0.000 A 
ATOM     35  C   UNL     1      -4.009   6.640 130.982  0.00  0.00    +0.000 A 
ATOM     36  C   UNL     1      -5.480   6.517 130.681  0.00  0.00    +0.000 C 
ENDBRANCH  27  30
ENDBRANCH  23  24
ENDBRANCH   1  23
TORSDOF 8
ENDMDL
