MODEL 1
REMARK VINA RESULT:      -7.2      0.000      0.000
REMARK  Name = CHEMBL1643586
REMARK  14 active torsions:
REMARK  status: ('A' for Active; 'I' for Inactive)
REMARK    1  A    between atoms: C_1  and  C_2
REMARK    2  A    between atoms: C_2  and  N_3
REMARK    3  A    between atoms: N_3  and  C_4
REMARK    4  A    between atoms: N_3  and  C_6
REMARK    5  A    between atoms: C_4  and  C_5
REMARK    6  A    between atoms: C_6  and  C_7
REMARK    7  A    between atoms: C_10  and  C_11
REMARK    8  A    between atoms: C_13  and  C_14
REMARK    9  A    between atoms: C_14  and  N_15
REMARK   10  A    between atoms: N_15  and  C_16
REMARK   11  A    between atoms: N_15  and  S_21
REMARK   12  A    between atoms: S_21  and  C_24
REMARK   13  A    between atoms: C_27  and  O_28
REMARK   14  A    between atoms: O_28  and  C_29
REMARK                            x       y       z     vdW  Elec       q    Type
REMARK                         _______ _______ _______ _____ _____    ______ ____
ROOT
ATOM      1  C   UNL     1      -7.940   1.018 123.227  0.00  0.00    +0.000 C 
ENDROOT
BRANCH   1   4
ATOM      2  C   UNL     1      -6.848  -1.585 125.583  0.00  0.00    +0.000 A 
ATOM      3  N   UNL     1      -7.674  -0.639 125.168  0.00  0.00    +0.000 NA
ATOM      4  C   UNL     1      -7.402  -0.279 123.839  0.00  0.00    +0.000 A 
ATOM      5  C   UNL     1      -6.470  -1.106 123.231  0.00  0.00    +0.000 A 
ATOM      6  S   UNL     1      -5.858  -2.258 124.345  0.00  0.00    +0.000 S 
BRANCH   2  10
ATOM      7  C   UNL     1      -6.562  -2.967 129.638  0.00  0.00    +0.000 A 
ATOM      8  C   UNL     1      -7.823  -2.776 129.067  0.00  0.00    +0.000 A 
ATOM      9  C   UNL     1      -7.935  -2.415 127.715  0.00  0.00    +0.000 A 
ATOM     10  C   UNL     1      -6.790  -2.116 126.953  0.00  0.00    +0.000 A 
ATOM     11  C   UNL     1      -5.534  -2.305 127.534  0.00  0.00    +0.000 A 
ATOM     12  C   UNL     1      -5.422  -2.737 128.853  0.00  0.00    +0.000 A 
BRANCH   7  13
ATOM     13  C   UNL     1      -6.400  -3.391 131.086  0.00  0.00    +0.000 C 
BRANCH  13  14
ATOM     14  N   UNL     1      -5.695  -2.400 131.945  0.00  0.00    +0.000 NA
BRANCH  14  16
ATOM     15  C   UNL     1      -7.811  -2.849 133.276  0.00  0.00    +0.000 C 
ATOM     16  C   UNL     1      -6.662  -1.904 132.950  0.00  0.00    +0.000 C 
ENDBRANCH  14  16
BRANCH  14  17
ATOM     17  C   UNL     1      -4.496  -3.025 132.547  0.00  0.00    +0.000 C 
ATOM     18  C   UNL     1      -4.408  -4.541 132.486  0.00  0.00    +0.000 C 
ENDBRANCH  14  17
ENDBRANCH  13  14
ENDBRANCH   7  13
ENDBRANCH   2  10
ENDBRANCH   1   4
BRANCH   1  19
ATOM     19  N   UNL     1      -7.438   2.283 123.888  0.00  0.00    +0.000 NA
BRANCH  19  20
ATOM     20  C   UNL     1      -6.884   3.289 122.894  0.00  0.00    +0.000 C 
ATOM     21  C   UNL     1      -5.618   4.036 123.320  0.00  0.00    +0.000 C 
ATOM     22  C   UNL     1      -4.980   4.573 122.062  0.00  0.00    +0.000 C 
ATOM     23  C   UNL     1      -5.322   3.583 120.992  0.00  0.00    +0.000 C 
ATOM     24  C   UNL     1      -6.371   2.701 121.607  0.00  0.00    +0.000 C 
ENDBRANCH  19  20
BRANCH  19  25
ATOM     25  S   UNL     1      -8.482   2.771 125.195  0.00  0.00    +0.000 S 
ATOM     26  O   UNL     1      -8.557   4.226 125.191  0.00  0.00    +0.000 OA
ATOM     27  O   UNL     1      -9.706   2.019 125.061  0.00  0.00    +0.000 OA
BRANCH  25  28
ATOM     28  C   UNL     1      -7.707   2.225 126.738  0.00  0.00    +0.000 A 
ATOM     29  C   UNL     1      -6.332   2.267 126.992  0.00  0.00    +0.000 A 
ATOM     30  C   UNL     1      -5.771   1.504 128.024  0.00  0.00    +0.000 A 
ATOM     31  C   UNL     1      -6.589   1.011 129.027  0.00  0.00    +0.000 A 
ATOM     32  C   UNL     1      -7.970   1.171 128.902  0.00  0.00    +0.000 A 
ATOM     33  C   UNL     1      -8.530   1.745 127.751  0.00  0.00    +0.000 A 
BRANCH  31  34
ATOM     34  O   UNL     1      -5.939   0.449 130.090  0.00  0.00    +0.000 OA
ATOM     35  C   UNL     1      -4.524   0.609 130.093  0.00  0.00    +0.000 C 
ENDBRANCH  31  34
ENDBRANCH  25  28
ENDBRANCH  19  25
ENDBRANCH   1  19
TORSDOF 11
ENDMDL
MODEL 2
REMARK VINA RESULT:      -7.2      2.200      5.287
REMARK  Name = CHEMBL1643586
REMARK  14 active torsions:
REMARK  status: ('A' for Active; 'I' for Inactive)
REMARK    1  A    between atoms: C_1  and  C_2
REMARK    2  A    between atoms: C_2  and  N_3
REMARK    3  A    between atoms: N_3  and  C_4
REMARK    4  A    between atoms: N_3  and  C_6
REMARK    5  A    between atoms: C_4  and  C_5
REMARK    6  A    between atoms: C_6  and  C_7
REMARK    7  A    between atoms: C_10  and  C_11
REMARK    8  A    between atoms: C_13  and  C_14
REMARK    9  A    between atoms: C_14  and  N_15
REMARK   10  A    between atoms: N_15  and  C_16
REMARK   11  A    between atoms: N_15  and  S_21
REMARK   12  A    between atoms: S_21  and  C_24
REMARK   13  A    between atoms: C_27  and  O_28
REMARK   14  A    between atoms: O_28  and  C_29
REMARK                            x       y       z     vdW  Elec       q    Type
REMARK                         _______ _______ _______ _____ _____    ______ ____
ROOT
ATOM      1  C   UNL     1      -8.760   0.895 125.752  0.00  0.00    +0.000 C 
ENDROOT
BRANCH   1   4
ATOM      2  C   UNL     1      -7.627  -0.489 128.965  0.00  0.00    +0.000 A 
ATOM      3  N   UNL     1      -7.677  -0.459 127.644  0.00  0.00    +0.000 NA
ATOM      4  C   UNL     1      -8.245   0.739 127.186  0.00  0.00    +0.000 A 
ATOM      5  C   UNL     1      -8.451   1.665 128.198  0.00  0.00    +0.000 A 
ATOM      6  S   UNL     1      -8.038   1.000 129.725  0.00  0.00    +0.000 S 
BRANCH   2  10
ATOM      7  C   UNL     1      -6.144  -3.799 131.264  0.00  0.00    +0.000 A 
ATOM      8  C   UNL     1      -6.946  -2.838 131.885  0.00  0.00    +0.000 A 
ATOM      9  C   UNL     1      -7.515  -1.801 131.129  0.00  0.00    +0.000 A 
ATOM     10  C   UNL     1      -7.188  -1.639 129.769  0.00  0.00    +0.000 A 
ATOM     11  C   UNL     1      -6.381  -2.602 129.158  0.00  0.00    +0.000 A 
ATOM     12  C   UNL     1      -5.878  -3.673 129.891  0.00  0.00    +0.000 A 
BRANCH   7  13
ATOM     13  C   UNL     1      -5.538  -4.953 132.039  0.00  0.00    +0.000 C 
BRANCH  13  14
ATOM     14  N   UNL     1      -4.898  -4.566 133.326  0.00  0.00    +0.000 NA
BRANCH  14  16
ATOM     15  C   UNL     1      -6.722  -5.600 134.762  0.00  0.00    +0.000 C 
ATOM     16  C   UNL     1      -5.259  -5.587 134.336  0.00  0.00    +0.000 C 
ENDBRANCH  14  16
BRANCH  14  17
ATOM     17  C   UNL     1      -3.438  -4.426 133.135  0.00  0.00    +0.000 C 
ATOM     18  C   UNL     1      -2.553  -5.445 133.832  0.00  0.00    +0.000 C 
ENDBRANCH  14  17
ENDBRANCH  13  14
ENDBRANCH   7  13
ENDBRANCH   2  10
ENDBRANCH   1   4
BRANCH   1  19
ATOM     19  N   UNL     1      -7.701   1.270 124.739  0.00  0.00    +0.000 NA
BRANCH  19  20
ATOM     20  C   UNL     1      -7.625   0.296 123.576  0.00  0.00    +0.000 C 
ATOM     21  C   UNL     1      -6.647  -0.871 123.730  0.00  0.00    +0.000 C 
ATOM     22  C   UNL     1      -7.076  -1.936 122.750  0.00  0.00    +0.000 C 
ATOM     23  C   UNL     1      -8.564  -1.800 122.645  0.00  0.00    +0.000 C 
ATOM     24  C   UNL     1      -8.879  -0.497 123.322  0.00  0.00    +0.000 C 
ENDBRANCH  19  20
BRANCH  19  25
ATOM     25  S   UNL     1      -7.643   2.993 124.493  0.00  0.00    +0.000 S 
ATOM     26  O   UNL     1      -8.928   3.549 124.896  0.00  0.00    +0.000 OA
ATOM     27  O   UNL     1      -6.451   3.474 125.148  0.00  0.00    +0.000 OA
BRANCH  25  28
ATOM     28  C   UNL     1      -7.407   3.279 122.720  0.00  0.00    +0.000 A 
ATOM     29  C   UNL     1      -6.161   3.371 122.092  0.00  0.00    +0.000 A 
ATOM     30  C   UNL     1      -6.040   3.952 120.823  0.00  0.00    +0.000 A 
ATOM     31  C   UNL     1      -7.165   4.088 120.028  0.00  0.00    +0.000 A 
ATOM     32  C   UNL     1      -8.410   3.771 120.573  0.00  0.00    +0.000 A 
ATOM     33  C   UNL     1      -8.537   3.400 121.919  0.00  0.00    +0.000 A 
BRANCH  31  34
ATOM     34  O   UNL     1      -6.928   4.481 118.739  0.00  0.00    +0.000 OA
ATOM     35  C   UNL     1      -6.088   5.620 118.594  0.00  0.00    +0.000 C 
ENDBRANCH  31  34
ENDBRANCH  25  28
ENDBRANCH  19  25
ENDBRANCH   1  19
TORSDOF 11
ENDMDL
MODEL 3
REMARK VINA RESULT:      -7.1      2.329      4.938
REMARK  Name = CHEMBL1643586
REMARK  14 active torsions:
REMARK  status: ('A' for Active; 'I' for Inactive)
REMARK    1  A    between atoms: C_1  and  C_2
REMARK    2  A    between atoms: C_2  and  N_3
REMARK    3  A    between atoms: N_3  and  C_4
REMARK    4  A    between atoms: N_3  and  C_6
REMARK    5  A    between atoms: C_4  and  C_5
REMARK    6  A    between atoms: C_6  and  C_7
REMARK    7  A    between atoms: C_10  and  C_11
REMARK    8  A    between atoms: C_13  and  C_14
REMARK    9  A    between atoms: C_14  and  N_15
REMARK   10  A    between atoms: N_15  and  C_16
REMARK   11  A    between atoms: N_15  and  S_21
REMARK   12  A    between atoms: S_21  and  C_24
REMARK   13  A    between atoms: C_27  and  O_28
REMARK   14  A    between atoms: O_28  and  C_29
REMARK                            x       y       z     vdW  Elec       q    Type
REMARK                         _______ _______ _______ _____ _____    ______ ____
ROOT
ATOM      1  C   UNL     1      -8.898   0.015 125.301  0.00  0.00    +0.000 C 
ENDROOT
BRANCH   1   4
ATOM      2  C   UNL     1      -7.733  -2.466 127.751  0.00  0.00    +0.000 A 
ATOM      3  N   UNL     1      -7.920  -1.231 127.320  0.00  0.00    +0.000 NA
ATOM      4  C   UNL     1      -8.791  -1.205 126.221  0.00  0.00    +0.000 A 
ATOM      5  C   UNL     1      -9.379  -2.435 125.964  0.00  0.00    +0.000 A 
ATOM      6  S   UNL     1      -8.763  -3.637 127.022  0.00  0.00    +0.000 S 
BRANCH   2  10
ATOM      7  C   UNL     1      -5.101  -3.801 130.871  0.00  0.00    +0.000 A 
ATOM      8  C   UNL     1      -4.560  -3.345 129.666  0.00  0.00    +0.000 A 
ATOM      9  C   UNL     1      -5.399  -2.818 128.673  0.00  0.00    +0.000 A 
ATOM     10  C   UNL     1      -6.799  -2.859 128.817  0.00  0.00    +0.000 A 
ATOM     11  C   UNL     1      -7.332  -3.321 130.023  0.00  0.00    +0.000 A 
ATOM     12  C   UNL     1      -6.494  -3.774 131.040  0.00  0.00    +0.000 A 
BRANCH   7  13
ATOM     13  C   UNL     1      -4.225  -4.345 131.984  0.00  0.00    +0.000 C 
BRANCH  13  14
ATOM     14  N   UNL     1      -4.578  -3.856 133.344  0.00  0.00    +0.000 NA
BRANCH  14  16
ATOM     15  C   UNL     1      -6.335  -5.364 134.390  0.00  0.00    +0.000 C 
ATOM     16  C   UNL     1      -4.860  -5.038 134.191  0.00  0.00    +0.000 C 
ENDBRANCH  14  16
BRANCH  14  17
ATOM     17  C   UNL     1      -3.483  -3.011 133.870  0.00  0.00    +0.000 C 
ATOM     18  C   UNL     1      -3.322  -1.633 133.253  0.00  0.00    +0.000 C 
ENDBRANCH  14  17
ENDBRANCH  13  14
ENDBRANCH   7  13
ENDBRANCH   2  10
ENDBRANCH   1   4
BRANCH   1  19
ATOM     19  N   UNL     1      -7.577   0.670 124.966  0.00  0.00    +0.000 NA
BRANCH  19  20
ATOM     20  C   UNL     1      -6.773  -0.112 123.942  0.00  0.00    +0.000 C 
ATOM     21  C   UNL     1      -5.908  -1.251 124.485  0.00  0.00    +0.000 C 
ATOM     22  C   UNL     1      -5.613  -2.170 123.324  0.00  0.00    +0.000 C 
ATOM     23  C   UNL     1      -6.812  -2.076 122.431  0.00  0.00    +0.000 C 
ATOM     24  C   UNL     1      -7.590  -0.904 122.957  0.00  0.00    +0.000 C 
ENDBRANCH  19  20
BRANCH  19  25
ATOM     25  S   UNL     1      -7.735   2.402 124.874  0.00  0.00    +0.000 S 
ATOM     26  O   UNL     1      -9.096   2.752 125.260  0.00  0.00    +0.000 OA
ATOM     27  O   UNL     1      -6.641   2.967 125.627  0.00  0.00    +0.000 OA
BRANCH  25  28
ATOM     28  C   UNL     1      -7.471   2.878 123.146  0.00  0.00    +0.000 A 
ATOM     29  C   UNL     1      -6.221   3.159 122.584  0.00  0.00    +0.000 A 
ATOM     30  C   UNL     1      -6.120   3.867 121.380  0.00  0.00    +0.000 A 
ATOM     31  C   UNL     1      -7.227   3.962 120.553  0.00  0.00    +0.000 A 
ATOM     32  C   UNL     1      -8.448   3.467 121.012  0.00  0.00    +0.000 A 
ATOM     33  C   UNL     1      -8.579   2.958 122.312  0.00  0.00    +0.000 A 
BRANCH  31  34
ATOM     34  O   UNL     1      -6.990   4.498 119.317  0.00  0.00    +0.000 OA
ATOM     35  C   UNL     1      -5.786   5.248 119.199  0.00  0.00    +0.000 C 
ENDBRANCH  31  34
ENDBRANCH  25  28
ENDBRANCH  19  25
ENDBRANCH   1  19
TORSDOF 11
ENDMDL
MODEL 4
REMARK VINA RESULT:      -7.0      3.298      6.713
REMARK  Name = CHEMBL1643586
REMARK  14 active torsions:
REMARK  status: ('A' for Active; 'I' for Inactive)
REMARK    1  A    between atoms: C_1  and  C_2
REMARK    2  A    between atoms: C_2  and  N_3
REMARK    3  A    between atoms: N_3  and  C_4
REMARK    4  A    between atoms: N_3  and  C_6
REMARK    5  A    between atoms: C_4  and  C_5
REMARK    6  A    between atoms: C_6  and  C_7
REMARK    7  A    between atoms: C_10  and  C_11
REMARK    8  A    between atoms: C_13  and  C_14
REMARK    9  A    between atoms: C_14  and  N_15
REMARK   10  A    between atoms: N_15  and  C_16
REMARK   11  A    between atoms: N_15  and  S_21
REMARK   12  A    between atoms: S_21  and  C_24
REMARK   13  A    between atoms: C_27  and  O_28
REMARK   14  A    between atoms: O_28  and  C_29
REMARK                            x       y       z     vdW  Elec       q    Type
REMARK                         _______ _______ _______ _____ _____    ______ ____
ROOT
ATOM      1  C   UNL     1      -8.545  -1.597 126.339  0.00  0.00    +0.000 C 
ENDROOT
BRANCH   1   4
ATOM      2  C   UNL     1      -6.673   0.497 128.712  0.00  0.00    +0.000 A 
ATOM      3  N   UNL     1      -7.536   0.310 127.727  0.00  0.00    +0.000 NA
ATOM      4  C   UNL     1      -7.872  -1.046 127.600  0.00  0.00    +0.000 A 
ATOM      5  C   UNL     1      -7.371  -1.830 128.628  0.00  0.00    +0.000 A 
ATOM      6  S   UNL     1      -6.396  -0.895 129.687  0.00  0.00    +0.000 S 
BRANCH   2  10
ATOM      7  C   UNL     1      -4.625   4.158 129.628  0.00  0.00    +0.000 A 
ATOM      8  C   UNL     1      -5.703   4.180 128.738  0.00  0.00    +0.000 A 
ATOM      9  C   UNL     1      -6.441   3.011 128.500  0.00  0.00    +0.000 A 
ATOM     10  C   UNL     1      -6.036   1.779 129.047  0.00  0.00    +0.000 A 
ATOM     11  C   UNL     1      -4.955   1.766 129.932  0.00  0.00    +0.000 A 
ATOM     12  C   UNL     1      -4.268   2.940 130.228  0.00  0.00    +0.000 A 
BRANCH   7  13
ATOM     13  C   UNL     1      -3.823   5.408 129.939  0.00  0.00    +0.000 C 
BRANCH  13  14
ATOM     14  N   UNL     1      -4.504   6.684 129.584  0.00  0.00    +0.000 NA
BRANCH  14  16
ATOM     15  C   UNL     1      -6.536   6.968 131.082  0.00  0.00    +0.000 C 
ATOM     16  C   UNL     1      -5.063   7.260 130.828  0.00  0.00    +0.000 C 
ENDBRANCH  14  16
BRANCH  14  17
ATOM     17  C   UNL     1      -3.549   7.585 128.902  0.00  0.00    +0.000 C 
ATOM     18  C   UNL     1      -2.422   6.929 128.123  0.00  0.00    +0.000 C 
ENDBRANCH  14  17
ENDBRANCH  13  14
ENDBRANCH   7  13
ENDBRANCH   2  10
ENDBRANCH   1   4
BRANCH   1  19
ATOM     19  N   UNL     1      -7.989  -1.058 125.040  0.00  0.00    +0.000 NA
BRANCH  19  20
ATOM     20  C   UNL     1      -7.258  -2.113 124.228  0.00  0.00    +0.000 C 
ATOM     21  C   UNL     1      -6.298  -1.597 123.153  0.00  0.00    +0.000 C 
ATOM     22  C   UNL     1      -5.348  -2.726 122.834  0.00  0.00    +0.000 C 
ATOM     23  C   UNL     1      -5.202  -3.493 124.112  0.00  0.00    +0.000 C 
ATOM     24  C   UNL     1      -6.286  -2.959 125.005  0.00  0.00    +0.000 C 
ENDBRANCH  19  20
BRANCH  19  25
ATOM     25  S   UNL     1      -9.094   0.064 124.296  0.00  0.00    +0.000 S 
ATOM     26  O   UNL     1      -9.615  -0.554 123.083  0.00  0.00    +0.000 OA
ATOM     27  O   UNL     1     -10.030   0.474 125.314  0.00  0.00    +0.000 OA
BRANCH  25  28
ATOM     28  C   UNL     1      -8.144   1.539 123.844  0.00  0.00    +0.000 A 
ATOM     29  C   UNL     1      -8.424   2.354 122.742  0.00  0.00    +0.000 A 
ATOM     30  C   UNL     1      -7.459   3.236 122.240  0.00  0.00    +0.000 A 
ATOM     31  C   UNL     1      -6.381   3.588 123.035  0.00  0.00    +0.000 A 
ATOM     32  C   UNL     1      -6.217   2.943 124.261  0.00  0.00    +0.000 A 
ATOM     33  C   UNL     1      -7.072   1.902 124.651  0.00  0.00    +0.000 A 
BRANCH  31  34
ATOM     34  O   UNL     1      -5.598   4.597 122.546  0.00  0.00    +0.000 OA
ATOM     35  C   UNL     1      -5.194   4.451 121.190  0.00  0.00    +0.000 C 
ENDBRANCH  31  34
ENDBRANCH  25  28
ENDBRANCH  19  25
ENDBRANCH   1  19
TORSDOF 11
ENDMDL
MODEL 5
REMARK VINA RESULT:      -7.0      5.145      7.966
REMARK  Name = CHEMBL1643586
REMARK  14 active torsions:
REMARK  status: ('A' for Active; 'I' for Inactive)
REMARK    1  A    between atoms: C_1  and  C_2
REMARK    2  A    between atoms: C_2  and  N_3
REMARK    3  A    between atoms: N_3  and  C_4
REMARK    4  A    between atoms: N_3  and  C_6
REMARK    5  A    between atoms: C_4  and  C_5
REMARK    6  A    between atoms: C_6  and  C_7
REMARK    7  A    between atoms: C_10  and  C_11
REMARK    8  A    between atoms: C_13  and  C_14
REMARK    9  A    between atoms: C_14  and  N_15
REMARK   10  A    between atoms: N_15  and  C_16
REMARK   11  A    between atoms: N_15  and  S_21
REMARK   12  A    between atoms: S_21  and  C_24
REMARK   13  A    between atoms: C_27  and  O_28
REMARK   14  A    between atoms: O_28  and  C_29
REMARK                            x       y       z     vdW  Elec       q    Type
REMARK                         _______ _______ _______ _____ _____    ______ ____
ROOT
ATOM      1  C   UNL     1      -9.300   3.155 132.238  0.00  0.00    +0.000 C 
ENDROOT
BRANCH   1   4
ATOM      2  C   UNL     1      -7.806   0.357 130.378  0.00  0.00    +0.000 A 
ATOM      3  N   UNL     1      -8.432   1.519 130.462  0.00  0.00    +0.000 NA
ATOM      4  C   UNL     1      -8.370   2.033 131.766  0.00  0.00    +0.000 A 
ATOM      5  C   UNL     1      -7.532   1.306 132.599  0.00  0.00    +0.000 A 
ATOM      6  S   UNL     1      -6.913  -0.073 131.786  0.00  0.00    +0.000 S 
BRANCH   2  10
ATOM      7  C   UNL     1      -7.539  -2.032 126.820  0.00  0.00    +0.000 A 
ATOM      8  C   UNL     1      -7.449  -2.651 128.070  0.00  0.00    +0.000 A 
ATOM      9  C   UNL     1      -7.627  -1.900 129.242  0.00  0.00    +0.000 A 
ATOM     10  C   UNL     1      -7.770  -0.501 129.184  0.00  0.00    +0.000 A 
ATOM     11  C   UNL     1      -7.854   0.111 127.931  0.00  0.00    +0.000 A 
ATOM     12  C   UNL     1      -7.753  -0.646 126.766  0.00  0.00    +0.000 A 
BRANCH   7  13
ATOM     13  C   UNL     1      -7.386  -2.815 125.530  0.00  0.00    +0.000 C 
BRANCH  13  14
ATOM     14  N   UNL     1      -7.167  -1.976 124.320  0.00  0.00    +0.000 NA
BRANCH  14  16
ATOM     15  C   UNL     1      -5.231  -3.600 124.052  0.00  0.00    +0.000 C 
ATOM     16  C   UNL     1      -5.772  -2.187 123.870  0.00  0.00    +0.000 C 
ENDBRANCH  14  16
BRANCH  14  17
ATOM     17  C   UNL     1      -8.170  -2.318 123.287  0.00  0.00    +0.000 C 
ATOM     18  C   UNL     1      -9.317  -3.217 123.715  0.00  0.00    +0.000 C 
ENDBRANCH  14  17
ENDBRANCH  13  14
ENDBRANCH   7  13
ENDBRANCH   2  10
ENDBRANCH   1   4
BRANCH   1  19
ATOM     19  N   UNL     1      -9.180   4.444 131.457  0.00  0.00    +0.000 NA
BRANCH  19  20
ATOM     20  C   UNL     1      -7.754   4.963 131.389  0.00  0.00    +0.000 C 
ATOM     21  C   UNL     1      -7.579   6.408 130.916  0.00  0.00    +0.000 C 
ATOM     22  C   UNL     1      -6.218   6.862 131.385  0.00  0.00    +0.000 C 
ATOM     23  C   UNL     1      -5.974   6.124 132.665  0.00  0.00    +0.000 C 
ATOM     24  C   UNL     1      -7.050   5.077 132.714  0.00  0.00    +0.000 C 
ENDBRANCH  19  20
BRANCH  19  25
ATOM     25  S   UNL     1     -10.216   4.435 130.057  0.00  0.00    +0.000 S 
ATOM     26  O   UNL     1      -9.370   4.461 128.871  0.00  0.00    +0.000 OA
ATOM     27  O   UNL     1     -11.137   3.337 130.220  0.00  0.00    +0.000 OA
BRANCH  25  28
ATOM     28  C   UNL     1     -11.207   5.951 130.107  0.00  0.00    +0.000 A 
ATOM     29  C   UNL     1     -11.284   6.881 129.065  0.00  0.00    +0.000 A 
ATOM     30  C   UNL     1     -11.751   8.180 129.299  0.00  0.00    +0.000 A 
ATOM     31  C   UNL     1     -12.487   8.443 130.443  0.00  0.00    +0.000 A 
ATOM     32  C   UNL     1     -12.618   7.434 131.398  0.00  0.00    +0.000 A 
ATOM     33  C   UNL     1     -11.957   6.206 131.249  0.00  0.00    +0.000 A 
BRANCH  31  34
ATOM     34  O   UNL     1     -13.066   9.680 130.496  0.00  0.00    +0.000 OA
ATOM     35  C   UNL     1     -13.347  10.276 129.234  0.00  0.00    +0.000 C 
ENDBRANCH  31  34
ENDBRANCH  25  28
ENDBRANCH  19  25
ENDBRANCH   1  19
TORSDOF 11
ENDMDL
MODEL 6
REMARK VINA RESULT:      -6.9      2.406      4.995
REMARK  Name = CHEMBL1643586
REMARK  14 active torsions:
REMARK  status: ('A' for Active; 'I' for Inactive)
REMARK    1  A    between atoms: C_1  and  C_2
REMARK    2  A    between atoms: C_2  and  N_3
REMARK    3  A    between atoms: N_3  and  C_4
REMARK    4  A    between atoms: N_3  and  C_6
REMARK    5  A    between atoms: C_4  and  C_5
REMARK    6  A    between atoms: C_6  and  C_7
REMARK    7  A    between atoms: C_10  and  C_11
REMARK    8  A    between atoms: C_13  and  C_14
REMARK    9  A    between atoms: C_14  and  N_15
REMARK   10  A    between atoms: N_15  and  C_16
REMARK   11  A    between atoms: N_15  and  S_21
REMARK   12  A    between atoms: S_21  and  C_24
REMARK   13  A    between atoms: C_27  and  O_28
REMARK   14  A    between atoms: O_28  and  C_29
REMARK                            x       y       z     vdW  Elec       q    Type
REMARK                         _______ _______ _______ _____ _____    ______ ____
ROOT
ATOM      1  C   UNL     1      -8.607  -1.969 126.171  0.00  0.00    +0.000 C 
ENDROOT
BRANCH   1   4
ATOM      2  C   UNL     1      -7.082  -2.321 129.498  0.00  0.00    +0.000 A 
ATOM      3  N   UNL     1      -7.372  -2.748 128.281  0.00  0.00    +0.000 NA
ATOM      4  C   UNL     1      -7.859  -1.704 127.481  0.00  0.00    +0.000 A 
ATOM      5  C   UNL     1      -7.755  -0.460 128.087  0.00  0.00    +0.000 A 
ATOM      6  S   UNL     1      -7.154  -0.611 129.687  0.00  0.00    +0.000 S 
BRANCH   2  10
ATOM      7  C   UNL     1      -5.620  -4.790 132.693  0.00  0.00    +0.000 A 
ATOM      8  C   UNL     1      -6.397  -3.668 132.994  0.00  0.00    +0.000 A 
ATOM      9  C   UNL     1      -6.960  -2.904 131.960  0.00  0.00    +0.000 A 
ATOM     10  C   UNL     1      -6.650  -3.175 130.614  0.00  0.00    +0.000 A 
ATOM     11  C   UNL     1      -5.869  -4.296 130.322  0.00  0.00    +0.000 A 
ATOM     12  C   UNL     1      -5.372  -5.098 131.346  0.00  0.00    +0.000 A 
BRANCH   7  13
ATOM     13  C   UNL     1      -5.022  -5.661 133.782  0.00  0.00    +0.000 C 
BRANCH  13  14
ATOM     14  N   UNL     1      -5.127  -5.094 135.154  0.00  0.00    +0.000 NA
BRANCH  14  16
ATOM     15  C   UNL     1      -7.405  -6.086 135.687  0.00  0.00    +0.000 C 
ATOM     16  C   UNL     1      -5.910  -6.044 135.977  0.00  0.00    +0.000 C 
ENDBRANCH  14  16
BRANCH  14  17
ATOM     17  C   UNL     1      -3.773  -4.836 135.692  0.00  0.00    +0.000 C 
ATOM     18  C   UNL     1      -2.669  -4.579 134.679  0.00  0.00    +0.000 C 
ENDBRANCH  14  17
ENDBRANCH  13  14
ENDBRANCH   7  13
ENDBRANCH   2  10
ENDBRANCH   1   4
BRANCH   1  19
ATOM     19  N   UNL     1      -8.048  -1.243 124.968  0.00  0.00    +0.000 NA
BRANCH  19  20
ATOM     20  C   UNL     1      -7.293  -2.161 124.022  0.00  0.00    +0.000 C 
ATOM     21  C   UNL     1      -6.484  -1.479 122.917  0.00  0.00    +0.000 C 
ATOM     22  C   UNL     1      -5.462  -2.482 122.438  0.00  0.00    +0.000 C 
ATOM     23  C   UNL     1      -5.134  -3.315 123.639  0.00  0.00    +0.000 C 
ATOM     24  C   UNL     1      -6.181  -2.955 124.653  0.00  0.00    +0.000 C 
ENDBRANCH  19  20
BRANCH  19  25
ATOM     25  S   UNL     1      -9.164  -0.042 124.378  0.00  0.00    +0.000 S 
ATOM     26  O   UNL     1      -9.772  -0.555 123.157  0.00  0.00    +0.000 OA
ATOM     27  O   UNL     1     -10.027   0.310 125.479  0.00  0.00    +0.000 OA
BRANCH  25  28
ATOM     28  C   UNL     1      -8.203   1.441 123.980  0.00  0.00    +0.000 A 
ATOM     29  C   UNL     1      -8.468   2.289 122.900  0.00  0.00    +0.000 A 
ATOM     30  C   UNL     1      -7.493   3.181 122.435  0.00  0.00    +0.000 A 
ATOM     31  C   UNL     1      -6.423   3.505 123.252  0.00  0.00    +0.000 A 
ATOM     32  C   UNL     1      -6.275   2.822 124.460  0.00  0.00    +0.000 A 
ATOM     33  C   UNL     1      -7.139   1.774 124.809  0.00  0.00    +0.000 A 
BRANCH  31  34
ATOM     34  O   UNL     1      -5.629   4.524 122.802  0.00  0.00    +0.000 OA
ATOM     35  C   UNL     1      -5.188   4.403 121.454  0.00  0.00    +0.000 C 
ENDBRANCH  31  34
ENDBRANCH  25  28
ENDBRANCH  19  25
ENDBRANCH   1  19
TORSDOF 11
ENDMDL
MODEL 7
REMARK VINA RESULT:      -6.9      8.151     11.327
REMARK  Name = CHEMBL1643586
REMARK  14 active torsions:
REMARK  status: ('A' for Active; 'I' for Inactive)
REMARK    1  A    between atoms: C_1  and  C_2
REMARK    2  A    between atoms: C_2  and  N_3
REMARK    3  A    between atoms: N_3  and  C_4
REMARK    4  A    between atoms: N_3  and  C_6
REMARK    5  A    between atoms: C_4  and  C_5
REMARK    6  A    between atoms: C_6  and  C_7
REMARK    7  A    between atoms: C_10  and  C_11
REMARK    8  A    between atoms: C_13  and  C_14
REMARK    9  A    between atoms: C_14  and  N_15
REMARK   10  A    between atoms: N_15  and  C_16
REMARK   11  A    between atoms: N_15  and  S_21
REMARK   12  A    between atoms: S_21  and  C_24
REMARK   13  A    between atoms: C_27  and  O_28
REMARK   14  A    between atoms: O_28  and  C_29
REMARK                            x       y       z     vdW  Elec       q    Type
REMARK                         _______ _______ _______ _____ _____    ______ ____
ROOT
ATOM      1  C   UNL     1      -6.133   3.879 132.292  0.00  0.00    +0.000 C 
ENDROOT
BRANCH   1   4
ATOM      2  C   UNL     1      -3.070   5.853 131.795  0.00  0.00    +0.000 A 
ATOM      3  N   UNL     1      -4.011   5.301 132.542  0.00  0.00    +0.000 NA
ATOM      4  C   UNL     1      -4.772   4.384 131.802  0.00  0.00    +0.000 A 
ATOM      5  C   UNL     1      -4.255   4.144 130.537  0.00  0.00    +0.000 A 
ATOM      6  S   UNL     1      -2.891   5.141 130.238  0.00  0.00    +0.000 S 
BRANCH   2  10
ATOM      7  C   UNL     1      -0.567   9.035 133.225  0.00  0.00    +0.000 A 
ATOM      8  C   UNL     1      -0.025   7.757 133.063  0.00  0.00    +0.000 A 
ATOM      9  C   UNL     1      -0.803   6.729 132.510  0.00  0.00    +0.000 A 
ATOM     10  C   UNL     1      -2.168   6.930 132.229  0.00  0.00    +0.000 A 
ATOM     11  C   UNL     1      -2.702   8.209 132.398  0.00  0.00    +0.000 A 
ATOM     12  C   UNL     1      -1.910   9.250 132.877  0.00  0.00    +0.000 A 
BRANCH   7  13
ATOM     13  C   UNL     1       0.251  10.182 133.788  0.00  0.00    +0.000 C 
BRANCH  13  14
ATOM     14  N   UNL     1      -0.067  11.514 133.204  0.00  0.00    +0.000 NA
BRANCH  14  16
ATOM     15  C   UNL     1      -1.607  13.290 134.169  0.00  0.00    +0.000 C 
ATOM     16  C   UNL     1      -0.351  12.441 134.323  0.00  0.00    +0.000 C 
ENDBRANCH  14  16
BRANCH  14  17
ATOM     17  C   UNL     1       1.050  11.962 132.344  0.00  0.00    +0.000 C 
ATOM     18  C   UNL     1       0.692  12.825 131.147  0.00  0.00    +0.000 C 
ENDBRANCH  14  17
ENDBRANCH  13  14
ENDBRANCH   7  13
ENDBRANCH   2  10
ENDBRANCH   1   4
BRANCH   1  19
ATOM     19  N   UNL     1      -7.318   4.413 131.519  0.00  0.00    +0.000 NA
BRANCH  19  20
ATOM     20  C   UNL     1      -8.344   3.341 131.195  0.00  0.00    +0.000 C 
ATOM     21  C   UNL     1      -7.798   2.028 130.631  0.00  0.00    +0.000 C 
ATOM     22  C   UNL     1      -8.862   0.979 130.850  0.00  0.00    +0.000 C 
ATOM     23  C   UNL     1      -9.565   1.387 132.108  0.00  0.00    +0.000 C 
ATOM     24  C   UNL     1      -9.082   2.783 132.382  0.00  0.00    +0.000 C 
ENDBRANCH  19  20
BRANCH  19  25
ATOM     25  S   UNL     1      -7.793   5.986 132.097  0.00  0.00    +0.000 S 
ATOM     26  O   UNL     1      -7.978   5.899 133.540  0.00  0.00    +0.000 OA
ATOM     27  O   UNL     1      -6.834   6.933 131.584  0.00  0.00    +0.000 OA
BRANCH  25  28
ATOM     28  C   UNL     1      -9.381   6.390 131.324  0.00  0.00    +0.000 A 
ATOM     29  C   UNL     1      -9.525   6.877 130.020  0.00  0.00    +0.000 A 
ATOM     30  C   UNL     1     -10.708   7.510 129.619  0.00  0.00    +0.000 A 
ATOM     31  C   UNL     1     -11.863   7.327 130.362  0.00  0.00    +0.000 A 
ATOM     32  C   UNL     1     -11.777   6.630 131.568  0.00  0.00    +0.000 A 
ATOM     33  C   UNL     1     -10.540   6.192 132.064  0.00  0.00    +0.000 A 
BRANCH  31  34
ATOM     34  O   UNL     1     -13.007   7.817 129.796  0.00  0.00    +0.000 OA
ATOM     35  C   UNL     1     -12.858   9.036 129.078  0.00  0.00    +0.000 C 
ENDBRANCH  31  34
ENDBRANCH  25  28
ENDBRANCH  19  25
ENDBRANCH   1  19
TORSDOF 11
ENDMDL
MODEL 8
REMARK VINA RESULT:      -6.8      8.400     11.454
REMARK  Name = CHEMBL1643586
REMARK  14 active torsions:
REMARK  status: ('A' for Active; 'I' for Inactive)
REMARK    1  A    between atoms: C_1  and  C_2
REMARK    2  A    between atoms: C_2  and  N_3
REMARK    3  A    between atoms: N_3  and  C_4
REMARK    4  A    between atoms: N_3  and  C_6
REMARK    5  A    between atoms: C_4  and  C_5
REMARK    6  A    between atoms: C_6  and  C_7
REMARK    7  A    between atoms: C_10  and  C_11
REMARK    8  A    between atoms: C_13  and  C_14
REMARK    9  A    between atoms: C_14  and  N_15
REMARK   10  A    between atoms: N_15  and  C_16
REMARK   11  A    between atoms: N_15  and  S_21
REMARK   12  A    between atoms: S_21  and  C_24
REMARK   13  A    between atoms: C_27  and  O_28
REMARK   14  A    between atoms: O_28  and  C_29
REMARK                            x       y       z     vdW  Elec       q    Type
REMARK                         _______ _______ _______ _____ _____    ______ ____
ROOT
ATOM      1  C   UNL     1      -7.396   6.448 130.742  0.00  0.00    +0.000 C 
ENDROOT
BRANCH   1   4
ATOM      2  C   UNL     1      -3.757   6.701 131.204  0.00  0.00    +0.000 A 
ATOM      3  N   UNL     1      -5.009   6.818 131.610  0.00  0.00    +0.000 NA
ATOM      4  C   UNL     1      -5.889   6.171 130.730  0.00  0.00    +0.000 A 
ATOM      5  C   UNL     1      -5.237   5.424 129.760  0.00  0.00    +0.000 A 
ATOM      6  S   UNL     1      -3.536   5.619 129.883  0.00  0.00    +0.000 S 
BRANCH   2  10
ATOM      7  C   UNL     1      -0.493   8.628 133.222  0.00  0.00    +0.000 A 
ATOM      8  C   UNL     1      -0.335   7.319 132.759  0.00  0.00    +0.000 A 
ATOM      9  C   UNL     1      -1.357   6.708 132.016  0.00  0.00    +0.000 A 
ATOM     10  C   UNL     1      -2.598   7.348 131.836  0.00  0.00    +0.000 A 
ATOM     11  C   UNL     1      -2.748   8.655 132.307  0.00  0.00    +0.000 A 
ATOM     12  C   UNL     1      -1.706   9.290 132.979  0.00  0.00    +0.000 A 
BRANCH   7  13
ATOM     13  C   UNL     1       0.602   9.336 133.999  0.00  0.00    +0.000 C 
BRANCH  13  14
ATOM     14  N   UNL     1       0.526  10.822 133.959  0.00  0.00    +0.000 NA
BRANCH  14  16
ATOM     15  C   UNL     1       2.283  11.858 135.473  0.00  0.00    +0.000 C 
ATOM     16  C   UNL     1       0.864  11.328 135.308  0.00  0.00    +0.000 C 
ENDBRANCH  14  16
BRANCH  14  17
ATOM     17  C   UNL     1       1.421  11.339 132.901  0.00  0.00    +0.000 C 
ATOM     18  C   UNL     1       0.835  12.362 131.944  0.00  0.00    +0.000 C 
ENDBRANCH  14  17
ENDBRANCH  13  14
ENDBRANCH   7  13
ENDBRANCH   2  10
ENDBRANCH   1   4
BRANCH   1  19
ATOM     19  N   UNL     1      -8.263   5.213 130.834  0.00  0.00    +0.000 NA
BRANCH  19  20
ATOM     20  C   UNL     1      -8.742   4.931 132.247  0.00  0.00    +0.000 C 
ATOM     21  C   UNL     1      -8.162   3.688 132.926  0.00  0.00    +0.000 C 
ATOM     22  C   UNL     1      -8.358   3.866 134.412  0.00  0.00    +0.000 C 
ATOM     23  C   UNL     1      -8.276   5.343 134.647  0.00  0.00    +0.000 C 
ATOM     24  C   UNL     1      -8.338   5.953 133.275  0.00  0.00    +0.000 C 
ENDBRANCH  19  20
BRANCH  19  25
ATOM     25  S   UNL     1      -9.333   5.088 129.465  0.00  0.00    +0.000 S 
ATOM     26  O   UNL     1      -8.520   5.076 128.257  0.00  0.00    +0.000 OA
ATOM     27  O   UNL     1     -10.209   3.968 129.714  0.00  0.00    +0.000 OA
BRANCH  25  28
ATOM     28  C   UNL     1     -10.378   6.567 129.458  0.00  0.00    +0.000 A 
ATOM     29  C   UNL     1     -11.282   6.903 130.472  0.00  0.00    +0.000 A 
ATOM     30  C   UNL     1     -12.305   7.831 130.240  0.00  0.00    +0.000 A 
ATOM     31  C   UNL     1     -12.208   8.695 129.161  0.00  0.00    +0.000 A 
ATOM     32  C   UNL     1     -11.161   8.517 128.257  0.00  0.00    +0.000 A 
ATOM     33  C   UNL     1     -10.270   7.442 128.383  0.00  0.00    +0.000 A 
BRANCH  31  34
ATOM     34  O   UNL     1     -13.144   9.691 129.123  0.00  0.00    +0.000 OA
ATOM     35  C   UNL     1     -13.225  10.497 130.293  0.00  0.00    +0.000 C 
ENDBRANCH  31  34
ENDBRANCH  25  28
ENDBRANCH  19  25
ENDBRANCH   1  19
TORSDOF 11
ENDMDL
MODEL 9
REMARK VINA RESULT:      -6.8      4.790      8.359
REMARK  Name = CHEMBL1643586
REMARK  14 active torsions:
REMARK  status: ('A' for Active; 'I' for Inactive)
REMARK    1  A    between atoms: C_1  and  C_2
REMARK    2  A    between atoms: C_2  and  N_3
REMARK    3  A    between atoms: N_3  and  C_4
REMARK    4  A    between atoms: N_3  and  C_6
REMARK    5  A    between atoms: C_4  and  C_5
REMARK    6  A    between atoms: C_6  and  C_7
REMARK    7  A    between atoms: C_10  and  C_11
REMARK    8  A    between atoms: C_13  and  C_14
REMARK    9  A    between atoms: C_14  and  N_15
REMARK   10  A    between atoms: N_15  and  C_16
REMARK   11  A    between atoms: N_15  and  S_21
REMARK   12  A    between atoms: S_21  and  C_24
REMARK   13  A    between atoms: C_27  and  O_28
REMARK   14  A    between atoms: O_28  and  C_29
REMARK                            x       y       z     vdW  Elec       q    Type
REMARK                         _______ _______ _______ _____ _____    ______ ____
ROOT
ATOM      1  C   UNL     1      -6.464   4.524 131.000  0.00  0.00    +0.000 C 
ENDROOT
BRANCH   1   4
ATOM      2  C   UNL     1      -5.838   3.556 127.508  0.00  0.00    +0.000 A 
ATOM      3  N   UNL     1      -6.608   3.702 128.573  0.00  0.00    +0.000 NA
ATOM      4  C   UNL     1      -5.979   4.492 129.547  0.00  0.00    +0.000 A 
ATOM      5  C   UNL     1      -4.799   5.069 129.102  0.00  0.00    +0.000 A 
ATOM      6  S   UNL     1      -4.425   4.539 127.513  0.00  0.00    +0.000 S 
BRANCH   2  10
ATOM      7  C   UNL     1      -6.894   0.975 124.243  0.00  0.00    +0.000 A 
ATOM      8  C   UNL     1      -6.928   2.360 124.061  0.00  0.00    +0.000 A 
ATOM      9  C   UNL     1      -6.497   3.215 125.086  0.00  0.00    +0.000 A 
ATOM     10  C   UNL     1      -6.148   2.704 126.351  0.00  0.00    +0.000 A 
ATOM     11  C   UNL     1      -6.122   1.319 126.526  0.00  0.00    +0.000 A 
ATOM     12  C   UNL     1      -6.477   0.466 125.483  0.00  0.00    +0.000 A 
BRANCH   7  13
ATOM     13  C   UNL     1      -7.319   0.016 123.147  0.00  0.00    +0.000 C 
BRANCH  13  14
ATOM     14  N   UNL     1      -7.311  -1.419 123.544  0.00  0.00    +0.000 NA
BRANCH  14  16
ATOM     15  C   UNL     1      -8.974  -3.298 123.938  0.00  0.00    +0.000 C 
ATOM     16  C   UNL     1      -8.651  -1.976 123.254  0.00  0.00    +0.000 C 
ENDBRANCH  14  16
BRANCH  14  17
ATOM     17  C   UNL     1      -6.220  -2.126 122.836  0.00  0.00    +0.000 C 
ATOM     18  C   UNL     1      -5.203  -2.856 123.696  0.00  0.00    +0.000 C 
ENDBRANCH  14  17
ENDBRANCH  13  14
ENDBRANCH   7  13
ENDBRANCH   2  10
ENDBRANCH   1   4
BRANCH   1  19
ATOM     19  N   UNL     1      -7.956   4.714 131.163  0.00  0.00    +0.000 NA
BRANCH  19  20
ATOM     20  C   UNL     1      -8.626   3.550 131.872  0.00  0.00    +0.000 C 
ATOM     21  C   UNL     1      -9.696   2.797 131.080  0.00  0.00    +0.000 C 
ATOM     22  C   UNL     1      -9.858   1.446 131.733  0.00  0.00    +0.000 C 
ATOM     23  C   UNL     1      -8.506   1.109 132.283  0.00  0.00    +0.000 C 
ATOM     24  C   UNL     1      -7.723   2.387 132.187  0.00  0.00    +0.000 C 
ENDBRANCH  19  20
BRANCH  19  25
ATOM     25  S   UNL     1      -8.345   6.367 131.552  0.00  0.00    +0.000 S 
ATOM     26  O   UNL     1      -8.579   6.448 132.988  0.00  0.00    +0.000 OA
ATOM     27  O   UNL     1      -7.310   7.191 130.977  0.00  0.00    +0.000 OA
BRANCH  25  28
ATOM     28  C   UNL     1      -9.878   6.781 130.681  0.00  0.00    +0.000 A 
ATOM     29  C   UNL     1      -9.935   7.441 129.449  0.00  0.00    +0.000 A 
ATOM     30  C   UNL     1     -11.119   8.053 129.018  0.00  0.00    +0.000 A 
ATOM     31  C   UNL     1     -12.321   7.695 129.606  0.00  0.00    +0.000 A 
ATOM     32  C   UNL     1     -12.298   6.838 130.706  0.00  0.00    +0.000 A 
ATOM     33  C   UNL     1     -11.084   6.409 131.263  0.00  0.00    +0.000 A 
BRANCH  31  34
ATOM     34  O   UNL     1     -13.441   8.191 128.997  0.00  0.00    +0.000 OA
ATOM     35  C   UNL     1     -13.379   9.566 128.634  0.00  0.00    +0.000 C 
ENDBRANCH  31  34
ENDBRANCH  25  28
ENDBRANCH  19  25
ENDBRANCH   1  19
TORSDOF 11
ENDMDL
