MODEL 1
REMARK VINA RESULT:      -9.6      0.000      0.000
REMARK  Name = CHEMBL2369841
REMARK  19 active torsions:
REMARK  status: ('A' for Active; 'I' for Inactive)
REMARK    1  A    between atoms: N_1  and  C_2
REMARK    2  A    between atoms: C_2  and  C_3
REMARK    3  A    between atoms: C_7  and  C_8
REMARK    4  A    between atoms: C_8  and  C_9
REMARK    5  A    between atoms: C_18  and  C_19
REMARK    6  A    between atoms: C_19  and  C_20
REMARK    7  A    between atoms: C_23  and  O_24
REMARK    8  A    between atoms: C_35  and  C_36
REMARK    9  A    between atoms: C_42  and  C_43
REMARK   10  A    between atoms: N_45  and  C_46
REMARK   11  A    between atoms: C_46  and  C_47
REMARK   12  A    between atoms: C_46  and  C_54
REMARK   13  A    between atoms: C_47  and  C_48
REMARK   14  A    between atoms: C_48  and  C_49
REMARK   15  A    between atoms: C_49  and  N_50
REMARK   16  A    between atoms: N_56  and  C_57
REMARK   17  A    between atoms: C_57  and  C_58
REMARK   18  A    between atoms: C_64  and  C_65
REMARK   19  A    between atoms: C_65  and  C_66
REMARK                            x       y       z     vdW  Elec       q    Type
REMARK                         _______ _______ _______ _____ _____    ______ ____
ROOT
ATOM      1  C   UNL     1      -7.041   3.844 125.639  0.00  0.00    +0.000 C 
ATOM      2  N   UNL     1      -8.313   2.855 125.426  0.00  0.00    +0.000 N 
ATOM      3  C   UNL     1      -8.479   1.473 125.965  0.00  0.00    +0.000 C 
ATOM      4  O   UNL     1      -9.426   1.231 126.754  0.00  0.00    +0.000 OA
ATOM      5  C   UNL     1      -7.464   0.385 125.568  0.00  0.00    +0.000 C 
ATOM      6  N   UNL     1      -6.275  -0.142 126.274  0.00  0.00    +0.000 N 
ATOM      7  C   UNL     1      -6.190  -0.896 127.472  0.00  0.00    +0.000 C 
ATOM      8  O   UNL     1      -5.024  -1.261 127.722  0.00  0.00    +0.000 OA
ATOM      9  C   UNL     1      -7.607  -1.029 128.656  0.00  0.00    +0.000 C 
ATOM     10  N   UNL     1      -7.516  -2.427 128.888  0.00  0.00    +0.000 N 
ATOM     11  C   UNL     1      -6.551  -2.945 129.689  0.00  0.00    +0.000 C 
ATOM     12  O   UNL     1      -6.537  -4.175 129.799  0.00  0.00    +0.000 OA
ATOM     13  C   UNL     1      -5.505  -2.062 130.465  0.00  0.00    +0.000 C 
ATOM     14  C   UNL     1      -5.357  -0.529 130.409  0.00  0.00    +0.000 C 
ATOM     15  S   UNL     1      -4.025   0.327 131.307  0.00  0.00    +0.000 S 
ATOM     16  S   UNL     1      -4.946   2.193 131.466  0.00  0.00    +0.000 S 
ATOM     17  C   UNL     1      -3.657   3.463 131.338  0.00  0.00    +0.000 C 
ATOM     18  C   UNL     1      -3.958   4.947 131.054  0.00  0.00    +0.000 C 
ATOM     19  N   UNL     1      -3.728   5.305 129.598  0.00  0.00    +0.000 N 
ATOM     20  C   UNL     1      -4.321   4.862 128.452  0.00  0.00    +0.000 C 
ATOM     21  O   UNL     1      -3.961   5.117 127.308  0.00  0.00    +0.000 OA
ATOM     22  C   UNL     1      -5.559   4.116 128.626  0.00  0.00    +0.000 C 
ATOM     23  N   UNL     1      -6.654   4.991 127.907  0.00  0.00    +0.000 N 
ATOM     24  C   UNL     1      -7.352   4.953 126.706  0.00  0.00    +0.000 C 
ATOM     25  O   UNL     1      -8.533   5.333 126.848  0.00  0.00    +0.000 OA
ATOM     26  H   UNL     1      -9.135   3.352 125.805  0.00  0.00    +0.000 HD
ATOM     27  H   UNL     1      -5.416   0.382 126.138  0.00  0.00    +0.000 HD
ATOM     28  H   UNL     1      -8.149  -3.047 128.397  0.00  0.00    +0.000 HD
ATOM     29  H   UNL     1      -3.043   6.035 129.423  0.00  0.00    +0.000 HD
ATOM     30  H   UNL     1      -7.462   5.046 128.491  0.00  0.00    +0.000 HD
ENDROOT
BRANCH  18  31
ATOM     31  C   UNL     1      -3.049   5.909 131.909  0.00  0.00    +0.000 C 
ATOM     32  O   UNL     1      -2.238   6.622 131.306  0.00  0.00    +0.000 OA
ATOM     33  N   UNL     1      -3.330   6.105 133.261  0.00  0.00    +0.000 N 
ATOM     34  C   UNL     1      -3.573   5.118 134.303  0.00  0.00    +0.000 C 
ATOM     35  C   UNL     1      -4.412   5.887 135.280  0.00  0.00    +0.000 C 
ATOM     36  C   UNL     1      -3.680   7.209 135.351  0.00  0.00    +0.000 C 
ATOM     37  C   UNL     1      -3.040   7.391 133.956  0.00  0.00    +0.000 C 
BRANCH  37  38
ATOM     38  C   UNL     1      -1.548   7.610 134.257  0.00  0.00    +0.000 C 
ATOM     39  O   UNL     1      -0.776   6.649 134.282  0.00  0.00    +0.000 OA
ATOM     40  N   UNL     1      -1.146   8.897 134.601  0.00  0.00    +0.000 N 
ATOM     41  H   UNL     1      -1.822   9.597 134.895  0.00  0.00    +0.000 HD
BRANCH  40  42
ATOM     42  C   UNL     1       0.281   9.280 134.725  0.00  0.00    +0.000 C 
BRANCH  42  43
ATOM     43  C   UNL     1       0.865   8.825 136.107  0.00  0.00    +0.000 C 
ATOM     44  O   UNL     1       0.830   9.555 137.096  0.00  0.00    +0.000 OA
ATOM     45  N   UNL     1       1.413   7.554 136.151  0.00  0.00    +0.000 N 
ATOM     46  H   UNL     1       1.399   6.989 135.319  0.00  0.00    +0.000 HD
BRANCH  45  47
ATOM     47  C   UNL     1       2.019   6.998 137.364  0.00  0.00    +0.000 C 
BRANCH  47  48
ATOM     48  C   UNL     1       3.173   5.998 137.157  0.00  0.00    +0.000 C 
ATOM     49  N   UNL     1       3.370   5.034 138.105  0.00  0.00    +0.000 N 
ATOM     50  O   UNL     1       3.913   6.034 136.176  0.00  0.00    +0.000 OA
ATOM     51  H   UNL     1       2.835   4.911 138.946  0.00  0.00    +0.000 HD
ATOM     52  H   UNL     1       4.136   4.388 137.954  0.00  0.00    +0.000 HD
ENDBRANCH  47  48
ENDBRANCH  45  47
ENDBRANCH  42  43
BRANCH  42  53
ATOM     53  C   UNL     1       0.444  10.810 134.584  0.00  0.00    +0.000 C 
BRANCH  53  54
ATOM     54  C   UNL     1       0.919  11.217 133.195  0.00  0.00    +0.000 C 
BRANCH  54  55
ATOM     55  C   UNL     1       0.751  12.670 132.867  0.00  0.00    +0.000 C 
BRANCH  55  56
ATOM     56  N   UNL     1      -0.556  13.096 133.373  0.00  0.00    +0.000 NA
ATOM     57  C   UNL     1      -1.457  13.323 132.492  0.00  0.00    +0.000 C 
ATOM     58  N   UNL     1      -1.312  13.182 131.163  0.00  0.00    +0.000 N 
ATOM     59  N   UNL     1      -2.681  13.730 132.863  0.00  0.00    +0.000 N 
ATOM     60  H   UNL     1      -0.415  12.899 130.801  0.00  0.00    +0.000 HD
ATOM     61  H   UNL     1      -2.045  13.360 130.502  0.00  0.00    +0.000 HD
ATOM     62  H   UNL     1      -2.839  13.870 133.853  0.00  0.00    +0.000 HD
ATOM     63  H   UNL     1      -3.435  13.917 132.226  0.00  0.00    +0.000 HD
ENDBRANCH  55  56
ENDBRANCH  54  55
ENDBRANCH  53  54
ENDBRANCH  42  53
ENDBRANCH  40  42
ENDBRANCH  37  38
ENDBRANCH  18  31
BRANCH  22  64
ATOM     64  C   UNL     1      -5.375   2.679 128.220  0.00  0.00    +0.000 C 
BRANCH  64  65
ATOM     65  C   UNL     1      -4.049   2.553 127.679  0.00  0.00    +0.000 C 
ATOM     66  N   UNL     1      -3.614   2.363 126.429  0.00  0.00    +0.000 N 
ATOM     67  O   UNL     1      -3.156   2.330 128.503  0.00  0.00    +0.000 OA
ATOM     68  H   UNL     1      -3.980   2.045 125.546  0.00  0.00    +0.000 HD
ATOM     69  H   UNL     1      -2.656   2.067 126.216  0.00  0.00    +0.000 HD
ENDBRANCH  64  65
ENDBRANCH  22  64
BRANCH   9  70
ATOM     70  C   UNL     1      -8.211  -0.388 130.262  0.00  0.00    +0.000 C 
BRANCH  70  71
ATOM     71  C   UNL     1      -8.482   1.085 130.702  0.00  0.00    +0.000 A 
ATOM     72  C   UNL     1      -8.464   1.190 132.001  0.00  0.00    +0.000 A 
ATOM     73  C   UNL     1      -9.219   2.216 132.637  0.00  0.00    +0.000 A 
ATOM     74  C   UNL     1      -9.402   3.491 132.406  0.00  0.00    +0.000 A 
ATOM     75  C   UNL     1      -9.047   3.594 131.116  0.00  0.00    +0.000 A 
ATOM     76  C   UNL     1      -8.621   2.398 130.245  0.00  0.00    +0.000 A 
BRANCH  74  77
ATOM     77  O   UNL     1     -10.051   4.346 133.224  0.00  0.00    +0.000 OA
ATOM     78  H   UNL     1     -10.040   4.326 134.209  0.00  0.00    +0.000 HD
ENDBRANCH  74  77
ENDBRANCH  70  71
ENDBRANCH   9  70
BRANCH   5  79
ATOM     79  C   UNL     1      -8.307  -0.821 125.259  0.00  0.00    +0.000 C 
BRANCH  79  80
ATOM     80  C   UNL     1      -7.602  -1.912 124.503  0.00  0.00    +0.000 A 
ATOM     81  C   UNL     1      -7.498  -3.267 124.898  0.00  0.00    +0.000 A 
ATOM     82  C   UNL     1      -6.481  -4.092 124.499  0.00  0.00    +0.000 A 
ATOM     83  C   UNL     1      -5.864  -3.722 123.339  0.00  0.00    +0.000 A 
ATOM     84  C   UNL     1      -6.068  -2.442 122.799  0.00  0.00    +0.000 A 
ATOM     85  C   UNL     1      -6.858  -1.499 123.431  0.00  0.00    +0.000 A 
ENDBRANCH  79  80
ENDBRANCH   5  79
BRANCH   1  86
ATOM     86  C   UNL     1      -6.042   4.141 124.537  0.00  0.00    +0.000 C 
BRANCH  86  87
ATOM     87  N   UNL     1      -5.402   4.548 123.300  0.00  0.00    +0.000 NA
ATOM     88  H   UNL     1      -4.535   4.025 123.230  0.00  0.00    +0.000 HD
ATOM     89  H   UNL     1      -5.133   5.542 123.362  0.00  0.00    +0.000 HD
ENDBRANCH  86  87
ENDBRANCH   1  86
TORSDOF 19
ENDMDL
MODEL 2
REMARK VINA RESULT:      -9.6      1.588      2.553
REMARK  Name = CHEMBL2369841
REMARK  19 active torsions:
REMARK  status: ('A' for Active; 'I' for Inactive)
REMARK    1  A    between atoms: N_1  and  C_2
REMARK    2  A    between atoms: C_2  and  C_3
REMARK    3  A    between atoms: C_7  and  C_8
REMARK    4  A    between atoms: C_8  and  C_9
REMARK    5  A    between atoms: C_18  and  C_19
REMARK    6  A    between atoms: C_19  and  C_20
REMARK    7  A    between atoms: C_23  and  O_24
REMARK    8  A    between atoms: C_35  and  C_36
REMARK    9  A    between atoms: C_42  and  C_43
REMARK   10  A    between atoms: N_45  and  C_46
REMARK   11  A    between atoms: C_46  and  C_47
REMARK   12  A    between atoms: C_46  and  C_54
REMARK   13  A    between atoms: C_47  and  C_48
REMARK   14  A    between atoms: C_48  and  C_49
REMARK   15  A    between atoms: C_49  and  N_50
REMARK   16  A    between atoms: N_56  and  C_57
REMARK   17  A    between atoms: C_57  and  C_58
REMARK   18  A    between atoms: C_64  and  C_65
REMARK   19  A    between atoms: C_65  and  C_66
REMARK                            x       y       z     vdW  Elec       q    Type
REMARK                         _______ _______ _______ _____ _____    ______ ____
ROOT
ATOM      1  C   UNL     1      -7.025   3.862 125.761  0.00  0.00    +0.000 C 
ATOM      2  N   UNL     1      -8.249   2.826 125.499  0.00  0.00    +0.000 N 
ATOM      3  C   UNL     1      -8.378   1.434 126.021  0.00  0.00    +0.000 C 
ATOM      4  O   UNL     1      -9.339   1.146 126.777  0.00  0.00    +0.000 OA
ATOM      5  C   UNL     1      -7.308   0.391 125.646  0.00  0.00    +0.000 C 
ATOM      6  N   UNL     1      -6.122  -0.097 126.385  0.00  0.00    +0.000 N 
ATOM      7  C   UNL     1      -6.046  -0.859 127.579  0.00  0.00    +0.000 C 
ATOM      8  O   UNL     1      -4.875  -1.179 127.862  0.00  0.00    +0.000 OA
ATOM      9  C   UNL     1      -7.493  -1.059 128.715  0.00  0.00    +0.000 C 
ATOM     10  N   UNL     1      -7.354  -2.455 128.938  0.00  0.00    +0.000 N 
ATOM     11  C   UNL     1      -6.394  -2.942 129.764  0.00  0.00    +0.000 C 
ATOM     12  O   UNL     1      -6.336  -4.171 129.864  0.00  0.00    +0.000 OA
ATOM     13  C   UNL     1      -5.409  -2.027 130.581  0.00  0.00    +0.000 C 
ATOM     14  C   UNL     1      -5.321  -0.488 130.544  0.00  0.00    +0.000 C 
ATOM     15  S   UNL     1      -4.052   0.410 131.491  0.00  0.00    +0.000 S 
ATOM     16  S   UNL     1      -5.051   2.237 131.637  0.00  0.00    +0.000 S 
ATOM     17  C   UNL     1      -3.810   3.557 131.561  0.00  0.00    +0.000 C 
ATOM     18  C   UNL     1      -4.160   5.031 131.281  0.00  0.00    +0.000 C 
ATOM     19  N   UNL     1      -3.899   5.413 129.836  0.00  0.00    +0.000 N 
ATOM     20  C   UNL     1      -4.438   4.959 128.668  0.00  0.00    +0.000 C 
ATOM     21  O   UNL     1      -4.052   5.239 127.538  0.00  0.00    +0.000 OA
ATOM     22  C   UNL     1      -5.650   4.162 128.796  0.00  0.00    +0.000 C 
ATOM     23  N   UNL     1      -6.756   5.001 128.050  0.00  0.00    +0.000 N 
ATOM     24  C   UNL     1      -7.413   4.948 126.828  0.00  0.00    +0.000 C 
ATOM     25  O   UNL     1      -8.613   5.280 126.935  0.00  0.00    +0.000 OA
ATOM     26  H   UNL     1      -9.102   3.287 125.856  0.00  0.00    +0.000 HD
ATOM     27  H   UNL     1      -5.281   0.462 126.281  0.00  0.00    +0.000 HD
ATOM     28  H   UNL     1      -7.946  -3.094 128.421  0.00  0.00    +0.000 HD
ATOM     29  H   UNL     1      -3.238   6.171 129.690  0.00  0.00    +0.000 HD
ATOM     30  H   UNL     1      -7.583   5.018 128.608  0.00  0.00    +0.000 HD
ENDROOT
BRANCH  18  31
ATOM     31  C   UNL     1      -3.317   6.020 132.173  0.00  0.00    +0.000 C 
ATOM     32  O   UNL     1      -2.543   6.795 131.599  0.00  0.00    +0.000 OA
ATOM     33  N   UNL     1      -3.623   6.162 133.526  0.00  0.00    +0.000 N 
ATOM     34  C   UNL     1      -3.820   5.134 134.538  0.00  0.00    +0.000 C 
ATOM     35  C   UNL     1      -4.713   5.826 135.526  0.00  0.00    +0.000 C 
ATOM     36  C   UNL     1      -4.059   7.185 135.641  0.00  0.00    +0.000 C 
ATOM     37  C   UNL     1      -3.416   7.443 134.259  0.00  0.00    +0.000 C 
BRANCH  37  38
ATOM     38  C   UNL     1      -1.942   7.738 134.584  0.00  0.00    +0.000 C 
ATOM     39  O   UNL     1      -1.142   6.811 134.720  0.00  0.00    +0.000 OA
ATOM     40  N   UNL     1      -1.592   9.064 134.822  0.00  0.00    +0.000 N 
ATOM     41  H   UNL     1      -2.299   9.764 135.030  0.00  0.00    +0.000 HD
BRANCH  40  42
ATOM     42  C   UNL     1      -0.183   9.505 134.954  0.00  0.00    +0.000 C 
BRANCH  42  43
ATOM     43  C   UNL     1      -0.085  10.823 135.797  0.00  0.00    +0.000 C 
ATOM     44  O   UNL     1       0.979  11.202 136.284  0.00  0.00    +0.000 OA
ATOM     45  N   UNL     1      -1.261  11.538 135.954  0.00  0.00    +0.000 N 
ATOM     46  H   UNL     1      -2.100  11.196 135.519  0.00  0.00    +0.000 HD
BRANCH  45  47
ATOM     47  C   UNL     1      -1.332  12.777 136.735  0.00  0.00    +0.000 C 
BRANCH  47  48
ATOM     48  C   UNL     1      -1.001  14.080 135.983  0.00  0.00    +0.000 C 
ATOM     49  N   UNL     1      -1.509  14.245 134.724  0.00  0.00    +0.000 N 
ATOM     50  O   UNL     1      -0.308  14.970 136.471  0.00  0.00    +0.000 OA
ATOM     51  H   UNL     1      -2.080  13.588 134.225  0.00  0.00    +0.000 HD
ATOM     52  H   UNL     1      -1.277  15.106 134.243  0.00  0.00    +0.000 HD
ENDBRANCH  47  48
ENDBRANCH  45  47
ENDBRANCH  42  43
BRANCH  42  53
ATOM     53  C   UNL     1       0.441   9.745 133.561  0.00  0.00    +0.000 C 
BRANCH  53  54
ATOM     54  C   UNL     1       0.014  11.076 132.955  0.00  0.00    +0.000 C 
BRANCH  54  55
ATOM     55  C   UNL     1       1.131  11.909 132.402  0.00  0.00    +0.000 C 
BRANCH  55  56
ATOM     56  N   UNL     1       1.148  13.178 133.132  0.00  0.00    +0.000 NA
ATOM     57  C   UNL     1       2.119  13.347 133.951  0.00  0.00    +0.000 C 
ATOM     58  N   UNL     1       3.121  12.478 134.172  0.00  0.00    +0.000 N 
ATOM     59  N   UNL     1       2.209  14.474 134.673  0.00  0.00    +0.000 N 
ATOM     60  H   UNL     1       3.116  11.597 133.683  0.00  0.00    +0.000 HD
ATOM     61  H   UNL     1       3.873  12.649 134.814  0.00  0.00    +0.000 HD
ATOM     62  H   UNL     1       1.469  15.155 134.558  0.00  0.00    +0.000 HD
ATOM     63  H   UNL     1       2.948  14.674 135.324  0.00  0.00    +0.000 HD
ENDBRANCH  55  56
ENDBRANCH  54  55
ENDBRANCH  53  54
ENDBRANCH  42  53
ENDBRANCH  40  42
ENDBRANCH  37  38
ENDBRANCH  18  31
BRANCH  22  64
ATOM     64  C   UNL     1      -5.396   2.738 128.383  0.00  0.00    +0.000 C 
BRANCH  64  65
ATOM     65  C   UNL     1      -4.068   2.681 127.837  0.00  0.00    +0.000 C 
ATOM     66  N   UNL     1      -3.629   2.534 126.583  0.00  0.00    +0.000 N 
ATOM     67  O   UNL     1      -3.164   2.481 128.655  0.00  0.00    +0.000 OA
ATOM     68  H   UNL     1      -3.984   2.217 125.694  0.00  0.00    +0.000 HD
ATOM     69  H   UNL     1      -2.660   2.284 126.362  0.00  0.00    +0.000 HD
ENDBRANCH  64  65
ENDBRANCH  22  64
BRANCH   9  70
ATOM     70  C   UNL     1      -8.171  -0.458 130.307  0.00  0.00    +0.000 C 
BRANCH  70  71
ATOM     71  C   UNL     1      -8.470   1.003 130.768  0.00  0.00    +0.000 A 
ATOM     72  C   UNL     1      -8.399   1.101 132.066  0.00  0.00    +0.000 A 
ATOM     73  C   UNL     1      -9.158   2.099 132.741  0.00  0.00    +0.000 A 
ATOM     74  C   UNL     1      -9.391   3.369 132.527  0.00  0.00    +0.000 A 
ATOM     75  C   UNL     1      -9.096   3.490 131.223  0.00  0.00    +0.000 A 
ATOM     76  C   UNL     1      -8.670   2.314 130.327  0.00  0.00    +0.000 A 
BRANCH  74  77
ATOM     77  O   UNL     1     -10.032   4.198 133.377  0.00  0.00    +0.000 OA
ATOM     78  H   UNL     1      -9.938   4.206 134.358  0.00  0.00    +0.000 HD
ENDBRANCH  74  77
ENDBRANCH  70  71
ENDBRANCH   9  70
BRANCH   5  79
ATOM     79  C   UNL     1      -8.093  -0.845 125.300  0.00  0.00    +0.000 C 
BRANCH  79  80
ATOM     80  C   UNL     1      -7.372  -1.829 124.423  0.00  0.00    +0.000 A 
ATOM     81  C   UNL     1      -6.985  -3.141 124.786  0.00  0.00    +0.000 A 
ATOM     82  C   UNL     1      -5.940  -3.806 124.203  0.00  0.00    +0.000 A 
ATOM     83  C   UNL     1      -5.609  -3.372 122.953  0.00  0.00    +0.000 A 
ATOM     84  C   UNL     1      -6.107  -2.153 122.465  0.00  0.00    +0.000 A 
ATOM     85  C   UNL     1      -6.909  -1.331 123.235  0.00  0.00    +0.000 A 
ENDBRANCH  79  80
ENDBRANCH   5  79
BRANCH   1  86
ATOM     86  C   UNL     1      -6.004   4.210 124.694  0.00  0.00    +0.000 C 
BRANCH  86  87
ATOM     87  N   UNL     1      -5.335   4.516 123.443  0.00  0.00    +0.000 NA
ATOM     88  H   UNL     1      -4.354   4.290 123.570  0.00  0.00    +0.000 HD
ATOM     89  H   UNL     1      -5.376   5.531 123.270  0.00  0.00    +0.000 HD
ENDBRANCH  86  87
ENDBRANCH   1  86
TORSDOF 19
ENDMDL
MODEL 3
REMARK VINA RESULT:      -9.4      1.988      3.573
REMARK  Name = CHEMBL2369841
REMARK  19 active torsions:
REMARK  status: ('A' for Active; 'I' for Inactive)
REMARK    1  A    between atoms: N_1  and  C_2
REMARK    2  A    between atoms: C_2  and  C_3
REMARK    3  A    between atoms: C_7  and  C_8
REMARK    4  A    between atoms: C_8  and  C_9
REMARK    5  A    between atoms: C_18  and  C_19
REMARK    6  A    between atoms: C_19  and  C_20
REMARK    7  A    between atoms: C_23  and  O_24
REMARK    8  A    between atoms: C_35  and  C_36
REMARK    9  A    between atoms: C_42  and  C_43
REMARK   10  A    between atoms: N_45  and  C_46
REMARK   11  A    between atoms: C_46  and  C_47
REMARK   12  A    between atoms: C_46  and  C_54
REMARK   13  A    between atoms: C_47  and  C_48
REMARK   14  A    between atoms: C_48  and  C_49
REMARK   15  A    between atoms: C_49  and  N_50
REMARK   16  A    between atoms: N_56  and  C_57
REMARK   17  A    between atoms: C_57  and  C_58
REMARK   18  A    between atoms: C_64  and  C_65
REMARK   19  A    between atoms: C_65  and  C_66
REMARK                            x       y       z     vdW  Elec       q    Type
REMARK                         _______ _______ _______ _____ _____    ______ ____
ROOT
ATOM      1  C   UNL     1      -6.991   3.531 125.636  0.00  0.00    +0.000 C 
ATOM      2  N   UNL     1      -8.090   2.377 125.321  0.00  0.00    +0.000 N 
ATOM      3  C   UNL     1      -8.147   1.004 125.904  0.00  0.00    +0.000 C 
ATOM      4  O   UNL     1      -9.147   0.666 126.584  0.00  0.00    +0.000 OA
ATOM      5  C   UNL     1      -6.960   0.048 125.687  0.00  0.00    +0.000 C 
ATOM      6  N   UNL     1      -5.812  -0.295 126.556  0.00  0.00    +0.000 N 
ATOM      7  C   UNL     1      -5.785  -0.991 127.792  0.00  0.00    +0.000 C 
ATOM      8  O   UNL     1      -4.623  -1.190 128.198  0.00  0.00    +0.000 OA
ATOM      9  C   UNL     1      -7.312  -1.269 128.801  0.00  0.00    +0.000 C 
ATOM     10  N   UNL     1      -7.075  -2.634 129.112  0.00  0.00    +0.000 N 
ATOM     11  C   UNL     1      -6.160  -2.993 130.048  0.00  0.00    +0.000 C 
ATOM     12  O   UNL     1      -6.005  -4.206 130.220  0.00  0.00    +0.000 OA
ATOM     13  C   UNL     1      -5.341  -1.955 130.900  0.00  0.00    +0.000 C 
ATOM     14  C   UNL     1      -5.382  -0.418 130.786  0.00  0.00    +0.000 C 
ATOM     15  S   UNL     1      -4.293   0.635 131.794  0.00  0.00    +0.000 S 
ATOM     16  S   UNL     1      -5.454   2.368 131.748  0.00  0.00    +0.000 S 
ATOM     17  C   UNL     1      -4.331   3.792 131.713  0.00  0.00    +0.000 C 
ATOM     18  C   UNL     1      -4.779   5.213 131.321  0.00  0.00    +0.000 C 
ATOM     19  N   UNL     1      -4.415   5.549 129.888  0.00  0.00    +0.000 N 
ATOM     20  C   UNL     1      -4.797   4.993 128.702  0.00  0.00    +0.000 C 
ATOM     21  O   UNL     1      -4.331   5.255 127.598  0.00  0.00    +0.000 OA
ATOM     22  C   UNL     1      -5.943   4.097 128.762  0.00  0.00    +0.000 C 
ATOM     23  N   UNL     1      -7.041   4.796 127.874  0.00  0.00    +0.000 N 
ATOM     24  C   UNL     1      -7.571   4.626 126.602  0.00  0.00    +0.000 C 
ATOM     25  O   UNL     1      -8.800   4.852 126.580  0.00  0.00    +0.000 OA
ATOM     26  H   UNL     1      -9.010   2.775 125.573  0.00  0.00    +0.000 HD
ATOM     27  H   UNL     1      -5.017   0.333 126.499  0.00  0.00    +0.000 HD
ATOM     28  H   UNL     1      -7.557  -3.348 128.580  0.00  0.00    +0.000 HD
ATOM     29  H   UNL     1      -3.810   6.357 129.761  0.00  0.00    +0.000 HD
ATOM     30  H   UNL     1      -7.916   4.763 128.353  0.00  0.00    +0.000 HD
ENDROOT
BRANCH  18  31
ATOM     31  C   UNL     1      -4.114   6.315 132.231  0.00  0.00    +0.000 C 
ATOM     32  O   UNL     1      -4.795   6.792 133.147  0.00  0.00    +0.000 OA
ATOM     33  N   UNL     1      -2.743   6.552 132.140  0.00  0.00    +0.000 N 
ATOM     34  C   UNL     1      -1.926   6.782 130.957  0.00  0.00    +0.000 C 
ATOM     35  C   UNL     1      -0.571   6.327 131.413  0.00  0.00    +0.000 C 
ATOM     36  C   UNL     1      -0.477   6.947 132.790  0.00  0.00    +0.000 C 
ATOM     37  C   UNL     1      -1.933   7.001 133.308  0.00  0.00    +0.000 C 
BRANCH  37  38
ATOM     38  C   UNL     1      -2.143   8.480 133.675  0.00  0.00    +0.000 C 
ATOM     39  O   UNL     1      -2.053   9.350 132.807  0.00  0.00    +0.000 OA
ATOM     40  N   UNL     1      -2.322   8.786 135.021  0.00  0.00    +0.000 N 
ATOM     41  H   UNL     1      -2.070   8.122 135.748  0.00  0.00    +0.000 HD
BRANCH  40  42
ATOM     42  C   UNL     1      -2.723  10.136 135.484  0.00  0.00    +0.000 C 
BRANCH  42  43
ATOM     43  C   UNL     1      -1.534  11.149 135.353  0.00  0.00    +0.000 C 
ATOM     44  O   UNL     1      -0.532  11.066 136.061  0.00  0.00    +0.000 OA
ATOM     45  N   UNL     1      -1.674  12.136 134.391  0.00  0.00    +0.000 N 
ATOM     46  H   UNL     1      -2.505  12.148 133.824  0.00  0.00    +0.000 HD
BRANCH  45  47
ATOM     47  C   UNL     1      -0.658  13.169 134.168  0.00  0.00    +0.000 C 
BRANCH  47  48
ATOM     48  C   UNL     1       0.385  12.877 133.071  0.00  0.00    +0.000 C 
ATOM     49  N   UNL     1      -0.061  12.668 131.796  0.00  0.00    +0.000 N 
ATOM     50  O   UNL     1       1.591  12.830 133.299  0.00  0.00    +0.000 OA
ATOM     51  H   UNL     1      -1.019  12.677 131.494  0.00  0.00    +0.000 HD
ATOM     52  H   UNL     1       0.638  12.474 131.088  0.00  0.00    +0.000 HD
ENDBRANCH  47  48
ENDBRANCH  45  47
ENDBRANCH  42  43
BRANCH  42  53
ATOM     53  C   UNL     1      -3.188  10.085 136.957  0.00  0.00    +0.000 C 
BRANCH  53  54
ATOM     54  C   UNL     1      -4.699   9.936 137.084  0.00  0.00    +0.000 C 
BRANCH  54  55
ATOM     55  C   UNL     1      -5.162   8.630 137.654  0.00  0.00    +0.000 C 
BRANCH  55  56
ATOM     56  N   UNL     1      -4.234   7.591 137.204  0.00  0.00    +0.000 NA
ATOM     57  C   UNL     1      -4.735   6.659 136.482  0.00  0.00    +0.000 C 
ATOM     58  N   UNL     1      -6.017   6.572 136.088  0.00  0.00    +0.000 N 
ATOM     59  N   UNL     1      -3.961   5.657 136.036  0.00  0.00    +0.000 N 
ATOM     60  H   UNL     1      -6.668   7.276 136.398  0.00  0.00    +0.000 HD
ATOM     61  H   UNL     1      -6.372   5.831 135.512  0.00  0.00    +0.000 HD
ATOM     62  H   UNL     1      -2.989   5.664 136.319  0.00  0.00    +0.000 HD
ATOM     63  H   UNL     1      -4.287   4.902 135.459  0.00  0.00    +0.000 HD
ENDBRANCH  55  56
ENDBRANCH  54  55
ENDBRANCH  53  54
ENDBRANCH  42  53
ENDBRANCH  40  42
ENDBRANCH  37  38
ENDBRANCH  18  31
BRANCH  22  64
ATOM     64  C   UNL     1      -5.529   2.684 128.454  0.00  0.00    +0.000 C 
BRANCH  64  65
ATOM     65  C   UNL     1      -4.153   2.722 128.039  0.00  0.00    +0.000 C 
ATOM     66  N   UNL     1      -3.583   2.577 126.839  0.00  0.00    +0.000 N 
ATOM     67  O   UNL     1      -3.320   2.620 128.947  0.00  0.00    +0.000 OA
ATOM     68  H   UNL     1      -3.822   2.207 125.933  0.00  0.00    +0.000 HD
ATOM     69  H   UNL     1      -2.580   2.402 126.721  0.00  0.00    +0.000 HD
ENDBRANCH  64  65
ENDBRANCH  22  64
BRANCH   9  70
ATOM     70  C   UNL     1      -8.189  -0.659 130.289  0.00  0.00    +0.000 C 
BRANCH  70  71
ATOM     71  C   UNL     1      -8.519   0.807 130.713  0.00  0.00    +0.000 A 
ATOM     72  C   UNL     1      -8.371   0.959 132.000  0.00  0.00    +0.000 A 
ATOM     73  C   UNL     1      -9.127   1.953 132.684  0.00  0.00    +0.000 A 
ATOM     74  C   UNL     1      -9.426   3.203 132.438  0.00  0.00    +0.000 A 
ATOM     75  C   UNL     1      -9.218   3.284 131.114  0.00  0.00    +0.000 A 
ATOM     76  C   UNL     1      -8.800   2.090 130.237  0.00  0.00    +0.000 A 
BRANCH  74  77
ATOM     77  O   UNL     1     -10.046   4.040 133.296  0.00  0.00    +0.000 OA
ATOM     78  H   UNL     1     -10.197   3.877 134.255  0.00  0.00    +0.000 HD
ENDBRANCH  74  77
ENDBRANCH  70  71
ENDBRANCH   9  70
BRANCH   5  79
ATOM     79  C   UNL     1      -7.599  -1.270 125.339  0.00  0.00    +0.000 C 
BRANCH  79  80
ATOM     80  C   UNL     1      -6.773  -2.161 124.454  0.00  0.00    +0.000 A 
ATOM     81  C   UNL     1      -6.147  -3.370 124.841  0.00  0.00    +0.000 A 
ATOM     82  C   UNL     1      -5.040  -3.877 124.216  0.00  0.00    +0.000 A 
ATOM     83  C   UNL     1      -4.862  -3.456 122.931  0.00  0.00    +0.000 A 
ATOM     84  C   UNL     1      -5.588  -2.363 122.431  0.00  0.00    +0.000 A 
ATOM     85  C   UNL     1      -6.473  -1.651 123.221  0.00  0.00    +0.000 A 
ENDBRANCH  79  80
ENDBRANCH   5  79
BRANCH   1  86
ATOM     86  C   UNL     1      -5.906   3.920 124.649  0.00  0.00    +0.000 C 
BRANCH  86  87
ATOM     87  N   UNL     1      -5.166   4.303 123.460  0.00  0.00    +0.000 NA
ATOM     88  H   UNL     1      -4.194   4.069 123.630  0.00  0.00    +0.000 HD
ATOM     89  H   UNL     1      -5.199   5.328 123.350  0.00  0.00    +0.000 HD
ENDBRANCH  86  87
ENDBRANCH   1  86
TORSDOF 19
ENDMDL
MODEL 4
REMARK VINA RESULT:      -9.0      4.533      7.238
REMARK  Name = CHEMBL2369841
REMARK  19 active torsions:
REMARK  status: ('A' for Active; 'I' for Inactive)
REMARK    1  A    between atoms: N_1  and  C_2
REMARK    2  A    between atoms: C_2  and  C_3
REMARK    3  A    between atoms: C_7  and  C_8
REMARK    4  A    between atoms: C_8  and  C_9
REMARK    5  A    between atoms: C_18  and  C_19
REMARK    6  A    between atoms: C_19  and  C_20
REMARK    7  A    between atoms: C_23  and  O_24
REMARK    8  A    between atoms: C_35  and  C_36
REMARK    9  A    between atoms: C_42  and  C_43
REMARK   10  A    between atoms: N_45  and  C_46
REMARK   11  A    between atoms: C_46  and  C_47
REMARK   12  A    between atoms: C_46  and  C_54
REMARK   13  A    between atoms: C_47  and  C_48
REMARK   14  A    between atoms: C_48  and  C_49
REMARK   15  A    between atoms: C_49  and  N_50
REMARK   16  A    between atoms: N_56  and  C_57
REMARK   17  A    between atoms: C_57  and  C_58
REMARK   18  A    between atoms: C_64  and  C_65
REMARK   19  A    between atoms: C_65  and  C_66
REMARK                            x       y       z     vdW  Elec       q    Type
REMARK                         _______ _______ _______ _____ _____    ______ ____
ROOT
ATOM      1  C   UNL     1     -10.138   3.009 130.504  0.00  0.00    +0.000 C 
ATOM      2  N   UNL     1      -9.634   1.875 129.455  0.00  0.00    +0.000 N 
ATOM      3  C   UNL     1      -8.322   1.825 128.744  0.00  0.00    +0.000 C 
ATOM      4  O   UNL     1      -7.549   0.856 128.947  0.00  0.00    +0.000 OA
ATOM      5  C   UNL     1      -7.934   2.982 127.805  0.00  0.00    +0.000 C 
ATOM      6  N   UNL     1      -7.075   4.168 128.023  0.00  0.00    +0.000 N 
ATOM      7  C   UNL     1      -5.676   4.248 128.244  0.00  0.00    +0.000 C 
ATOM      8  O   UNL     1      -5.270   5.426 128.286  0.00  0.00    +0.000 OA
ATOM      9  C   UNL     1      -4.667   2.772 128.722  0.00  0.00    +0.000 C 
ATOM     10  N   UNL     1      -3.582   3.002 127.834  0.00  0.00    +0.000 N 
ATOM     11  C   UNL     1      -2.655   3.958 128.092  0.00  0.00    +0.000 C 
ATOM     12  O   UNL     1      -1.771   4.101 127.241  0.00  0.00    +0.000 OA
ATOM     13  C   UNL     1      -2.658   4.839 129.395  0.00  0.00    +0.000 C 
ATOM     14  C   UNL     1      -3.701   4.818 130.530  0.00  0.00    +0.000 C 
ATOM     15  S   UNL     1      -3.600   5.976 131.930  0.00  0.00    +0.000 S 
ATOM     16  S   UNL     1      -4.678   4.844 133.312  0.00  0.00    +0.000 S 
ATOM     17  C   UNL     1      -5.624   5.988 134.354  0.00  0.00    +0.000 C 
ATOM     18  C   UNL     1      -6.800   5.545 135.244  0.00  0.00    +0.000 C 
ATOM     19  N   UNL     1      -8.142   5.838 134.601  0.00  0.00    +0.000 N 
ATOM     20  C   UNL     1      -8.714   5.384 133.449  0.00  0.00    +0.000 C 
ATOM     21  O   UNL     1      -9.754   5.797 132.948  0.00  0.00    +0.000 OA
ATOM     22  C   UNL     1      -8.074   4.229 132.837  0.00  0.00    +0.000 C 
ATOM     23  N   UNL     1      -9.170   3.097 132.884  0.00  0.00    +0.000 N 
ATOM     24  C   UNL     1     -10.045   2.498 131.986  0.00  0.00    +0.000 C 
ATOM     25  O   UNL     1     -10.164   1.275 132.207  0.00  0.00    +0.000 OA
ATOM     26  H   UNL     1      -9.655   0.976 129.965  0.00  0.00    +0.000 HD
ATOM     27  H   UNL     1      -7.534   4.970 128.443  0.00  0.00    +0.000 HD
ATOM     28  H   UNL     1      -3.540   2.480 126.967  0.00  0.00    +0.000 HD
ATOM     29  H   UNL     1      -8.762   6.449 135.128  0.00  0.00    +0.000 HD
ATOM     30  H   UNL     1      -8.749   2.249 133.196  0.00  0.00    +0.000 HD
ENDROOT
BRANCH  18  31
ATOM     31  C   UNL     1      -6.793   6.275 136.641  0.00  0.00    +0.000 C 
ATOM     32  O   UNL     1      -7.455   7.314 136.750  0.00  0.00    +0.000 OA
ATOM     33  N   UNL     1      -6.253   5.633 137.754  0.00  0.00    +0.000 N 
ATOM     34  C   UNL     1      -4.968   4.965 137.897  0.00  0.00    +0.000 C 
ATOM     35  C   UNL     1      -5.242   3.980 138.996  0.00  0.00    +0.000 C 
ATOM     36  C   UNL     1      -6.010   4.823 139.990  0.00  0.00    +0.000 C 
ATOM     37  C   UNL     1      -6.764   5.868 139.135  0.00  0.00    +0.000 C 
BRANCH  37  38
ATOM     38  C   UNL     1      -6.334   7.218 139.732  0.00  0.00    +0.000 C 
ATOM     39  O   UNL     1      -5.327   7.288 140.438  0.00  0.00    +0.000 OA
ATOM     40  N   UNL     1      -7.181   8.305 139.533  0.00  0.00    +0.000 N 
ATOM     41  H   UNL     1      -8.146   8.172 139.243  0.00  0.00    +0.000 HD
BRANCH  40  42
ATOM     42  C   UNL     1      -6.795   9.691 139.886  0.00  0.00    +0.000 C 
BRANCH  42  43
ATOM     43  C   UNL     1      -7.969  10.432 140.614  0.00  0.00    +0.000 C 
ATOM     44  O   UNL     1      -8.204  10.255 141.808  0.00  0.00    +0.000 OA
ATOM     45  N   UNL     1      -8.720  11.300 139.838  0.00  0.00    +0.000 N 
ATOM     46  H   UNL     1      -8.474  11.424 138.871  0.00  0.00    +0.000 HD
BRANCH  45  47
ATOM     47  C   UNL     1      -9.864  12.045 140.371  0.00  0.00    +0.000 C 
BRANCH  47  48
ATOM     48  C   UNL     1      -9.613  13.524 140.726  0.00  0.00    +0.000 C 
ATOM     49  N   UNL     1      -8.691  14.216 139.991  0.00  0.00    +0.000 N 
ATOM     50  O   UNL     1     -10.209  14.099 141.634  0.00  0.00    +0.000 OA
ATOM     51  H   UNL     1      -8.142  13.851 139.233  0.00  0.00    +0.000 HD
ATOM     52  H   UNL     1      -8.536  15.185 140.241  0.00  0.00    +0.000 HD
ENDBRANCH  47  48
ENDBRANCH  45  47
ENDBRANCH  42  43
BRANCH  42  53
ATOM     53  C   UNL     1      -6.402  10.483 138.618  0.00  0.00    +0.000 C 
BRANCH  53  54
ATOM     54  C   UNL     1      -4.932  10.312 138.259  0.00  0.00    +0.000 C 
BRANCH  54  55
ATOM     55  C   UNL     1      -4.667   9.457 137.057  0.00  0.00    +0.000 C 
BRANCH  55  56
ATOM     56  N   UNL     1      -3.742   8.394 137.458  0.00  0.00    +0.000 NA
ATOM     57  C   UNL     1      -2.991   7.920 136.535  0.00  0.00    +0.000 C 
ATOM     58  N   UNL     1      -2.966   8.327 135.254  0.00  0.00    +0.000 N 
ATOM     59  N   UNL     1      -2.122   6.934 136.807  0.00  0.00    +0.000 N 
ATOM     60  H   UNL     1      -3.605   9.051 134.963  0.00  0.00    +0.000 HD
ATOM     61  H   UNL     1      -2.356   7.938 134.559  0.00  0.00    +0.000 HD
ATOM     62  H   UNL     1      -2.112   6.577 137.754  0.00  0.00    +0.000 HD
ATOM     63  H   UNL     1      -1.499   6.524 136.134  0.00  0.00    +0.000 HD
ENDBRANCH  55  56
ENDBRANCH  54  55
ENDBRANCH  53  54
ENDBRANCH  42  53
ENDBRANCH  40  42
ENDBRANCH  37  38
ENDBRANCH  18  31
BRANCH  22  64
ATOM     64  C   UNL     1      -7.450   4.602 131.520  0.00  0.00    +0.000 C 
BRANCH  64  65
ATOM     65  C   UNL     1      -7.868   5.943 131.213  0.00  0.00    +0.000 C 
ATOM     66  N   UNL     1      -8.806   6.413 130.386  0.00  0.00    +0.000 N 
ATOM     67  O   UNL     1      -7.088   6.836 131.561  0.00  0.00    +0.000 OA
ATOM     68  H   UNL     1      -9.346   6.089 129.599  0.00  0.00    +0.000 HD
ATOM     69  H   UNL     1      -8.846   7.395 130.095  0.00  0.00    +0.000 HD
ENDBRANCH  64  65
ENDBRANCH  22  64
BRANCH   9  70
ATOM     70  C   UNL     1      -3.854   1.985 130.163  0.00  0.00    +0.000 C 
BRANCH  70  71
ATOM     71  C   UNL     1      -4.436   0.966 131.192  0.00  0.00    +0.000 A 
ATOM     72  C   UNL     1      -5.474   1.467 131.802  0.00  0.00    +0.000 A 
ATOM     73  C   UNL     1      -5.805   1.024 133.113  0.00  0.00    +0.000 A 
ATOM     74  C   UNL     1      -5.868  -0.149 133.692  0.00  0.00    +0.000 A 
ATOM     75  C   UNL     1      -5.109  -0.901 132.880  0.00  0.00    +0.000 A 
ATOM     76  C   UNL     1      -4.361  -0.352 131.651  0.00  0.00    +0.000 A 
BRANCH  74  77
ATOM     77  O   UNL     1      -6.353  -0.384 134.929  0.00  0.00    +0.000 OA
ATOM     78  H   UNL     1      -7.159   0.026 135.321  0.00  0.00    +0.000 HD
ENDBRANCH  74  77
ENDBRANCH  70  71
ENDBRANCH   9  70
BRANCH   5  79
ATOM     79  C   UNL     1      -7.368   2.304 126.587  0.00  0.00    +0.000 C 
BRANCH  79  80
ATOM     80  C   UNL     1      -8.288   2.261 125.400  0.00  0.00    +0.000 A 
ATOM     81  C   UNL     1      -9.413   1.415 125.248  0.00  0.00    +0.000 A 
ATOM     82  C   UNL     1      -9.909   1.035 124.030  0.00  0.00    +0.000 A 
ATOM     83  C   UNL     1      -9.605   1.874 122.998  0.00  0.00    +0.000 A 
ATOM     84  C   UNL     1      -8.613   2.858 123.147  0.00  0.00    +0.000 A 
ATOM     85  C   UNL     1      -7.884   2.989 124.315  0.00  0.00    +0.000 A 
ENDBRANCH  79  80
ENDBRANCH   5  79
BRANCH   1  86
ATOM     86  C   UNL     1     -11.185   4.046 130.146  0.00  0.00    +0.000 C 
BRANCH  86  87
ATOM     87  N   UNL     1     -11.882   5.223 129.658  0.00  0.00    +0.000 NA
ATOM     88  H   UNL     1     -11.282   6.019 129.846  0.00  0.00    +0.000 HD
ATOM     89  H   UNL     1     -12.738   5.371 130.212  0.00  0.00    +0.000 HD
ENDBRANCH  86  87
ENDBRANCH   1  86
TORSDOF 19
ENDMDL
MODEL 5
REMARK VINA RESULT:      -8.7      3.641      7.129
REMARK  Name = CHEMBL2369841
REMARK  19 active torsions:
REMARK  status: ('A' for Active; 'I' for Inactive)
REMARK    1  A    between atoms: N_1  and  C_2
REMARK    2  A    between atoms: C_2  and  C_3
REMARK    3  A    between atoms: C_7  and  C_8
REMARK    4  A    between atoms: C_8  and  C_9
REMARK    5  A    between atoms: C_18  and  C_19
REMARK    6  A    between atoms: C_19  and  C_20
REMARK    7  A    between atoms: C_23  and  O_24
REMARK    8  A    between atoms: C_35  and  C_36
REMARK    9  A    between atoms: C_42  and  C_43
REMARK   10  A    between atoms: N_45  and  C_46
REMARK   11  A    between atoms: C_46  and  C_47
REMARK   12  A    between atoms: C_46  and  C_54
REMARK   13  A    between atoms: C_47  and  C_48
REMARK   14  A    between atoms: C_48  and  C_49
REMARK   15  A    between atoms: C_49  and  N_50
REMARK   16  A    between atoms: N_56  and  C_57
REMARK   17  A    between atoms: C_57  and  C_58
REMARK   18  A    between atoms: C_64  and  C_65
REMARK   19  A    between atoms: C_65  and  C_66
REMARK                            x       y       z     vdW  Elec       q    Type
REMARK                         _______ _______ _______ _____ _____    ______ ____
ROOT
ATOM      1  C   UNL     1      -5.274  -0.807 131.447  0.00  0.00    +0.000 C 
ATOM      2  N   UNL     1      -4.811  -0.902 129.893  0.00  0.00    +0.000 N 
ATOM      3  C   UNL     1      -5.304  -0.072 128.754  0.00  0.00    +0.000 C 
ATOM      4  O   UNL     1      -4.496   0.659 128.130  0.00  0.00    +0.000 OA
ATOM      5  C   UNL     1      -6.801  -0.108 128.395  0.00  0.00    +0.000 C 
ATOM      6  N   UNL     1      -7.909   0.810 128.742  0.00  0.00    +0.000 N 
ATOM      7  C   UNL     1      -8.133   2.154 128.347  0.00  0.00    +0.000 C 
ATOM      8  O   UNL     1      -9.229   2.590 128.750  0.00  0.00    +0.000 OA
ATOM      9  C   UNL     1      -6.799   3.198 127.600  0.00  0.00    +0.000 C 
ATOM     10  N   UNL     1      -7.576   3.758 126.551  0.00  0.00    +0.000 N 
ATOM     11  C   UNL     1      -8.476   4.744 126.794  0.00  0.00    +0.000 C 
ATOM     12  O   UNL     1      -9.125   5.139 125.820  0.00  0.00    +0.000 OA
ATOM     13  C   UNL     1      -8.694   5.387 128.212  0.00  0.00    +0.000 C 
ATOM     14  C   UNL     1      -8.003   4.989 129.531  0.00  0.00    +0.000 C 
ATOM     15  S   UNL     1      -8.444   5.783 131.108  0.00  0.00    +0.000 S 
ATOM     16  S   UNL     1      -6.657   5.414 132.120  0.00  0.00    +0.000 S 
ATOM     17  C   UNL     1      -7.054   5.115 133.864  0.00  0.00    +0.000 C 
ATOM     18  C   UNL     1      -6.070   4.465 134.855  0.00  0.00    +0.000 C 
ATOM     19  N   UNL     1      -6.369   2.994 135.072  0.00  0.00    +0.000 N 
ATOM     20  C   UNL     1      -6.362   1.933 134.215  0.00  0.00    +0.000 C 
ATOM     21  O   UNL     1      -6.759   0.800 134.466  0.00  0.00    +0.000 OA
ATOM     22  C   UNL     1      -5.716   2.159 132.931  0.00  0.00    +0.000 C 
ATOM     23  N   UNL     1      -4.500   1.157 132.916  0.00  0.00    +0.000 N 
ATOM     24  C   UNL     1      -4.201  -0.062 132.320  0.00  0.00    +0.000 C 
ATOM     25  O   UNL     1      -3.002  -0.125 131.976  0.00  0.00    +0.000 OA
ATOM     26  H   UNL     1      -3.792  -0.728 129.882  0.00  0.00    +0.000 HD
ATOM     27  H   UNL     1      -8.358   0.637 129.637  0.00  0.00    +0.000 HD
ATOM     28  H   UNL     1      -7.494   3.367 125.620  0.00  0.00    +0.000 HD
ATOM     29  H   UNL     1      -6.574   2.719 136.029  0.00  0.00    +0.000 HD
ATOM     30  H   UNL     1      -3.689   1.633 132.583  0.00  0.00    +0.000 HD
ENDROOT
BRANCH  18  31
ATOM     31  C   UNL     1      -6.117   5.154 136.273  0.00  0.00    +0.000 C 
ATOM     32  O   UNL     1      -7.107   5.844 136.544  0.00  0.00    +0.000 OA
ATOM     33  N   UNL     1      -5.188   4.793 137.248  0.00  0.00    +0.000 N 
ATOM     34  C   UNL     1      -3.739   4.695 137.146  0.00  0.00    +0.000 C 
ATOM     35  C   UNL     1      -3.413   3.696 138.217  0.00  0.00    +0.000 C 
ATOM     36  C   UNL     1      -4.272   4.174 139.366  0.00  0.00    +0.000 C 
ATOM     37  C   UNL     1      -5.510   4.821 138.703  0.00  0.00    +0.000 C 
BRANCH  37  38
ATOM     38  C   UNL     1      -5.555   6.237 139.300  0.00  0.00    +0.000 C 
ATOM     39  O   UNL     1      -5.625   6.391 140.520  0.00  0.00    +0.000 OA
ATOM     40  N   UNL     1      -5.625   7.305 138.410  0.00  0.00    +0.000 N 
ATOM     41  H   UNL     1      -5.895   7.163 137.440  0.00  0.00    +0.000 HD
BRANCH  40  42
ATOM     42  C   UNL     1      -5.479   8.715 138.844  0.00  0.00    +0.000 C 
BRANCH  42  43
ATOM     43  C   UNL     1      -6.849   9.473 138.751  0.00  0.00    +0.000 C 
ATOM     44  O   UNL     1      -6.904  10.698 138.641  0.00  0.00    +0.000 OA
ATOM     45  N   UNL     1      -7.988   8.687 138.793  0.00  0.00    +0.000 N 
ATOM     46  H   UNL     1      -7.888   7.689 138.864  0.00  0.00    +0.000 HD
BRANCH  45  47
ATOM     47  C   UNL     1      -9.339   9.254 138.742  0.00  0.00    +0.000 C 
BRANCH  47  48
ATOM     48  C   UNL     1     -10.177   8.912 137.494  0.00  0.00    +0.000 C 
ATOM     49  N   UNL     1     -11.537   9.014 137.583  0.00  0.00    +0.000 N 
ATOM     50  O   UNL     1      -9.671   8.557 136.432  0.00  0.00    +0.000 OA
ATOM     51  H   UNL     1     -12.059   9.287 138.397  0.00  0.00    +0.000 HD
ATOM     52  H   UNL     1     -12.073   8.781 136.755  0.00  0.00    +0.000 HD
ENDBRANCH  47  48
ENDBRANCH  45  47
ENDBRANCH  42  43
BRANCH  42  53
ATOM     53  C   UNL     1      -4.434   9.444 137.970  0.00  0.00    +0.000 C 
BRANCH  53  54
ATOM     54  C   UNL     1      -4.085   8.664 136.709  0.00  0.00    +0.000 C 
BRANCH  54  55
ATOM     55  C   UNL     1      -2.666   8.802 136.249  0.00  0.00    +0.000 C 
BRANCH  55  56
ATOM     56  N   UNL     1      -2.461   7.867 135.141  0.00  0.00    +0.000 NA
ATOM     57  C   UNL     1      -1.533   6.997 135.299  0.00  0.00    +0.000 C 
ATOM     58  N   UNL     1      -0.762   6.859 136.391  0.00  0.00    +0.000 N 
ATOM     59  N   UNL     1      -1.266   6.108 134.330  0.00  0.00    +0.000 N 
ATOM     60  H   UNL     1      -0.886   7.503 137.157  0.00  0.00    +0.000 HD
ATOM     61  H   UNL     1      -0.050   6.158 136.484  0.00  0.00    +0.000 HD
ATOM     62  H   UNL     1      -1.806   6.179 133.477  0.00  0.00    +0.000 HD
ATOM     63  H   UNL     1      -0.560   5.395 134.393  0.00  0.00    +0.000 HD
ENDBRANCH  55  56
ENDBRANCH  54  55
ENDBRANCH  53  54
ENDBRANCH  42  53
ENDBRANCH  40  42
ENDBRANCH  37  38
ENDBRANCH  18  31
BRANCH  22  64
ATOM     64  C   UNL     1      -6.723   2.119 131.814  0.00  0.00    +0.000 C 
BRANCH  64  65
ATOM     65  C   UNL     1      -7.960   1.643 132.370  0.00  0.00    +0.000 C 
ATOM     66  N   UNL     1      -8.579   0.462 132.276  0.00  0.00    +0.000 N 
ATOM     67  O   UNL     1      -8.721   2.515 132.801  0.00  0.00    +0.000 OA
ATOM     68  H   UNL     1      -8.556  -0.354 131.685  0.00  0.00    +0.000 HD
ATOM     69  H   UNL     1      -9.562   0.331 132.535  0.00  0.00    +0.000 HD
ENDBRANCH  64  65
ENDBRANCH  22  64
BRANCH   9  70
ATOM     70  C   UNL     1      -5.626   4.546 128.002  0.00  0.00    +0.000 C 
BRANCH  70  71
ATOM     71  C   UNL     1      -4.580   4.637 129.157  0.00  0.00    +0.000 A 
ATOM     72  C   UNL     1      -4.305   5.881 129.434  0.00  0.00    +0.000 A 
ATOM     73  C   UNL     1      -3.037   6.217 129.986  0.00  0.00    +0.000 A 
ATOM     74  C   UNL     1      -2.286   5.705 130.929  0.00  0.00    +0.000 A 
ATOM     75  C   UNL     1      -2.771   4.457 131.023  0.00  0.00    +0.000 A 
ATOM     76  C   UNL     1      -3.889   3.901 130.123  0.00  0.00    +0.000 A 
BRANCH  74  77
ATOM     77  O   UNL     1      -1.160   6.263 131.418  0.00  0.00    +0.000 OA
ATOM     78  H   UNL     1      -0.409   5.780 131.835  0.00  0.00    +0.000 HD
ENDBRANCH  74  77
ENDBRANCH  70  71
ENDBRANCH   9  70
BRANCH   5  79
ATOM     79  C   UNL     1      -6.825  -0.204 126.893  0.00  0.00    +0.000 C 
BRANCH  79  80
ATOM     80  C   UNL     1      -7.463  -1.450 126.348  0.00  0.00    +0.000 A 
ATOM     81  C   UNL     1      -7.729  -1.722 124.984  0.00  0.00    +0.000 A 
ATOM     82  C   UNL     1      -8.717  -2.572 124.565  0.00  0.00    +0.000 A 
ATOM     83  C   UNL     1      -9.096  -3.509 125.482  0.00  0.00    +0.000 A 
ATOM     84  C   UNL     1      -8.712  -3.387 126.827  0.00  0.00    +0.000 A 
ATOM     85  C   UNL     1      -7.978  -2.306 127.282  0.00  0.00    +0.000 A 
ENDBRANCH  79  80
ENDBRANCH   5  79
BRANCH   1  86
ATOM     86  C   UNL     1      -6.161  -1.849 132.102  0.00  0.00    +0.000 C 
BRANCH  86  87
ATOM     87  N   UNL     1      -7.164  -2.535 132.896  0.00  0.00    +0.000 NA
ATOM     88  H   UNL     1      -6.982  -3.529 132.807  0.00  0.00    +0.000 HD
ATOM     89  H   UNL     1      -8.096  -2.376 132.486  0.00  0.00    +0.000 HD
ENDBRANCH  86  87
ENDBRANCH   1  86
TORSDOF 19
ENDMDL
MODEL 6
REMARK VINA RESULT:      -8.5      5.170      8.674
REMARK  Name = CHEMBL2369841
REMARK  19 active torsions:
REMARK  status: ('A' for Active; 'I' for Inactive)
REMARK    1  A    between atoms: N_1  and  C_2
REMARK    2  A    between atoms: C_2  and  C_3
REMARK    3  A    between atoms: C_7  and  C_8
REMARK    4  A    between atoms: C_8  and  C_9
REMARK    5  A    between atoms: C_18  and  C_19
REMARK    6  A    between atoms: C_19  and  C_20
REMARK    7  A    between atoms: C_23  and  O_24
REMARK    8  A    between atoms: C_35  and  C_36
REMARK    9  A    between atoms: C_42  and  C_43
REMARK   10  A    between atoms: N_45  and  C_46
REMARK   11  A    between atoms: C_46  and  C_47
REMARK   12  A    between atoms: C_46  and  C_54
REMARK   13  A    between atoms: C_47  and  C_48
REMARK   14  A    between atoms: C_48  and  C_49
REMARK   15  A    between atoms: C_49  and  N_50
REMARK   16  A    between atoms: N_56  and  C_57
REMARK   17  A    between atoms: C_57  and  C_58
REMARK   18  A    between atoms: C_64  and  C_65
REMARK   19  A    between atoms: C_65  and  C_66
REMARK                            x       y       z     vdW  Elec       q    Type
REMARK                         _______ _______ _______ _____ _____    ______ ____
ROOT
ATOM      1  C   UNL     1      -4.585  -2.908 129.830  0.00  0.00    +0.000 C 
ATOM      2  N   UNL     1      -4.697  -2.153 128.396  0.00  0.00    +0.000 N 
ATOM      3  C   UNL     1      -5.503  -0.938 128.077  0.00  0.00    +0.000 C 
ATOM      4  O   UNL     1      -4.919   0.105 127.692  0.00  0.00    +0.000 OA
ATOM      5  C   UNL     1      -7.031  -0.983 128.263  0.00  0.00    +0.000 C 
ATOM      6  N   UNL     1      -7.893  -0.514 129.372  0.00  0.00    +0.000 N 
ATOM      7  C   UNL     1      -8.158   0.806 129.820  0.00  0.00    +0.000 C 
ATOM      8  O   UNL     1      -9.018   0.835 130.721  0.00  0.00    +0.000 OA
ATOM      9  C   UNL     1      -7.106   2.246 129.325  0.00  0.00    +0.000 C 
ATOM     10  N   UNL     1      -8.163   3.148 129.032  0.00  0.00    +0.000 N 
ATOM     11  C   UNL     1      -8.862   3.755 130.024  0.00  0.00    +0.000 C 
ATOM     12  O   UNL     1      -9.783   4.496 129.665  0.00  0.00    +0.000 OA
ATOM     13  C   UNL     1      -8.536   3.570 131.552  0.00  0.00    +0.000 C 
ATOM     14  C   UNL     1      -7.455   2.660 132.169  0.00  0.00    +0.000 C 
ATOM     15  S   UNL     1      -7.274   2.496 133.973  0.00  0.00    +0.000 S 
ATOM     16  S   UNL     1      -5.272   1.908 134.002  0.00  0.00    +0.000 S 
ATOM     17  C   UNL     1      -5.057   0.729 135.364  0.00  0.00    +0.000 C 
ATOM     18  C   UNL     1      -3.832  -0.195 135.497  0.00  0.00    +0.000 C 
ATOM     19  N   UNL     1      -4.125  -1.602 135.013  0.00  0.00    +0.000 N 
ATOM     20  C   UNL     1      -4.480  -2.083 133.787  0.00  0.00    +0.000 C 
ATOM     21  O   UNL     1      -4.832  -3.230 133.535  0.00  0.00    +0.000 OA
ATOM     22  C   UNL     1      -4.306  -1.164 132.671  0.00  0.00    +0.000 C 
ATOM     23  N   UNL     1      -3.234  -1.858 131.749  0.00  0.00    +0.000 N 
ATOM     24  C   UNL     1      -3.234  -2.566 130.554  0.00  0.00    +0.000 C 
ATOM     25  O   UNL     1      -2.234  -2.292 129.856  0.00  0.00    +0.000 OA
ATOM     26  H   UNL     1      -3.736  -1.866 128.143  0.00  0.00    +0.000 HD
ATOM     27  H   UNL     1      -8.013  -1.167 130.140  0.00  0.00    +0.000 HD
ATOM     28  H   UNL     1      -8.433   3.289 128.066  0.00  0.00    +0.000 HD
ATOM     29  H   UNL     1      -4.001  -2.342 135.700  0.00  0.00    +0.000 HD
ATOM     30  H   UNL     1      -2.561  -1.178 131.463  0.00  0.00    +0.000 HD
ENDROOT
BRANCH  18  31
ATOM     31  C   UNL     1      -3.343  -0.318 136.991  0.00  0.00    +0.000 C 
ATOM     32  O   UNL     1      -2.169  -0.019 137.238  0.00  0.00    +0.000 OA
ATOM     33  N   UNL     1      -4.274  -0.527 138.008  0.00  0.00    +0.000 N 
ATOM     34  C   UNL     1      -5.343  -1.512 138.089  0.00  0.00    +0.000 C 
ATOM     35  C   UNL     1      -6.322  -0.844 139.010  0.00  0.00    +0.000 C 
ATOM     36  C   UNL     1      -5.416  -0.307 140.095  0.00  0.00    +0.000 C 
ATOM     37  C   UNL     1      -4.074  -0.004 139.389  0.00  0.00    +0.000 C 
BRANCH  37  38
ATOM     38  C   UNL     1      -3.037  -0.793 140.206  0.00  0.00    +0.000 C 
ATOM     39  O   UNL     1      -3.406  -1.548 141.107  0.00  0.00    +0.000 OA
ATOM     40  N   UNL     1      -1.693  -0.531 139.957  0.00  0.00    +0.000 N 
ATOM     41  H   UNL     1      -1.405   0.309 139.462  0.00  0.00    +0.000 HD
BRANCH  40  42
ATOM     42  C   UNL     1      -0.602  -1.353 140.531  0.00  0.00    +0.000 C 
BRANCH  42  43
ATOM     43  C   UNL     1       0.761  -0.579 140.495  0.00  0.00    +0.000 C 
ATOM     44  O   UNL     1       1.785  -1.048 140.991  0.00  0.00    +0.000 OA
ATOM     45  N   UNL     1       0.748   0.655 139.868  0.00  0.00    +0.000 N 
ATOM     46  H   UNL     1      -0.111   0.984 139.461  0.00  0.00    +0.000 HD
BRANCH  45  47
ATOM     47  C   UNL     1       1.938   1.506 139.776  0.00  0.00    +0.000 C 
BRANCH  47  48
ATOM     48  C   UNL     1       1.827   2.743 138.864  0.00  0.00    +0.000 C 
ATOM     49  N   UNL     1       0.693   3.503 138.943  0.00  0.00    +0.000 N 
ATOM     50  O   UNL     1       2.713   3.070 138.078  0.00  0.00    +0.000 OA
ATOM     51  H   UNL     1      -0.095   3.330 139.540  0.00  0.00    +0.000 HD
ATOM     52  H   UNL     1       0.635   4.310 138.332  0.00  0.00    +0.000 HD
ENDBRANCH  47  48
ENDBRANCH  45  47
ENDBRANCH  42  43
BRANCH  42  53
ATOM     53  C   UNL     1      -0.455  -2.678 139.750  0.00  0.00    +0.000 C 
BRANCH  53  54
ATOM     54  C   UNL     1       0.040  -2.460 138.326  0.00  0.00    +0.000 C 
BRANCH  54  55
ATOM     55  C   UNL     1      -0.390  -3.501 137.337  0.00  0.00    +0.000 C 
BRANCH  55  56
ATOM     56  N   UNL     1       0.735  -3.754 136.435  0.00  0.00    +0.000 NA
ATOM     57  C   UNL     1       0.518  -3.549 135.189  0.00  0.00    +0.000 C 
ATOM     58  N   UNL     1      -0.631  -3.103 134.654  0.00  0.00    +0.000 N 
ATOM     59  N   UNL     1       1.488  -3.767 134.287  0.00  0.00    +0.000 N 
ATOM     60  H   UNL     1      -1.417  -2.933 135.263  0.00  0.00    +0.000 HD
ATOM     61  H   UNL     1      -0.762  -2.942 133.672  0.00  0.00    +0.000 HD
ATOM     62  H   UNL     1       2.369  -4.122 134.635  0.00  0.00    +0.000 HD
ATOM     63  H   UNL     1       1.387  -3.617 133.299  0.00  0.00    +0.000 HD
ENDBRANCH  55  56
ENDBRANCH  54  55
ENDBRANCH  53  54
ENDBRANCH  42  53
ENDBRANCH  40  42
ENDBRANCH  37  38
ENDBRANCH  18  31
BRANCH  22  64
ATOM     64  C   UNL     1      -5.638  -0.771 132.094  0.00  0.00    +0.000 C 
BRANCH  64  65
ATOM     65  C   UNL     1      -6.635  -1.600 132.715  0.00  0.00    +0.000 C 
ATOM     66  N   UNL     1      -7.278  -2.689 132.285  0.00  0.00    +0.000 N 
ATOM     67  O   UNL     1      -7.192  -1.111 133.704  0.00  0.00    +0.000 OA
ATOM     68  H   UNL     1      -7.470  -3.154 131.412  0.00  0.00    +0.000 HD
ATOM     69  H   UNL     1      -8.125  -3.047 132.739  0.00  0.00    +0.000 HD
ENDBRANCH  64  65
ENDBRANCH  22  64
BRANCH   9  70
ATOM     70  C   UNL     1      -5.787   3.352 129.951  0.00  0.00    +0.000 C 
BRANCH  70  71
ATOM     71  C   UNL     1      -4.559   3.954 129.198  0.00  0.00    +0.000 A 
ATOM     72  C   UNL     1      -4.062   4.963 129.858  0.00  0.00    +0.000 A 
ATOM     73  C   UNL     1      -3.370   5.991 129.159  0.00  0.00    +0.000 A 
ATOM     74  C   UNL     1      -2.471   6.003 128.207  0.00  0.00    +0.000 A 
ATOM     75  C   UNL     1      -2.619   4.782 127.670  0.00  0.00    +0.000 A 
ATOM     76  C   UNL     1      -3.678   3.764 128.130  0.00  0.00    +0.000 A 
BRANCH  74  77
ATOM     77  O   UNL     1      -1.815   7.097 127.767  0.00  0.00    +0.000 OA
ATOM     78  H   UNL     1      -1.177   7.126 127.017  0.00  0.00    +0.000 HD
ENDBRANCH  74  77
ENDBRANCH  70  71
ENDBRANCH   9  70
BRANCH   5  79
ATOM     79  C   UNL     1      -7.580  -0.320 127.029  0.00  0.00    +0.000 C 
BRANCH  79  80
ATOM     80  C   UNL     1      -7.956  -1.258 125.918  0.00  0.00    +0.000 A 
ATOM     81  C   UNL     1      -7.779  -1.024 124.533  0.00  0.00    +0.000 A 
ATOM     82  C   UNL     1      -8.546  -1.616 123.566  0.00  0.00    +0.000 A 
ATOM     83  C   UNL     1      -9.138  -2.787 123.939  0.00  0.00    +0.000 A 
ATOM     84  C   UNL     1      -9.190  -3.162 125.291  0.00  0.00    +0.000 A 
ATOM     85  C   UNL     1      -8.687  -2.352 126.293  0.00  0.00    +0.000 A 
ENDBRANCH  79  80
ENDBRANCH   5  79
BRANCH   1  86
ATOM     86  C   UNL     1      -5.252  -4.242 130.106  0.00  0.00    +0.000 C 
BRANCH  86  87
ATOM     87  N   UNL     1      -5.825  -5.417 130.737  0.00  0.00    +0.000 NA
ATOM     88  H   UNL     1      -5.071  -5.885 131.230  0.00  0.00    +0.000 HD
ATOM     89  H   UNL     1      -6.145  -6.076 130.011  0.00  0.00    +0.000 HD
ENDBRANCH  86  87
ENDBRANCH   1  86
TORSDOF 19
ENDMDL
MODEL 7
REMARK VINA RESULT:      -8.4      4.774      6.999
REMARK  Name = CHEMBL2369841
REMARK  19 active torsions:
REMARK  status: ('A' for Active; 'I' for Inactive)
REMARK    1  A    between atoms: N_1  and  C_2
REMARK    2  A    between atoms: C_2  and  C_3
REMARK    3  A    between atoms: C_7  and  C_8
REMARK    4  A    between atoms: C_8  and  C_9
REMARK    5  A    between atoms: C_18  and  C_19
REMARK    6  A    between atoms: C_19  and  C_20
REMARK    7  A    between atoms: C_23  and  O_24
REMARK    8  A    between atoms: C_35  and  C_36
REMARK    9  A    between atoms: C_42  and  C_43
REMARK   10  A    between atoms: N_45  and  C_46
REMARK   11  A    between atoms: C_46  and  C_47
REMARK   12  A    between atoms: C_46  and  C_54
REMARK   13  A    between atoms: C_47  and  C_48
REMARK   14  A    between atoms: C_48  and  C_49
REMARK   15  A    between atoms: C_49  and  N_50
REMARK   16  A    between atoms: N_56  and  C_57
REMARK   17  A    between atoms: C_57  and  C_58
REMARK   18  A    between atoms: C_64  and  C_65
REMARK   19  A    between atoms: C_65  and  C_66
REMARK                            x       y       z     vdW  Elec       q    Type
REMARK                         _______ _______ _______ _____ _____    ______ ____
ROOT
ATOM      1  C   UNL     1     -10.175   3.192 130.514  0.00  0.00    +0.000 C 
ATOM      2  N   UNL     1      -9.698   2.043 129.469  0.00  0.00    +0.000 N 
ATOM      3  C   UNL     1      -8.386   1.956 128.763  0.00  0.00    +0.000 C 
ATOM      4  O   UNL     1      -7.640   0.966 128.970  0.00  0.00    +0.000 OA
ATOM      5  C   UNL     1      -7.963   3.100 127.822  0.00  0.00    +0.000 C 
ATOM      6  N   UNL     1      -7.074   4.262 128.040  0.00  0.00    +0.000 N 
ATOM      7  C   UNL     1      -5.674   4.305 128.265  0.00  0.00    +0.000 C 
ATOM      8  O   UNL     1      -5.236   5.472 128.306  0.00  0.00    +0.000 OA
ATOM      9  C   UNL     1      -4.706   2.803 128.750  0.00  0.00    +0.000 C 
ATOM     10  N   UNL     1      -3.613   3.002 127.866  0.00  0.00    +0.000 N 
ATOM     11  C   UNL     1      -2.661   3.933 128.124  0.00  0.00    +0.000 C 
ATOM     12  O   UNL     1      -1.770   4.050 127.276  0.00  0.00    +0.000 OA
ATOM     13  C   UNL     1      -2.644   4.817 129.425  0.00  0.00    +0.000 C 
ATOM     14  C   UNL     1      -3.691   4.826 130.557  0.00  0.00    +0.000 C 
ATOM     15  S   UNL     1      -3.563   5.985 131.955  0.00  0.00    +0.000 S 
ATOM     16  S   UNL     1      -4.676   4.886 133.335  0.00  0.00    +0.000 S 
ATOM     17  C   UNL     1      -5.594   6.057 134.372  0.00  0.00    +0.000 C 
ATOM     18  C   UNL     1      -6.785   5.648 135.259  0.00  0.00    +0.000 C 
ATOM     19  N   UNL     1      -8.116   5.977 134.611  0.00  0.00    +0.000 N 
ATOM     20  C   UNL     1      -8.696   5.536 133.458  0.00  0.00    +0.000 C 
ATOM     21  O   UNL     1      -9.723   5.975 132.952  0.00  0.00    +0.000 OA
ATOM     22  C   UNL     1      -8.086   4.362 132.851  0.00  0.00    +0.000 C 
ATOM     23  N   UNL     1      -9.212   3.260 132.897  0.00  0.00    +0.000 N 
ATOM     24  C   UNL     1     -10.100   2.683 131.998  0.00  0.00    +0.000 C 
ATOM     25  O   UNL     1     -10.253   1.464 132.221  0.00  0.00    +0.000 OA
ATOM     26  H   UNL     1      -9.745   1.146 129.981  0.00  0.00    +0.000 HD
ATOM     27  H   UNL     1      -7.512   5.078 128.457  0.00  0.00    +0.000 HD
ATOM     28  H   UNL     1      -3.583   2.477 127.000  0.00  0.00    +0.000 HD
ATOM     29  H   UNL     1      -8.721   6.605 135.134  0.00  0.00    +0.000 HD
ATOM     30  H   UNL     1      -8.815   2.401 133.212  0.00  0.00    +0.000 HD
ENDROOT
BRANCH  18  31
ATOM     31  C   UNL     1      -6.762   6.382 136.654  0.00  0.00    +0.000 C 
ATOM     32  O   UNL     1      -7.468   7.389 136.786  0.00  0.00    +0.000 OA
ATOM     33  N   UNL     1      -6.153   5.768 137.748  0.00  0.00    +0.000 N 
ATOM     34  C   UNL     1      -4.834   5.161 137.846  0.00  0.00    +0.000 C 
ATOM     35  C   UNL     1      -5.022   4.167 138.955  0.00  0.00    +0.000 C 
ATOM     36  C   UNL     1      -5.793   4.976 139.974  0.00  0.00    +0.000 C 
ATOM     37  C   UNL     1      -6.625   5.982 139.146  0.00  0.00    +0.000 C 
BRANCH  37  38
ATOM     38  C   UNL     1      -6.238   7.352 139.726  0.00  0.00    +0.000 C 
ATOM     39  O   UNL     1      -5.397   8.049 139.156  0.00  0.00    +0.000 OA
ATOM     40  N   UNL     1      -6.788   7.705 140.956  0.00  0.00    +0.000 N 
ATOM     41  H   UNL     1      -7.208   7.006 141.562  0.00  0.00    +0.000 HD
BRANCH  40  42
ATOM     42  C   UNL     1      -6.651   9.065 141.529  0.00  0.00    +0.000 C 
BRANCH  42  43
ATOM     43  C   UNL     1      -5.311   9.202 142.331  0.00  0.00    +0.000 C 
ATOM     44  O   UNL     1      -4.782   8.234 142.876  0.00  0.00    +0.000 OA
ATOM     45  N   UNL     1      -4.756  10.470 142.385  0.00  0.00    +0.000 N 
ATOM     46  H   UNL     1      -5.219  11.223 141.906  0.00  0.00    +0.000 HD
BRANCH  45  47
ATOM     47  C   UNL     1      -3.520  10.759 143.117  0.00  0.00    +0.000 C 
BRANCH  47  48
ATOM     48  C   UNL     1      -2.201  10.448 142.383  0.00  0.00    +0.000 C 
ATOM     49  N   UNL     1      -1.727   9.167 142.424  0.00  0.00    +0.000 N 
ATOM     50  O   UNL     1      -1.570  11.301 141.764  0.00  0.00    +0.000 OA
ATOM     51  H   UNL     1      -2.152   8.392 142.901  0.00  0.00    +0.000 HD
ATOM     52  H   UNL     1      -0.856   8.981 141.939  0.00  0.00    +0.000 HD
ENDBRANCH  47  48
ENDBRANCH  45  47
ENDBRANCH  42  43
BRANCH  42  53
ATOM     53  C   UNL     1      -7.839   9.378 142.466  0.00  0.00    +0.000 C 
BRANCH  53  54
ATOM     54  C   UNL     1      -8.694  10.531 141.954  0.00  0.00    +0.000 C 
BRANCH  54  55
ATOM     55  C   UNL     1      -8.412  10.952 140.543  0.00  0.00    +0.000 C 
BRANCH  55  56
ATOM     56  N   UNL     1      -9.410  10.318 139.679  0.00  0.00    +0.000 NA
ATOM     57  C   UNL     1      -8.996   9.920 138.534  0.00  0.00    +0.000 C 
ATOM     58  N   UNL     1      -7.735  10.013 138.078  0.00  0.00    +0.000 N 
ATOM     59  N   UNL     1      -9.844   9.340 137.671  0.00  0.00    +0.000 N 
ATOM     60  H   UNL     1      -7.040  10.455 138.660  0.00  0.00    +0.000 HD
ATOM     61  H   UNL     1      -7.444   9.679 137.178  0.00  0.00    +0.000 HD
ATOM     62  H   UNL     1     -10.811   9.261 137.957  0.00  0.00    +0.000 HD
ATOM     63  H   UNL     1      -9.583   8.997 136.763  0.00  0.00    +0.000 HD
ENDBRANCH  55  56
ENDBRANCH  54  55
ENDBRANCH  53  54
ENDBRANCH  42  53
ENDBRANCH  40  42
ENDBRANCH  37  38
ENDBRANCH  18  31
BRANCH  22  64
ATOM     64  C   UNL     1      -7.448   4.714 131.535  0.00  0.00    +0.000 C 
BRANCH  64  65
ATOM     65  C   UNL     1      -7.833   6.063 131.221  0.00  0.00    +0.000 C 
ATOM     66  N   UNL     1      -8.786   6.551 130.421  0.00  0.00    +0.000 N 
ATOM     67  O   UNL     1      -7.013   6.936 131.525  0.00  0.00    +0.000 OA
ATOM     68  H   UNL     1      -9.364   6.233 129.659  0.00  0.00    +0.000 HD
ATOM     69  H   UNL     1      -8.804   7.529 130.115  0.00  0.00    +0.000 HD
ENDBRANCH  64  65
ENDBRANCH  22  64
BRANCH   9  70
ATOM     70  C   UNL     1      -3.920   1.998 130.195  0.00  0.00    +0.000 C 
BRANCH  70  71
ATOM     71  C   UNL     1      -4.522   0.971 131.205  0.00  0.00    +0.000 A 
ATOM     72  C   UNL     1      -5.533   1.490 131.844  0.00  0.00    +0.000 A 
ATOM     73  C   UNL     1      -5.861   1.021 133.148  0.00  0.00    +0.000 A 
ATOM     74  C   UNL     1      -5.956  -0.165 133.694  0.00  0.00    +0.000 A 
ATOM     75  C   UNL     1      -5.235  -0.919 132.850  0.00  0.00    +0.000 A 
ATOM     76  C   UNL     1      -4.487  -0.361 131.626  0.00  0.00    +0.000 A 
BRANCH  74  77
ATOM     77  O   UNL     1      -6.431  -0.417 134.931  0.00  0.00    +0.000 OA
ATOM     78  H   UNL     1      -7.356  -0.674 135.155  0.00  0.00    +0.000 HD
ENDBRANCH  74  77
ENDBRANCH  70  71
ENDBRANCH   9  70
BRANCH   5  79
ATOM     79  C   UNL     1      -7.412   2.403 126.608  0.00  0.00    +0.000 C 
BRANCH  79  80
ATOM     80  C   UNL     1      -8.383   2.247 125.471  0.00  0.00    +0.000 A 
ATOM     81  C   UNL     1      -9.458   1.328 125.414  0.00  0.00    +0.000 A 
ATOM     82  C   UNL     1      -9.986   0.860 124.241  0.00  0.00    +0.000 A 
ATOM     83  C   UNL     1      -9.784   1.666 123.158  0.00  0.00    +0.000 A 
ATOM     84  C   UNL     1      -8.851   2.713 123.213  0.00  0.00    +0.000 A 
ATOM     85  C   UNL     1      -8.077   2.945 124.335  0.00  0.00    +0.000 A 
ENDBRANCH  79  80
ENDBRANCH   5  79
BRANCH   1  86
ATOM     86  C   UNL     1     -11.193   4.257 130.151  0.00  0.00    +0.000 C 
BRANCH  86  87
ATOM     87  N   UNL     1     -11.909   5.354 129.527  0.00  0.00    +0.000 NA
ATOM     88  H   UNL     1     -11.532   6.212 129.916  0.00  0.00    +0.000 HD
ATOM     89  H   UNL     1     -12.901   5.322 129.808  0.00  0.00    +0.000 HD
ENDBRANCH  86  87
ENDBRANCH   1  86
TORSDOF 19
ENDMDL
MODEL 8
REMARK VINA RESULT:      -8.2      3.633     13.224
REMARK  Name = CHEMBL2369841
REMARK  19 active torsions:
REMARK  status: ('A' for Active; 'I' for Inactive)
REMARK    1  A    between atoms: N_1  and  C_2
REMARK    2  A    between atoms: C_2  and  C_3
REMARK    3  A    between atoms: C_7  and  C_8
REMARK    4  A    between atoms: C_8  and  C_9
REMARK    5  A    between atoms: C_18  and  C_19
REMARK    6  A    between atoms: C_19  and  C_20
REMARK    7  A    between atoms: C_23  and  O_24
REMARK    8  A    between atoms: C_35  and  C_36
REMARK    9  A    between atoms: C_42  and  C_43
REMARK   10  A    between atoms: N_45  and  C_46
REMARK   11  A    between atoms: C_46  and  C_47
REMARK   12  A    between atoms: C_46  and  C_54
REMARK   13  A    between atoms: C_47  and  C_48
REMARK   14  A    between atoms: C_48  and  C_49
REMARK   15  A    between atoms: C_49  and  N_50
REMARK   16  A    between atoms: N_56  and  C_57
REMARK   17  A    between atoms: C_57  and  C_58
REMARK   18  A    between atoms: C_64  and  C_65
REMARK   19  A    between atoms: C_65  and  C_66
REMARK                            x       y       z     vdW  Elec       q    Type
REMARK                         _______ _______ _______ _____ _____    ______ ____
ROOT
ATOM      1  C   UNL     1      -6.156   6.044 138.079  0.00  0.00    +0.000 C 
ATOM      2  N   UNL     1      -5.825   7.443 138.836  0.00  0.00    +0.000 N 
ATOM      3  C   UNL     1      -4.643   8.327 138.618  0.00  0.00    +0.000 C 
ATOM      4  O   UNL     1      -4.821   9.502 138.210  0.00  0.00    +0.000 OA
ATOM      5  C   UNL     1      -3.231   7.766 138.865  0.00  0.00    +0.000 C 
ATOM      6  N   UNL     1      -2.222   7.218 137.930  0.00  0.00    +0.000 N 
ATOM      7  C   UNL     1      -1.481   7.868 136.911  0.00  0.00    +0.000 C 
ATOM      8  O   UNL     1      -0.640   7.115 136.383  0.00  0.00    +0.000 OA
ATOM      9  C   UNL     1      -1.954   9.535 136.258  0.00  0.00    +0.000 C 
ATOM     10  N   UNL     1      -0.651  10.100 136.251  0.00  0.00    +0.000 N 
ATOM     11  C   UNL     1       0.253   9.770 135.294  0.00  0.00    +0.000 C 
ATOM     12  O   UNL     1       1.368  10.292 135.397  0.00  0.00    +0.000 OA
ATOM     13  C   UNL     1      -0.069   8.802 134.097  0.00  0.00    +0.000 C 
ATOM     14  C   UNL     1      -1.385   8.042 133.842  0.00  0.00    +0.000 C 
ATOM     15  S   UNL     1      -1.555   6.884 132.448  0.00  0.00    +0.000 S 
ATOM     16  S   UNL     1      -3.632   6.969 132.262  0.00  0.00    +0.000 S 
ATOM     17  C   UNL     1      -4.215   5.324 131.771  0.00  0.00    +0.000 C 
ATOM     18  C   UNL     1      -5.688   4.883 131.877  0.00  0.00    +0.000 C 
ATOM     19  N   UNL     1      -5.941   4.036 133.109  0.00  0.00    +0.000 N 
ATOM     20  C   UNL     1      -5.826   4.315 134.439  0.00  0.00    +0.000 C 
ATOM     21  O   UNL     1      -5.923   3.508 135.357  0.00  0.00    +0.000 OA
ATOM     22  C   UNL     1      -5.690   5.723 134.782  0.00  0.00    +0.000 C 
ATOM     23  N   UNL     1      -6.971   6.048 135.641  0.00  0.00    +0.000 N 
ATOM     24  C   UNL     1      -7.267   6.234 136.985  0.00  0.00    +0.000 C 
ATOM     25  O   UNL     1      -8.121   7.131 137.149  0.00  0.00    +0.000 OA
ATOM     26  H   UNL     1      -6.623   8.072 138.647  0.00  0.00    +0.000 HD
ATOM     27  H   UNL     1      -2.323   6.233 137.705  0.00  0.00    +0.000 HD
ATOM     28  H   UNL     1      -0.380  10.713 137.010  0.00  0.00    +0.000 HD
ATOM     29  H   UNL     1      -6.304   3.101 132.938  0.00  0.00    +0.000 HD
ATOM     30  H   UNL     1      -7.360   6.913 135.331  0.00  0.00    +0.000 HD
ENDROOT
BRANCH  18  31
ATOM     31  C   UNL     1      -6.139   4.026 130.633  0.00  0.00    +0.000 C 
ATOM     32  O   UNL     1      -5.261   3.432 129.995  0.00  0.00    +0.000 OA
ATOM     33  N   UNL     1      -7.493   3.770 130.424  0.00  0.00    +0.000 N 
ATOM     34  C   UNL     1      -8.615   4.698 130.416  0.00  0.00    +0.000 C 
ATOM     35  C   UNL     1      -9.765   3.811 130.790  0.00  0.00    +0.000 C 
ATOM     36  C   UNL     1      -9.513   2.591 129.933  0.00  0.00    +0.000 C 
ATOM     37  C   UNL     1      -7.977   2.517 129.778  0.00  0.00    +0.000 C 
BRANCH  37  38
ATOM     38  C   UNL     1      -7.758   2.482 128.256  0.00  0.00    +0.000 C 
ATOM     39  O   UNL     1      -8.683   2.763 127.493  0.00  0.00    +0.000 OA
ATOM     40  N   UNL     1      -6.528   2.020 127.796  0.00  0.00    +0.000 N 
ATOM     41  H   UNL     1      -5.907   1.491 128.402  0.00  0.00    +0.000 HD
BRANCH  40  42
ATOM     42  C   UNL     1      -6.121   2.116 126.374  0.00  0.00    +0.000 C 
BRANCH  42  43
ATOM     43  C   UNL     1      -6.229   0.723 125.665  0.00  0.00    +0.000 C 
ATOM     44  O   UNL     1      -5.385  -0.156 125.833  0.00  0.00    +0.000 OA
ATOM     45  N   UNL     1      -7.331   0.536 124.847  0.00  0.00    +0.000 N 
ATOM     46  H   UNL     1      -8.003   1.279 124.759  0.00  0.00    +0.000 HD
BRANCH  45  47
ATOM     47  C   UNL     1      -7.556  -0.704 124.098  0.00  0.00    +0.000 C 
BRANCH  47  48
ATOM     48  C   UNL     1      -8.308  -1.825 124.842  0.00  0.00    +0.000 C 
ATOM     49  N   UNL     1      -7.642  -2.510 125.819  0.00  0.00    +0.000 N 
ATOM     50  O   UNL     1      -9.475  -2.120 124.593  0.00  0.00    +0.000 OA
ATOM     51  H   UNL     1      -6.690  -2.362 126.104  0.00  0.00    +0.000 HD
ATOM     52  H   UNL     1      -8.150  -3.247 126.295  0.00  0.00    +0.000 HD
ENDBRANCH  47  48
ENDBRANCH  45  47
ENDBRANCH  42  43
BRANCH  42  53
ATOM     53  C   UNL     1      -4.669   2.633 126.262  0.00  0.00    +0.000 C 
BRANCH  53  54
ATOM     54  C   UNL     1      -4.592   4.154 126.272  0.00  0.00    +0.000 C 
BRANCH  54  55
ATOM     55  C   UNL     1      -3.619   4.734 127.254  0.00  0.00    +0.000 C 
BRANCH  55  56
ATOM     56  N   UNL     1      -4.185   5.985 127.761  0.00  0.00    +0.000 NA
ATOM     57  C   UNL     1      -3.353   6.823 128.256  0.00  0.00    +0.000 C 
ATOM     58  N   UNL     1      -2.020   6.661 128.326  0.00  0.00    +0.000 N 
ATOM     59  N   UNL     1      -3.783   7.992 128.757  0.00  0.00    +0.000 N 
ATOM     60  H   UNL     1      -1.618   5.799 127.990  0.00  0.00    +0.000 HD
ATOM     61  H   UNL     1      -1.396   7.345 128.713  0.00  0.00    +0.000 HD
ATOM     62  H   UNL     1      -4.781   8.158 128.745  0.00  0.00    +0.000 HD
ATOM     63  H   UNL     1      -3.184   8.696 129.150  0.00  0.00    +0.000 HD
ENDBRANCH  55  56
ENDBRANCH  54  55
ENDBRANCH  53  54
ENDBRANCH  42  53
ENDBRANCH  40  42
ENDBRANCH  37  38
ENDBRANCH  18  31
BRANCH  22  64
ATOM     64  C   UNL     1      -4.326   6.003 135.351  0.00  0.00    +0.000 C 
BRANCH  64  65
ATOM     65  C   UNL     1      -3.679   4.735 135.554  0.00  0.00    +0.000 C 
ATOM     66  N   UNL     1      -3.432   4.031 136.663  0.00  0.00    +0.000 N 
ATOM     67  O   UNL     1      -3.010   4.321 134.601  0.00  0.00    +0.000 OA
ATOM     68  H   UNL     1      -3.392   4.186 137.658  0.00  0.00    +0.000 HD
ATOM     69  H   UNL     1      -2.765   3.254 136.687  0.00  0.00    +0.000 HD
ENDBRANCH  64  65
ENDBRANCH  22  64
BRANCH   9  70
ATOM     70  C   UNL     1      -2.759  10.349 134.828  0.00  0.00    +0.000 C 
BRANCH  70  71
ATOM     71  C   UNL     1      -2.273  11.566 133.979  0.00  0.00    +0.000 A 
ATOM     72  C   UNL     1      -2.233  11.257 132.713  0.00  0.00    +0.000 A 
ATOM     73  C   UNL     1      -1.323  11.933 131.851  0.00  0.00    +0.000 A 
ATOM     74  C   UNL     1      -0.974  13.184 131.692  0.00  0.00    +0.000 A 
ATOM     75  C   UNL     1      -1.354  13.730 132.858  0.00  0.00    +0.000 A 
ATOM     76  C   UNL     1      -1.970  12.929 134.019  0.00  0.00    +0.000 A 
BRANCH  74  77
ATOM     77  O   UNL     1      -0.186  13.655 130.703  0.00  0.00    +0.000 OA
ATOM     78  H   UNL     1      -0.037  14.604 130.484  0.00  0.00    +0.000 HD
ENDBRANCH  74  77
ENDBRANCH  70  71
ENDBRANCH   9  70
BRANCH   5  79
ATOM     79  C   UNL     1      -2.519   8.857 139.618  0.00  0.00    +0.000 C 
BRANCH  79  80
ATOM     80  C   UNL     1      -2.748   8.855 141.103  0.00  0.00    +0.000 A 
ATOM     81  C   UNL     1      -2.713   9.986 141.953  0.00  0.00    +0.000 A 
ATOM     82  C   UNL     1      -2.425   9.916 143.289  0.00  0.00    +0.000 A 
ATOM     83  C   UNL     1      -2.659   8.700 143.864  0.00  0.00    +0.000 A 
ATOM     84  C   UNL     1      -2.877   7.564 143.067  0.00  0.00    +0.000 A 
ATOM     85  C   UNL     1      -2.824   7.620 141.686  0.00  0.00    +0.000 A 
ENDBRANCH  79  80
ENDBRANCH   5  79
BRANCH   1  86
ATOM     86  C   UNL     1      -6.012   4.693 138.755  0.00  0.00    +0.000 C 
BRANCH  86  87
ATOM     87  N   UNL     1      -5.515   3.528 139.464  0.00  0.00    +0.000 NA
ATOM     88  H   UNL     1      -5.199   2.868 138.761  0.00  0.00    +0.000 HD
ATOM     89  H   UNL     1      -6.294   3.068 139.959  0.00  0.00    +0.000 HD
ENDBRANCH  86  87
ENDBRANCH   1  86
TORSDOF 19
ENDMDL
MODEL 9
REMARK VINA RESULT:      -8.1      3.351     13.810
REMARK  Name = CHEMBL2369841
REMARK  19 active torsions:
REMARK  status: ('A' for Active; 'I' for Inactive)
REMARK    1  A    between atoms: N_1  and  C_2
REMARK    2  A    between atoms: C_2  and  C_3
REMARK    3  A    between atoms: C_7  and  C_8
REMARK    4  A    between atoms: C_8  and  C_9
REMARK    5  A    between atoms: C_18  and  C_19
REMARK    6  A    between atoms: C_19  and  C_20
REMARK    7  A    between atoms: C_23  and  O_24
REMARK    8  A    between atoms: C_35  and  C_36
REMARK    9  A    between atoms: C_42  and  C_43
REMARK   10  A    between atoms: N_45  and  C_46
REMARK   11  A    between atoms: C_46  and  C_47
REMARK   12  A    between atoms: C_46  and  C_54
REMARK   13  A    between atoms: C_47  and  C_48
REMARK   14  A    between atoms: C_48  and  C_49
REMARK   15  A    between atoms: C_49  and  N_50
REMARK   16  A    between atoms: N_56  and  C_57
REMARK   17  A    between atoms: C_57  and  C_58
REMARK   18  A    between atoms: C_64  and  C_65
REMARK   19  A    between atoms: C_65  and  C_66
REMARK                            x       y       z     vdW  Elec       q    Type
REMARK                         _______ _______ _______ _____ _____    ______ ____
ROOT
ATOM      1  C   UNL     1      -5.933   6.345 138.067  0.00  0.00    +0.000 C 
ATOM      2  N   UNL     1      -5.489   7.768 138.715  0.00  0.00    +0.000 N 
ATOM      3  C   UNL     1      -4.292   8.585 138.360  0.00  0.00    +0.000 C 
ATOM      4  O   UNL     1      -4.452   9.742 137.897  0.00  0.00    +0.000 OA
ATOM      5  C   UNL     1      -2.889   7.975 138.537  0.00  0.00    +0.000 C 
ATOM      6  N   UNL     1      -1.976   7.331 137.565  0.00  0.00    +0.000 N 
ATOM      7  C   UNL     1      -1.288   7.890 136.458  0.00  0.00    +0.000 C 
ATOM      8  O   UNL     1      -0.519   7.071 135.916  0.00  0.00    +0.000 OA
ATOM      9  C   UNL     1      -1.740   9.537 135.744  0.00  0.00    +0.000 C 
ATOM     10  N   UNL     1      -0.419  10.043 135.610  0.00  0.00    +0.000 N 
ATOM     11  C   UNL     1       0.396   9.620 134.611  0.00  0.00    +0.000 C 
ATOM     12  O   UNL     1       1.536  10.096 134.602  0.00  0.00    +0.000 OA
ATOM     13  C   UNL     1      -0.053   8.602 133.499  0.00  0.00    +0.000 C 
ATOM     14  C   UNL     1      -1.415   7.889 133.386  0.00  0.00    +0.000 C 
ATOM     15  S   UNL     1      -1.735   6.664 132.078  0.00  0.00    +0.000 S 
ATOM     16  S   UNL     1      -3.815   6.831 132.039  0.00  0.00    +0.000 S 
ATOM     17  C   UNL     1      -4.500   5.189 131.688  0.00  0.00    +0.000 C 
ATOM     18  C   UNL     1      -5.977   4.821 131.926  0.00  0.00    +0.000 C 
ATOM     19  N   UNL     1      -6.172   4.056 133.221  0.00  0.00    +0.000 N 
ATOM     20  C   UNL     1      -5.946   4.404 134.521  0.00  0.00    +0.000 C 
ATOM     21  O   UNL     1      -6.007   3.654 135.489  0.00  0.00    +0.000 OA
ATOM     22  C   UNL     1      -5.728   5.821 134.770  0.00  0.00    +0.000 C 
ATOM     23  N   UNL     1      -6.927   6.250 135.698  0.00  0.00    +0.000 N 
ATOM     24  C   UNL     1      -7.113   6.524 137.047  0.00  0.00    +0.000 C 
ATOM     25  O   UNL     1      -7.916   7.466 137.219  0.00  0.00    +0.000 OA
ATOM     26  H   UNL     1      -6.273   8.420 138.548  0.00  0.00    +0.000 HD
ATOM     27  H   UNL     1      -2.133   6.341 137.406  0.00  0.00    +0.000 HD
ATOM     28  H   UNL     1      -0.068  10.684 136.311  0.00  0.00    +0.000 HD
ATOM     29  H   UNL     1      -6.584   3.131 133.132  0.00  0.00    +0.000 HD
ATOM     30  H   UNL     1      -7.302   7.113 135.367  0.00  0.00    +0.000 HD
ENDROOT
BRANCH  18  31
ATOM     31  C   UNL     1      -6.555   3.917 130.770  0.00  0.00    +0.000 C 
ATOM     32  O   UNL     1      -5.908   3.846 129.719  0.00  0.00    +0.000 OA
ATOM     33  N   UNL     1      -7.622   3.060 131.032  0.00  0.00    +0.000 N 
ATOM     34  C   UNL     1      -8.891   3.343 131.686  0.00  0.00    +0.000 C 
ATOM     35  C   UNL     1      -9.278   1.998 132.227  0.00  0.00    +0.000 C 
ATOM     36  C   UNL     1      -8.974   1.089 131.057  0.00  0.00    +0.000 C 
ATOM     37  C   UNL     1      -7.794   1.763 130.318  0.00  0.00    +0.000 C 
BRANCH  37  38
ATOM     38  C   UNL     1      -8.298   1.913 128.873  0.00  0.00    +0.000 C 
ATOM     39  O   UNL     1      -8.982   2.888 128.556  0.00  0.00    +0.000 OA
ATOM     40  N   UNL     1      -8.042   0.865 127.993  0.00  0.00    +0.000 N 
ATOM     41  H   UNL     1      -7.776  -0.054 128.336  0.00  0.00    +0.000 HD
BRANCH  40  42
ATOM     42  C   UNL     1      -8.300   0.965 126.538  0.00  0.00    +0.000 C 
BRANCH  42  43
ATOM     43  C   UNL     1      -8.998  -0.332 126.001  0.00  0.00    +0.000 C 
ATOM     44  O   UNL     1      -9.978  -0.280 125.260  0.00  0.00    +0.000 OA
ATOM     45  N   UNL     1      -8.443  -1.536 126.403  0.00  0.00    +0.000 N 
ATOM     46  H   UNL     1      -7.630  -1.523 126.994  0.00  0.00    +0.000 HD
BRANCH  45  47
ATOM     47  C   UNL     1      -8.999  -2.832 126.004  0.00  0.00    +0.000 C 
BRANCH  47  48
ATOM     48  C   UNL     1      -8.601  -3.346 124.606  0.00  0.00    +0.000 C 
ATOM     49  N   UNL     1      -9.455  -3.113 123.565  0.00  0.00    +0.000 N 
ATOM     50  O   UNL     1      -7.550  -3.948 124.396  0.00  0.00    +0.000 OA
ATOM     51  H   UNL     1     -10.339  -2.639 123.619  0.00  0.00    +0.000 HD
ATOM     52  H   UNL     1      -9.179  -3.462 122.655  0.00  0.00    +0.000 HD
ENDBRANCH  47  48
ENDBRANCH  45  47
ENDBRANCH  42  43
BRANCH  42  53
ATOM     53  C   UNL     1      -6.978   1.187 125.769  0.00  0.00    +0.000 C 
BRANCH  53  54
ATOM     54  C   UNL     1      -7.211   1.581 124.316  0.00  0.00    +0.000 C 
BRANCH  54  55
ATOM     55  C   UNL     1      -7.600   3.013 124.101  0.00  0.00    +0.000 C 
BRANCH  55  56
ATOM     56  N   UNL     1      -8.569   3.055 123.004  0.00  0.00    +0.000 NA
ATOM     57  C   UNL     1      -8.130   3.474 121.876  0.00  0.00    +0.000 C 
ATOM     58  N   UNL     1      -6.866   3.849 121.614  0.00  0.00    +0.000 N 
ATOM     59  N   UNL     1      -8.951   3.558 120.818  0.00  0.00    +0.000 N 
ATOM     60  H   UNL     1      -6.191   3.834 122.363  0.00  0.00    +0.000 HD
ATOM     61  H   UNL     1      -6.554   4.163 120.714  0.00  0.00    +0.000 HD
ATOM     62  H   UNL     1      -9.920   3.305 120.965  0.00  0.00    +0.000 HD
ATOM     63  H   UNL     1      -8.669   3.869 119.905  0.00  0.00    +0.000 HD
ENDBRANCH  55  56
ENDBRANCH  54  55
ENDBRANCH  53  54
ENDBRANCH  42  53
ENDBRANCH  40  42
ENDBRANCH  37  38
ENDBRANCH  18  31
BRANCH  22  64
ATOM     64  C   UNL     1      -4.315   6.070 135.221  0.00  0.00    +0.000 C 
BRANCH  64  65
ATOM     65  C   UNL     1      -3.691   4.788 135.402  0.00  0.00    +0.000 C 
ATOM     66  N   UNL     1      -3.391   4.094 136.504  0.00  0.00    +0.000 N 
ATOM     67  O   UNL     1      -3.098   4.340 134.415  0.00  0.00    +0.000 OA
ATOM     68  H   UNL     1      -3.281   4.262 137.492  0.00  0.00    +0.000 HD
ATOM     69  H   UNL     1      -2.745   3.298 136.498  0.00  0.00    +0.000 HD
ENDBRANCH  64  65
ENDBRANCH  22  64
BRANCH   9  70
ATOM     70  C   UNL     1      -2.616  10.306 134.332  0.00  0.00    +0.000 C 
BRANCH  70  71
ATOM     71  C   UNL     1      -2.186  11.512 133.438  0.00  0.00    +0.000 A 
ATOM     72  C   UNL     1      -2.644  12.632 133.923  0.00  0.00    +0.000 A 
ATOM     73  C   UNL     1      -2.893  13.730 133.051  0.00  0.00    +0.000 A 
ATOM     74  C   UNL     1      -2.235  14.276 132.060  0.00  0.00    +0.000 A 
ATOM     75  C   UNL     1      -1.394  13.290 131.707  0.00  0.00    +0.000 A 
ATOM     76  C   UNL     1      -1.383  11.897 132.361  0.00  0.00    +0.000 A 
BRANCH  74  77
ATOM     77  O   UNL     1      -2.573  15.424 131.438  0.00  0.00    +0.000 OA
ATOM     78  H   UNL     1      -3.418  15.918 131.554  0.00  0.00    +0.000 HD
ENDBRANCH  74  77
ENDBRANCH  70  71
ENDBRANCH   9  70
BRANCH   5  79
ATOM     79  C   UNL     1      -2.079   9.073 139.171  0.00  0.00    +0.000 C 
BRANCH  79  80
ATOM     80  C   UNL     1      -1.029   8.608 140.140  0.00  0.00    +0.000 A 
ATOM     81  C   UNL     1       0.366   8.812 140.019  0.00  0.00    +0.000 A 
ATOM     82  C   UNL     1       1.299   7.992 140.594  0.00  0.00    +0.000 A 
ATOM     83  C   UNL     1       0.855   7.285 141.674  0.00  0.00    +0.000 A 
ATOM     84  C   UNL     1      -0.519   7.193 141.950  0.00  0.00    +0.000 A 
ATOM     85  C   UNL     1      -1.470   7.771 141.129  0.00  0.00    +0.000 A 
ENDBRANCH  79  80
ENDBRANCH   5  79
BRANCH   1  86
ATOM     86  C   UNL     1      -5.793   5.029 138.809  0.00  0.00    +0.000 C 
BRANCH  86  87
ATOM     87  N   UNL     1      -5.407   3.973 139.727  0.00  0.00    +0.000 NA
ATOM     88  H   UNL     1      -5.046   3.210 139.164  0.00  0.00    +0.000 HD
ATOM     89  H   UNL     1      -6.245   3.608 140.204  0.00  0.00    +0.000 HD
ENDBRANCH  86  87
ENDBRANCH   1  86
TORSDOF 19
ENDMDL
