MODEL 1
REMARK VINA RESULT:      -9.6      0.000      0.000
REMARK  Name = CHEMBL284120
REMARK  13 active torsions:
REMARK  status: ('A' for Active; 'I' for Inactive)
REMARK    1  A    between atoms: C_1  and  C_2
REMARK    2  A    between atoms: C_2  and  C_4
REMARK    3  A    between atoms: C_4  and  C_5
REMARK    4  A    between atoms: C_5  and  C_6
REMARK    5  A    between atoms: C_6  and  C_7
REMARK    6  A    between atoms: N_9  and  C_10
REMARK    7  A    between atoms: C_12  and  C_13
REMARK    8  A    between atoms: N_25  and  C_26
REMARK    9  A    between atoms: C_26  and  C_27
REMARK   10  A    between atoms: N_29  and  C_30
REMARK   11  A    between atoms: C_30  and  C_31
REMARK   12  A    between atoms: C_30  and  C_40
REMARK   13  A    between atoms: C_31  and  C_32
REMARK                            x       y       z     vdW  Elec       q    Type
REMARK                         _______ _______ _______ _____ _____    ______ ____
ROOT
ATOM      1  C   UNL     1     -10.052   5.890 130.740  0.00  0.00    +0.000 C 
ATOM      2  N   UNL     1      -9.040   6.299 131.745  0.00  0.00    +0.000 NA
ATOM      3  C   UNL     1      -8.345   5.343 132.273  0.00  0.00    +0.000 C 
ATOM      4  C   UNL     1      -8.568   3.950 131.942  0.00  0.00    +0.000 A 
ATOM      5  C   UNL     1      -8.585   3.100 133.032  0.00  0.00    +0.000 A 
ATOM      6  C   UNL     1      -8.895   1.825 132.763  0.00  0.00    +0.000 A 
ATOM      7  C   UNL     1      -9.325   1.495 131.481  0.00  0.00    +0.000 A 
ATOM      8  C   UNL     1      -9.291   2.294 130.386  0.00  0.00    +0.000 A 
ATOM      9  C   UNL     1      -8.796   3.527 130.610  0.00  0.00    +0.000 A 
ATOM     10  N   UNL     1      -8.564   4.319 129.479  0.00  0.00    +0.000 N 
ATOM     11  C   UNL     1      -9.310   5.484 129.399  0.00  0.00    +0.000 C 
ATOM     12  O   UNL     1      -9.393   6.112 128.340  0.00  0.00    +0.000 OA
ENDROOT
BRANCH   3  13
ATOM     13  C   UNL     1      -7.318   5.587 133.319  0.00  0.00    +0.000 A 
ATOM     14  C   UNL     1      -5.997   5.828 132.947  0.00  0.00    +0.000 A 
ATOM     15  C   UNL     1      -5.027   5.933 133.940  0.00  0.00    +0.000 A 
ATOM     16  C   UNL     1      -5.400   5.950 135.287  0.00  0.00    +0.000 A 
ATOM     17  C   UNL     1      -6.748   5.931 135.642  0.00  0.00    +0.000 A 
ATOM     18  C   UNL     1      -7.711   5.716 134.661  0.00  0.00    +0.000 A 
ENDBRANCH   3  13
BRANCH   1  21
ATOM     19  C   UNL     1     -12.039   7.191 131.193  0.00  0.00    +0.000 C 
ATOM     20  O   UNL     1     -12.365   6.456 132.121  0.00  0.00    +0.000 OA
ATOM     21  N   UNL     1     -10.863   7.040 130.505  0.00  0.00    +0.000 N 
ATOM     22  H   UNL     1     -10.700   7.478 129.615  0.00  0.00    +0.000 HD
BRANCH  19  23
ATOM     23  C   UNL     1     -12.885   8.355 130.715  0.00  0.00    +0.000 C 
BRANCH  23  24
ATOM     24  C   UNL     1     -12.354   8.882 129.383  0.00  0.00    +0.000 C 
BRANCH  24  25
ATOM     25  C   UNL     1     -13.207   8.478 128.185  0.00  0.00    +0.000 C 
BRANCH  25  27
ATOM     26  C   UNL     1     -12.056   7.275 126.210  0.00  0.00    +0.000 C 
ATOM     27  C   UNL     1     -12.696   7.183 127.569  0.00  0.00    +0.000 C 
ATOM     28  O   UNL     1     -12.788   6.094 128.137  0.00  0.00    +0.000 OA
ENDBRANCH  25  27
ENDBRANCH  24  25
ENDBRANCH  23  24
ENDBRANCH  19  23
ENDBRANCH   1  21
BRANCH  10  29
ATOM     29  C   UNL     1      -7.932   3.727 128.267  0.00  0.00    +0.000 C 
BRANCH  29  30
ATOM     30  C   UNL     1      -6.475   4.152 127.956  0.00  0.00    +0.000 C 
ATOM     31  O   UNL     1      -6.225   5.022 127.090  0.00  0.00    +0.000 OA
ATOM     32  N   UNL     1      -5.447   3.520 128.613  0.00  0.00    +0.000 N 
ATOM     33  H   UNL     1      -5.605   2.546 128.824  0.00  0.00    +0.000 HD
BRANCH  32  34
ATOM     34  C   UNL     1      -4.044   4.002 128.499  0.00  0.00    +0.000 C 
BRANCH  34  35
ATOM     35  C   UNL     1      -3.132   3.160 127.571  0.00  0.00    +0.000 C 
ATOM     36  N   UNL     1      -3.683   2.103 126.908  0.00  0.00    +0.000 N 
ATOM     37  O   UNL     1      -1.942   3.419 127.388  0.00  0.00    +0.000 OA
ATOM     38  H   UNL     1      -4.641   1.809 126.952  0.00  0.00    +0.000 HD
ATOM     39  H   UNL     1      -3.067   1.571 126.305  0.00  0.00    +0.000 HD
ENDBRANCH  34  35
BRANCH  34  40
ATOM     40  C   UNL     1      -3.342   4.074 129.890  0.00  0.00    +0.000 C 
BRANCH  40  41
ATOM     41  C   UNL     1      -3.006   5.418 130.503  0.00  0.00    +0.000 A 
ATOM     42  C   UNL     1      -2.148   5.501 131.601  0.00  0.00    +0.000 A 
ATOM     43  C   UNL     1      -1.920   6.720 132.248  0.00  0.00    +0.000 A 
ATOM     44  C   UNL     1      -2.681   7.872 131.915  0.00  0.00    +0.000 A 
ATOM     45 CL   UNL     1      -2.269   9.442 132.582  0.00  0.00    +0.000 Cl
ATOM     46  C   UNL     1      -3.509   7.812 130.769  0.00  0.00    +0.000 A 
ATOM     47 CL   UNL     1      -4.023   9.262 129.941  0.00  0.00    +0.000 Cl
ATOM     48  C   UNL     1      -3.619   6.603 130.046  0.00  0.00    +0.000 A 
ENDBRANCH  40  41
ENDBRANCH  34  40
ENDBRANCH  32  34
ENDBRANCH  29  30
ENDBRANCH  10  29
TORSDOF 12
ENDMDL
MODEL 2
REMARK VINA RESULT:      -9.1      4.171      6.151
REMARK  Name = CHEMBL284120
REMARK  13 active torsions:
REMARK  status: ('A' for Active; 'I' for Inactive)
REMARK    1  A    between atoms: C_1  and  C_2
REMARK    2  A    between atoms: C_2  and  C_4
REMARK    3  A    between atoms: C_4  and  C_5
REMARK    4  A    between atoms: C_5  and  C_6
REMARK    5  A    between atoms: C_6  and  C_7
REMARK    6  A    between atoms: N_9  and  C_10
REMARK    7  A    between atoms: C_12  and  C_13
REMARK    8  A    between atoms: N_25  and  C_26
REMARK    9  A    between atoms: C_26  and  C_27
REMARK   10  A    between atoms: N_29  and  C_30
REMARK   11  A    between atoms: C_30  and  C_31
REMARK   12  A    between atoms: C_30  and  C_40
REMARK   13  A    between atoms: C_31  and  C_32
REMARK                            x       y       z     vdW  Elec       q    Type
REMARK                         _______ _______ _______ _____ _____    ______ ____
ROOT
ATOM      1  C   UNL     1      -9.660   5.551 130.980  0.00  0.00    +0.000 C 
ATOM      2  N   UNL     1      -8.390   6.001 130.362  0.00  0.00    +0.000 NA
ATOM      3  C   UNL     1      -7.305   5.667 130.982  0.00  0.00    +0.000 C 
ATOM      4  C   UNL     1      -7.323   4.936 132.233  0.00  0.00    +0.000 A 
ATOM      5  C   UNL     1      -6.453   5.423 133.191  0.00  0.00    +0.000 A 
ATOM      6  C   UNL     1      -6.528   4.831 134.391  0.00  0.00    +0.000 A 
ATOM      7  C   UNL     1      -7.552   3.918 134.626  0.00  0.00    +0.000 A 
ATOM      8  C   UNL     1      -8.399   3.398 133.704  0.00  0.00    +0.000 A 
ATOM      9  C   UNL     1      -8.203   3.848 132.449  0.00  0.00    +0.000 A 
ATOM     10  N   UNL     1      -8.922   3.201 131.436  0.00  0.00    +0.000 N 
ATOM     11  C   UNL     1      -9.823   3.991 130.742  0.00  0.00    +0.000 C 
ATOM     12  O   UNL     1     -10.693   3.484 130.029  0.00  0.00    +0.000 OA
ENDROOT
BRANCH   3  13
ATOM     13  C   UNL     1      -5.956   6.073 130.507  0.00  0.00    +0.000 A 
ATOM     14  C   UNL     1      -5.174   5.168 129.792  0.00  0.00    +0.000 A 
ATOM     15  C   UNL     1      -3.869   5.521 129.461  0.00  0.00    +0.000 A 
ATOM     16  C   UNL     1      -3.408   6.817 129.708  0.00  0.00    +0.000 A 
ATOM     17  C   UNL     1      -4.272   7.783 130.224  0.00  0.00    +0.000 A 
ATOM     18  C   UNL     1      -5.540   7.405 130.656  0.00  0.00    +0.000 A 
ENDBRANCH   3  13
BRANCH   1  21
ATOM     19  C   UNL     1     -11.850   6.575 130.974  0.00  0.00    +0.000 C 
ATOM     20  O   UNL     1     -11.972   6.432 132.187  0.00  0.00    +0.000 OA
ATOM     21  N   UNL     1     -10.702   6.247 130.299  0.00  0.00    +0.000 N 
ATOM     22  H   UNL     1     -10.676   6.143 129.300  0.00  0.00    +0.000 HD
BRANCH  19  23
ATOM     23  C   UNL     1     -12.941   7.145 130.087  0.00  0.00    +0.000 C 
BRANCH  23  24
ATOM     24  C   UNL     1     -12.627   8.596 129.728  0.00  0.00    +0.000 C 
BRANCH  24  25
ATOM     25  C   UNL     1     -12.467   8.832 128.230  0.00  0.00    +0.000 C 
BRANCH  25  27
ATOM     26  C   UNL     1     -11.087   7.568 126.449  0.00  0.00    +0.000 C 
ATOM     27  C   UNL     1     -11.113   8.333 127.744  0.00  0.00    +0.000 C 
ATOM     28  O   UNL     1     -10.068   8.534 128.365  0.00  0.00    +0.000 OA
ENDBRANCH  25  27
ENDBRANCH  24  25
ENDBRANCH  23  24
ENDBRANCH  19  23
ENDBRANCH   1  21
BRANCH  10  29
ATOM     29  C   UNL     1      -9.042   1.716 131.435  0.00  0.00    +0.000 C 
BRANCH  29  30
ATOM     30  C   UNL     1      -8.222   0.947 130.369  0.00  0.00    +0.000 C 
ATOM     31  O   UNL     1      -8.239  -0.306 130.318  0.00  0.00    +0.000 OA
ATOM     32  N   UNL     1      -7.430   1.659 129.501  0.00  0.00    +0.000 N 
ATOM     33  H   UNL     1      -7.012   2.493 129.887  0.00  0.00    +0.000 HD
BRANCH  32  34
ATOM     34  C   UNL     1      -6.765   1.004 128.343  0.00  0.00    +0.000 C 
BRANCH  34  35
ATOM     35  C   UNL     1      -5.286   1.409 128.118  0.00  0.00    +0.000 C 
ATOM     36  N   UNL     1      -4.350   0.963 129.003  0.00  0.00    +0.000 N 
ATOM     37  O   UNL     1      -4.918   2.094 127.162  0.00  0.00    +0.000 OA
ATOM     38  H   UNL     1      -4.519   0.380 129.802  0.00  0.00    +0.000 HD
ATOM     39  H   UNL     1      -3.391   1.239 128.832  0.00  0.00    +0.000 HD
ENDBRANCH  34  35
BRANCH  34  40
ATOM     40  C   UNL     1      -7.525   1.275 127.009  0.00  0.00    +0.000 C 
BRANCH  40  41
ATOM     41  C   UNL     1      -8.116   0.124 126.223  0.00  0.00    +0.000 A 
ATOM     42  C   UNL     1      -8.148  -1.162 126.766  0.00  0.00    +0.000 A 
ATOM     43  C   UNL     1      -8.583  -2.255 126.009  0.00  0.00    +0.000 A 
ATOM     44  C   UNL     1      -8.845  -2.117 124.620  0.00  0.00    +0.000 A 
ATOM     45 CL   UNL     1      -9.574  -3.429 123.711  0.00  0.00    +0.000 Cl
ATOM     46  C   UNL     1      -8.870  -0.811 124.075  0.00  0.00    +0.000 A 
ATOM     47 CL   UNL     1      -9.715  -0.463 122.586  0.00  0.00    +0.000 Cl
ATOM     48  C   UNL     1      -8.560   0.297 124.896  0.00  0.00    +0.000 A 
ENDBRANCH  40  41
ENDBRANCH  34  40
ENDBRANCH  32  34
ENDBRANCH  29  30
ENDBRANCH  10  29
TORSDOF 12
ENDMDL
MODEL 3
REMARK VINA RESULT:      -9.1      5.298      8.026
REMARK  Name = CHEMBL284120
REMARK  13 active torsions:
REMARK  status: ('A' for Active; 'I' for Inactive)
REMARK    1  A    between atoms: C_1  and  C_2
REMARK    2  A    between atoms: C_2  and  C_4
REMARK    3  A    between atoms: C_4  and  C_5
REMARK    4  A    between atoms: C_5  and  C_6
REMARK    5  A    between atoms: C_6  and  C_7
REMARK    6  A    between atoms: N_9  and  C_10
REMARK    7  A    between atoms: C_12  and  C_13
REMARK    8  A    between atoms: N_25  and  C_26
REMARK    9  A    between atoms: C_26  and  C_27
REMARK   10  A    between atoms: N_29  and  C_30
REMARK   11  A    between atoms: C_30  and  C_31
REMARK   12  A    between atoms: C_30  and  C_40
REMARK   13  A    between atoms: C_31  and  C_32
REMARK                            x       y       z     vdW  Elec       q    Type
REMARK                         _______ _______ _______ _____ _____    ______ ____
ROOT
ATOM      1  C   UNL     1      -8.091   4.055 129.281  0.00  0.00    +0.000 C 
ATOM      2  N   UNL     1      -8.506   3.591 127.935  0.00  0.00    +0.000 NA
ATOM      3  C   UNL     1      -7.608   2.961 127.248  0.00  0.00    +0.000 C 
ATOM      4  C   UNL     1      -6.260   2.759 127.738  0.00  0.00    +0.000 A 
ATOM      5  C   UNL     1      -5.270   3.004 126.805  0.00  0.00    +0.000 A 
ATOM      6  C   UNL     1      -4.014   2.928 127.264  0.00  0.00    +0.000 A 
ATOM      7  C   UNL     1      -3.808   2.778 128.632  0.00  0.00    +0.000 A 
ATOM      8  C   UNL     1      -4.751   2.505 129.567  0.00  0.00    +0.000 A 
ATOM      9  C   UNL     1      -6.002   2.389 129.081  0.00  0.00    +0.000 A 
ATOM     10  N   UNL     1      -6.975   1.922 129.972  0.00  0.00    +0.000 N 
ATOM     11  C   UNL     1      -8.005   2.804 130.252  0.00  0.00    +0.000 C 
ATOM     12  O   UNL     1      -8.758   2.616 131.212  0.00  0.00    +0.000 OA
ENDROOT
BRANCH   3  13
ATOM     13  C   UNL     1      -7.859   2.464 125.869  0.00  0.00    +0.000 A 
ATOM     14  C   UNL     1      -7.849   1.094 125.617  0.00  0.00    +0.000 A 
ATOM     15  C   UNL     1      -7.965   0.652 124.302  0.00  0.00    +0.000 A 
ATOM     16  C   UNL     1      -8.241   1.561 123.277  0.00  0.00    +0.000 A 
ATOM     17  C   UNL     1      -8.470   2.904 123.573  0.00  0.00    +0.000 A 
ATOM     18  C   UNL     1      -8.248   3.367 124.866  0.00  0.00    +0.000 A 
ENDBRANCH   3  13
BRANCH   1  21
ATOM     19  C   UNL     1      -8.779   6.139 130.296  0.00  0.00    +0.000 C 
ATOM     20  O   UNL     1      -7.628   6.568 130.303  0.00  0.00    +0.000 OA
ATOM     21  N   UNL     1      -9.118   4.936 129.730  0.00  0.00    +0.000 N 
ATOM     22  H   UNL     1      -9.993   4.479 129.921  0.00  0.00    +0.000 HD
BRANCH  19  23
ATOM     23  C   UNL     1      -9.953   6.890 130.893  0.00  0.00    +0.000 C 
BRANCH  23  24
ATOM     24  C   UNL     1     -11.000   7.175 129.817  0.00  0.00    +0.000 C 
BRANCH  24  25
ATOM     25  C   UNL     1     -10.457   7.979 128.639  0.00  0.00    +0.000 C 
BRANCH  25  27
ATOM     26  C   UNL     1     -11.909   7.338 126.601  0.00  0.00    +0.000 C 
ATOM     27  C   UNL     1     -10.605   7.200 127.339  0.00  0.00    +0.000 C 
ATOM     28  O   UNL     1      -9.712   6.482 126.888  0.00  0.00    +0.000 OA
ENDBRANCH  25  27
ENDBRANCH  24  25
ENDBRANCH  23  24
ENDBRANCH  19  23
ENDBRANCH   1  21
BRANCH  10  29
ATOM     29  C   UNL     1      -6.673   0.781 130.881  0.00  0.00    +0.000 C 
BRANCH  29  30
ATOM     30  C   UNL     1      -6.735  -0.641 130.270  0.00  0.00    +0.000 C 
ATOM     31  O   UNL     1      -7.821  -1.260 130.181  0.00  0.00    +0.000 OA
ATOM     32  N   UNL     1      -5.567  -1.240 129.868  0.00  0.00    +0.000 N 
ATOM     33  H   UNL     1      -4.754  -1.016 130.423  0.00  0.00    +0.000 HD
BRANCH  32  34
ATOM     34  C   UNL     1      -5.574  -2.520 129.108  0.00  0.00    +0.000 C 
BRANCH  34  35
ATOM     35  C   UNL     1      -4.622  -3.615 129.654  0.00  0.00    +0.000 C 
ATOM     36  N   UNL     1      -3.292  -3.513 129.377  0.00  0.00    +0.000 N 
ATOM     37  O   UNL     1      -5.013  -4.556 130.347  0.00  0.00    +0.000 OA
ATOM     38  H   UNL     1      -2.850  -2.783 128.849  0.00  0.00    +0.000 HD
ATOM     39  H   UNL     1      -2.691  -4.238 129.747  0.00  0.00    +0.000 HD
ENDBRANCH  34  35
BRANCH  34  40
ATOM     40  C   UNL     1      -5.213  -2.304 127.606  0.00  0.00    +0.000 C 
BRANCH  40  41
ATOM     41  C   UNL     1      -6.285  -2.420 126.543  0.00  0.00    +0.000 A 
ATOM     42  C   UNL     1      -7.599  -2.739 126.893  0.00  0.00    +0.000 A 
ATOM     43  C   UNL     1      -8.573  -2.963 125.914  0.00  0.00    +0.000 A 
ATOM     44  C   UNL     1      -8.218  -3.038 124.541  0.00  0.00    +0.000 A 
ATOM     45 CL   UNL     1      -9.454  -3.124 123.299  0.00  0.00    +0.000 Cl
ATOM     46  C   UNL     1      -6.904  -2.661 124.173  0.00  0.00    +0.000 A 
ATOM     47 CL   UNL     1      -6.523  -2.164 122.542  0.00  0.00    +0.000 Cl
ATOM     48  C   UNL     1      -5.971  -2.304 125.173  0.00  0.00    +0.000 A 
ENDBRANCH  40  41
ENDBRANCH  34  40
ENDBRANCH  32  34
ENDBRANCH  29  30
ENDBRANCH  10  29
TORSDOF 12
ENDMDL
MODEL 4
REMARK VINA RESULT:      -8.9      2.899      4.537
REMARK  Name = CHEMBL284120
REMARK  13 active torsions:
REMARK  status: ('A' for Active; 'I' for Inactive)
REMARK    1  A    between atoms: C_1  and  C_2
REMARK    2  A    between atoms: C_2  and  C_4
REMARK    3  A    between atoms: C_4  and  C_5
REMARK    4  A    between atoms: C_5  and  C_6
REMARK    5  A    between atoms: C_6  and  C_7
REMARK    6  A    between atoms: N_9  and  C_10
REMARK    7  A    between atoms: C_12  and  C_13
REMARK    8  A    between atoms: N_25  and  C_26
REMARK    9  A    between atoms: C_26  and  C_27
REMARK   10  A    between atoms: N_29  and  C_30
REMARK   11  A    between atoms: C_30  and  C_31
REMARK   12  A    between atoms: C_30  and  C_40
REMARK   13  A    between atoms: C_31  and  C_32
REMARK                            x       y       z     vdW  Elec       q    Type
REMARK                         _______ _______ _______ _____ _____    ______ ____
ROOT
ATOM      1  C   UNL     1      -9.641   5.700 131.313  0.00  0.00    +0.000 C 
ATOM      2  N   UNL     1      -8.341   6.043 130.688  0.00  0.00    +0.000 NA
ATOM      3  C   UNL     1      -7.287   5.815 131.404  0.00  0.00    +0.000 C 
ATOM      4  C   UNL     1      -7.367   5.299 132.756  0.00  0.00    +0.000 A 
ATOM      5  C   UNL     1      -6.538   5.937 133.660  0.00  0.00    +0.000 A 
ATOM      6  C   UNL     1      -6.671   5.550 134.936  0.00  0.00    +0.000 A 
ATOM      7  C   UNL     1      -7.712   4.689 135.270  0.00  0.00    +0.000 A 
ATOM      8  C   UNL     1      -8.520   4.024 134.408  0.00  0.00    +0.000 A 
ATOM      9  C   UNL     1      -8.265   4.262 133.106  0.00  0.00    +0.000 A 
ATOM     10  N   UNL     1      -8.942   3.457 132.182  0.00  0.00    +0.000 N 
ATOM     11  C   UNL     1      -9.805   4.123 131.327  0.00  0.00    +0.000 C 
ATOM     12  O   UNL     1     -10.646   3.505 130.668  0.00  0.00    +0.000 OA
ENDROOT
BRANCH   3  13
ATOM     13  C   UNL     1      -5.915   6.137 130.931  0.00  0.00    +0.000 A 
ATOM     14  C   UNL     1      -5.006   5.107 130.696  0.00  0.00    +0.000 A 
ATOM     15  C   UNL     1      -3.692   5.431 130.372  0.00  0.00    +0.000 A 
ATOM     16  C   UNL     1      -3.334   6.762 130.137  0.00  0.00    +0.000 A 
ATOM     17  C   UNL     1      -4.304   7.763 130.158  0.00  0.00    +0.000 A 
ATOM     18  C   UNL     1      -5.592   7.459 130.587  0.00  0.00    +0.000 A 
ENDBRANCH   3  13
BRANCH   1  21
ATOM     19  C   UNL     1     -11.853   6.631 131.024  0.00  0.00    +0.000 C 
ATOM     20  O   UNL     1     -12.068   6.618 132.233  0.00  0.00    +0.000 OA
ATOM     21  N   UNL     1     -10.646   6.275 130.480  0.00  0.00    +0.000 N 
ATOM     22  H   UNL     1     -10.536   6.062 129.504  0.00  0.00    +0.000 HD
BRANCH  19  23
ATOM     23  C   UNL     1     -12.887   7.055 129.998  0.00  0.00    +0.000 C 
BRANCH  23  24
ATOM     24  C   UNL     1     -12.684   8.521 129.619  0.00  0.00    +0.000 C 
BRANCH  24  25
ATOM     25  C   UNL     1     -12.472   8.740 128.124  0.00  0.00    +0.000 C 
BRANCH  25  27
ATOM     26  C   UNL     1     -10.969   7.564 126.384  0.00  0.00    +0.000 C 
ATOM     27  C   UNL     1     -11.083   8.282 127.702  0.00  0.00    +0.000 C 
ATOM     28  O   UNL     1     -10.080   8.480 128.388  0.00  0.00    +0.000 OA
ENDBRANCH  25  27
ENDBRANCH  24  25
ENDBRANCH  23  24
ENDBRANCH  19  23
ENDBRANCH   1  21
BRANCH  10  29
ATOM     29  C   UNL     1      -9.073   1.992 132.419  0.00  0.00    +0.000 C 
BRANCH  29  30
ATOM     30  C   UNL     1      -8.173   1.060 131.569  0.00  0.00    +0.000 C 
ATOM     31  O   UNL     1      -8.667   0.154 130.859  0.00  0.00    +0.000 OA
ATOM     32  N   UNL     1      -6.809   1.210 131.644  0.00  0.00    +0.000 N 
ATOM     33  H   UNL     1      -6.455   1.490 132.547  0.00  0.00    +0.000 HD
BRANCH  32  34
ATOM     34  C   UNL     1      -5.899   0.478 130.722  0.00  0.00    +0.000 C 
BRANCH  34  35
ATOM     35  C   UNL     1      -5.310  -0.840 131.288  0.00  0.00    +0.000 C 
ATOM     36  N   UNL     1      -6.103  -1.615 132.081  0.00  0.00    +0.000 N 
ATOM     37  O   UNL     1      -4.169  -1.227 131.032  0.00  0.00    +0.000 OA
ATOM     38  H   UNL     1      -7.053  -1.422 132.339  0.00  0.00    +0.000 HD
ATOM     39  H   UNL     1      -5.697  -2.472 132.435  0.00  0.00    +0.000 HD
ENDBRANCH  34  35
BRANCH  34  40
ATOM     40  C   UNL     1      -4.696   1.363 130.273  0.00  0.00    +0.000 C 
BRANCH  40  41
ATOM     41  C   UNL     1      -4.746   2.099 128.950  0.00  0.00    +0.000 A 
ATOM     42  C   UNL     1      -5.970   2.372 128.338  0.00  0.00    +0.000 A 
ATOM     43  C   UNL     1      -6.027   2.946 127.063  0.00  0.00    +0.000 A 
ATOM     44  C   UNL     1      -4.849   3.113 126.288  0.00  0.00    +0.000 A 
ATOM     45 CL   UNL     1      -4.887   4.005 124.778  0.00  0.00    +0.000 Cl
ATOM     46  C   UNL     1      -3.602   2.893 126.921  0.00  0.00    +0.000 A 
ATOM     47 CL   UNL     1      -2.129   3.593 126.295  0.00  0.00    +0.000 Cl
ATOM     48  C   UNL     1      -3.565   2.442 128.260  0.00  0.00    +0.000 A 
ENDBRANCH  40  41
ENDBRANCH  34  40
ENDBRANCH  32  34
ENDBRANCH  29  30
ENDBRANCH  10  29
TORSDOF 12
ENDMDL
MODEL 5
REMARK VINA RESULT:      -8.7      3.184      4.488
REMARK  Name = CHEMBL284120
REMARK  13 active torsions:
REMARK  status: ('A' for Active; 'I' for Inactive)
REMARK    1  A    between atoms: C_1  and  C_2
REMARK    2  A    between atoms: C_2  and  C_4
REMARK    3  A    between atoms: C_4  and  C_5
REMARK    4  A    between atoms: C_5  and  C_6
REMARK    5  A    between atoms: C_6  and  C_7
REMARK    6  A    between atoms: N_9  and  C_10
REMARK    7  A    between atoms: C_12  and  C_13
REMARK    8  A    between atoms: N_25  and  C_26
REMARK    9  A    between atoms: C_26  and  C_27
REMARK   10  A    between atoms: N_29  and  C_30
REMARK   11  A    between atoms: C_30  and  C_31
REMARK   12  A    between atoms: C_30  and  C_40
REMARK   13  A    between atoms: C_31  and  C_32
REMARK                            x       y       z     vdW  Elec       q    Type
REMARK                         _______ _______ _______ _____ _____    ______ ____
ROOT
ATOM      1  C   UNL     1      -9.702   5.910 131.126  0.00  0.00    +0.000 C 
ATOM      2  N   UNL     1      -8.419   6.284 130.485  0.00  0.00    +0.000 NA
ATOM      3  C   UNL     1      -7.347   5.817 131.042  0.00  0.00    +0.000 C 
ATOM      4  C   UNL     1      -7.388   5.014 132.247  0.00  0.00    +0.000 A 
ATOM      5  C   UNL     1      -6.446   5.362 133.197  0.00  0.00    +0.000 A 
ATOM      6  C   UNL     1      -6.533   4.706 134.362  0.00  0.00    +0.000 A 
ATOM      7  C   UNL     1      -7.627   3.874 134.583  0.00  0.00    +0.000 A 
ATOM      8  C   UNL     1      -8.549   3.489 133.667  0.00  0.00    +0.000 A 
ATOM      9  C   UNL     1      -8.356   3.997 132.433  0.00  0.00    +0.000 A 
ATOM     10  N   UNL     1      -9.165   3.481 131.414  0.00  0.00    +0.000 N 
ATOM     11  C   UNL     1     -10.014   4.389 130.804  0.00  0.00    +0.000 C 
ATOM     12  O   UNL     1     -10.950   4.005 130.097  0.00  0.00    +0.000 OA
ENDROOT
BRANCH   3  13
ATOM     13  C   UNL     1      -5.984   6.131 130.539  0.00  0.00    +0.000 A 
ATOM     14  C   UNL     1      -5.308   5.202 129.751  0.00  0.00    +0.000 A 
ATOM     15  C   UNL     1      -3.988   5.459 129.391  0.00  0.00    +0.000 A 
ATOM     16  C   UNL     1      -3.408   6.696 129.684  0.00  0.00    +0.000 A 
ATOM     17  C   UNL     1      -4.168   7.704 130.278  0.00  0.00    +0.000 A 
ATOM     18  C   UNL     1      -5.449   7.413 130.737  0.00  0.00    +0.000 A 
ENDBRANCH   3  13
BRANCH   1  21
ATOM     19  C   UNL     1     -11.895   6.927 131.173  0.00  0.00    +0.000 C 
ATOM     20  O   UNL     1     -12.101   6.540 132.320  0.00  0.00    +0.000 OA
ATOM     21  N   UNL     1     -10.699   6.736 130.529  0.00  0.00    +0.000 N 
ATOM     22  H   UNL     1     -10.602   6.839 129.534  0.00  0.00    +0.000 HD
BRANCH  19  23
ATOM     23  C   UNL     1     -12.926   7.672 130.346  0.00  0.00    +0.000 C 
BRANCH  23  24
ATOM     24  C   UNL     1     -13.026   7.059 128.950  0.00  0.00    +0.000 C 
BRANCH  24  25
ATOM     25  C   UNL     1     -12.802   8.066 127.826  0.00  0.00    +0.000 C 
BRANCH  25  27
ATOM     26  C   UNL     1     -10.878   7.569 126.176  0.00  0.00    +0.000 C 
ATOM     27  C   UNL     1     -11.322   8.172 127.481  0.00  0.00    +0.000 C 
ATOM     28  O   UNL     1     -10.504   8.722 128.219  0.00  0.00    +0.000 OA
ENDBRANCH  25  27
ENDBRANCH  24  25
ENDBRANCH  23  24
ENDBRANCH  19  23
ENDBRANCH   1  21
BRANCH  10  29
ATOM     29  C   UNL     1      -9.419   2.015 131.330  0.00  0.00    +0.000 C 
BRANCH  29  30
ATOM     30  C   UNL     1      -8.205   1.109 131.003  0.00  0.00    +0.000 C 
ATOM     31  O   UNL     1      -7.538   1.272 129.954  0.00  0.00    +0.000 OA
ATOM     32  N   UNL     1      -7.895   0.084 131.863  0.00  0.00    +0.000 N 
ATOM     33  H   UNL     1      -8.685  -0.354 132.314  0.00  0.00    +0.000 HD
BRANCH  32  34
ATOM     34  C   UNL     1      -6.641  -0.703 131.709  0.00  0.00    +0.000 C 
BRANCH  34  35
ATOM     35  C   UNL     1      -6.837  -2.237 131.597  0.00  0.00    +0.000 C 
ATOM     36  N   UNL     1      -7.632  -2.717 130.599  0.00  0.00    +0.000 N 
ATOM     37  O   UNL     1      -6.287  -3.039 132.353  0.00  0.00    +0.000 OA
ATOM     38  H   UNL     1      -8.111  -2.170 129.907  0.00  0.00    +0.000 HD
ATOM     39  H   UNL     1      -7.741  -3.722 130.545  0.00  0.00    +0.000 HD
ENDBRANCH  34  35
BRANCH  34  40
ATOM     40  C   UNL     1      -5.651  -0.451 132.887  0.00  0.00    +0.000 C 
BRANCH  40  41
ATOM     41  C   UNL     1      -4.957   0.888 133.023  0.00  0.00    +0.000 A 
ATOM     42  C   UNL     1      -4.556   1.596 131.889  0.00  0.00    +0.000 A 
ATOM     43  C   UNL     1      -3.813   2.776 132.000  0.00  0.00    +0.000 A 
ATOM     44  C   UNL     1      -3.302   3.197 133.257  0.00  0.00    +0.000 A 
ATOM     45 CL   UNL     1      -2.540   4.767 133.435  0.00  0.00    +0.000 Cl
ATOM     46  C   UNL     1      -3.750   2.519 134.416  0.00  0.00    +0.000 A 
ATOM     47 CL   UNL     1      -3.669   3.264 135.994  0.00  0.00    +0.000 Cl
ATOM     48  C   UNL     1      -4.614   1.408 134.289  0.00  0.00    +0.000 A 
ENDBRANCH  40  41
ENDBRANCH  34  40
ENDBRANCH  32  34
ENDBRANCH  29  30
ENDBRANCH  10  29
TORSDOF 12
ENDMDL
MODEL 6
REMARK VINA RESULT:      -8.6      5.201      8.090
REMARK  Name = CHEMBL284120
REMARK  13 active torsions:
REMARK  status: ('A' for Active; 'I' for Inactive)
REMARK    1  A    between atoms: C_1  and  C_2
REMARK    2  A    between atoms: C_2  and  C_4
REMARK    3  A    between atoms: C_4  and  C_5
REMARK    4  A    between atoms: C_5  and  C_6
REMARK    5  A    between atoms: C_6  and  C_7
REMARK    6  A    between atoms: N_9  and  C_10
REMARK    7  A    between atoms: C_12  and  C_13
REMARK    8  A    between atoms: N_25  and  C_26
REMARK    9  A    between atoms: C_26  and  C_27
REMARK   10  A    between atoms: N_29  and  C_30
REMARK   11  A    between atoms: C_30  and  C_31
REMARK   12  A    between atoms: C_30  and  C_40
REMARK   13  A    between atoms: C_31  and  C_32
REMARK                            x       y       z     vdW  Elec       q    Type
REMARK                         _______ _______ _______ _____ _____    ______ ____
ROOT
ATOM      1  C   UNL     1      -5.370   4.432 127.397  0.00  0.00    +0.000 C 
ATOM      2  N   UNL     1      -4.160   4.597 128.237  0.00  0.00    +0.000 NA
ATOM      3  C   UNL     1      -4.364   4.934 129.470  0.00  0.00    +0.000 C 
ATOM      4  C   UNL     1      -5.692   5.183 129.994  0.00  0.00    +0.000 A 
ATOM      5  C   UNL     1      -5.791   6.313 130.785  0.00  0.00    +0.000 A 
ATOM      6  C   UNL     1      -7.029   6.623 131.193  0.00  0.00    +0.000 A 
ATOM      7  C   UNL     1      -8.105   5.910 130.674  0.00  0.00    +0.000 A 
ATOM      8  C   UNL     1      -8.041   4.782 129.924  0.00  0.00    +0.000 A 
ATOM      9  C   UNL     1      -6.790   4.351 129.667  0.00  0.00    +0.000 A 
ATOM     10  N   UNL     1      -6.677   3.094 129.063  0.00  0.00    +0.000 N 
ATOM     11  C   UNL     1      -6.099   3.084 127.805  0.00  0.00    +0.000 C 
ATOM     12  O   UNL     1      -6.192   2.094 127.072  0.00  0.00    +0.000 OA
ENDROOT
BRANCH   3  13
ATOM     13  C   UNL     1      -3.252   5.172 130.428  0.00  0.00    +0.000 A 
ATOM     14  C   UNL     1      -3.030   4.268 131.465  0.00  0.00    +0.000 A 
ATOM     15  C   UNL     1      -2.065   4.568 132.422  0.00  0.00    +0.000 A 
ATOM     16  C   UNL     1      -1.232   5.678 132.257  0.00  0.00    +0.000 A 
ATOM     17  C   UNL     1      -1.316   6.453 131.100  0.00  0.00    +0.000 A 
ATOM     18  C   UNL     1      -2.349   6.221 130.197  0.00  0.00    +0.000 A 
ENDBRANCH   3  13
BRANCH   1  21
ATOM     19  C   UNL     1      -5.694   4.806 125.031  0.00  0.00    +0.000 C 
ATOM     20  O   UNL     1      -6.722   5.448 125.225  0.00  0.00    +0.000 OA
ATOM     21  N   UNL     1      -4.909   4.335 126.051  0.00  0.00    +0.000 N 
ATOM     22  H   UNL     1      -4.210   3.626 125.910  0.00  0.00    +0.000 HD
BRANCH  19  23
ATOM     23  C   UNL     1      -5.167   4.474 123.647  0.00  0.00    +0.000 C 
BRANCH  23  24
ATOM     24  C   UNL     1      -6.249   3.779 122.822  0.00  0.00    +0.000 C 
BRANCH  24  25
ATOM     25  C   UNL     1      -5.769   3.327 121.447  0.00  0.00    +0.000 C 
BRANCH  25  27
ATOM     26  C   UNL     1      -7.192   4.278 119.512  0.00  0.00    +0.000 C 
ATOM     27  C   UNL     1      -5.992   4.419 120.409  0.00  0.00    +0.000 C 
ATOM     28  O   UNL     1      -5.240   5.387 120.290  0.00  0.00    +0.000 OA
ENDBRANCH  25  27
ENDBRANCH  24  25
ENDBRANCH  23  24
ENDBRANCH  19  23
ENDBRANCH   1  21
BRANCH  10  29
ATOM     29  C   UNL     1      -7.523   1.960 129.529  0.00  0.00    +0.000 C 
BRANCH  29  30
ATOM     30  C   UNL     1      -6.785   0.691 130.026  0.00  0.00    +0.000 C 
ATOM     31  O   UNL     1      -6.294   0.636 131.177  0.00  0.00    +0.000 OA
ATOM     32  N   UNL     1      -6.633  -0.366 129.162  0.00  0.00    +0.000 N 
ATOM     33  H   UNL     1      -6.510  -0.115 128.192  0.00  0.00    +0.000 HD
BRANCH  32  34
ATOM     34  C   UNL     1      -6.102  -1.676 129.627  0.00  0.00    +0.000 C 
BRANCH  34  35
ATOM     35  C   UNL     1      -4.575  -1.870 129.443  0.00  0.00    +0.000 C 
ATOM     36  N   UNL     1      -3.737  -0.916 129.937  0.00  0.00    +0.000 N 
ATOM     37  O   UNL     1      -4.088  -2.859 128.892  0.00  0.00    +0.000 OA
ATOM     38  H   UNL     1      -4.008  -0.083 130.426  0.00  0.00    +0.000 HD
ATOM     39  H   UNL     1      -2.744  -1.068 129.807  0.00  0.00    +0.000 HD
ENDBRANCH  34  35
BRANCH  34  40
ATOM     40  C   UNL     1      -6.807  -2.872 128.916  0.00  0.00    +0.000 C 
BRANCH  40  41
ATOM     41  C   UNL     1      -7.382  -2.699 127.526  0.00  0.00    +0.000 A 
ATOM     42  C   UNL     1      -8.729  -2.965 127.279  0.00  0.00    +0.000 A 
ATOM     43  C   UNL     1      -9.247  -2.921 125.980  0.00  0.00    +0.000 A 
ATOM     44  C   UNL     1      -8.387  -2.769 124.860  0.00  0.00    +0.000 A 
ATOM     45 CL   UNL     1      -9.043  -2.519 123.252  0.00  0.00    +0.000 Cl
ATOM     46  C   UNL     1      -7.031  -2.442 125.104  0.00  0.00    +0.000 A 
ATOM     47 CL   UNL     1      -6.044  -1.685 123.877  0.00  0.00    +0.000 Cl
ATOM     48  C   UNL     1      -6.559  -2.356 126.433  0.00  0.00    +0.000 A 
ENDBRANCH  40  41
ENDBRANCH  34  40
ENDBRANCH  32  34
ENDBRANCH  29  30
ENDBRANCH  10  29
TORSDOF 12
ENDMDL
MODEL 7
REMARK VINA RESULT:      -8.5      2.398      3.225
REMARK  Name = CHEMBL284120
REMARK  13 active torsions:
REMARK  status: ('A' for Active; 'I' for Inactive)
REMARK    1  A    between atoms: C_1  and  C_2
REMARK    2  A    between atoms: C_2  and  C_4
REMARK    3  A    between atoms: C_4  and  C_5
REMARK    4  A    between atoms: C_5  and  C_6
REMARK    5  A    between atoms: C_6  and  C_7
REMARK    6  A    between atoms: N_9  and  C_10
REMARK    7  A    between atoms: C_12  and  C_13
REMARK    8  A    between atoms: N_25  and  C_26
REMARK    9  A    between atoms: C_26  and  C_27
REMARK   10  A    between atoms: N_29  and  C_30
REMARK   11  A    between atoms: C_30  and  C_31
REMARK   12  A    between atoms: C_30  and  C_40
REMARK   13  A    between atoms: C_31  and  C_32
REMARK                            x       y       z     vdW  Elec       q    Type
REMARK                         _______ _______ _______ _____ _____    ______ ____
ROOT
ATOM      1  C   UNL     1      -9.402   5.754 132.241  0.00  0.00    +0.000 C 
ATOM      2  N   UNL     1      -8.802   6.223 133.513  0.00  0.00    +0.000 NA
ATOM      3  C   UNL     1      -7.838   5.502 133.988  0.00  0.00    +0.000 C 
ATOM      4  C   UNL     1      -7.397   4.280 133.345  0.00  0.00    +0.000 A 
ATOM      5  C   UNL     1      -7.187   3.223 134.210  0.00  0.00    +0.000 A 
ATOM      6  C   UNL     1      -6.883   2.055 133.630  0.00  0.00    +0.000 A 
ATOM      7  C   UNL     1      -6.962   1.954 132.244  0.00  0.00    +0.000 A 
ATOM      8  C   UNL     1      -7.133   2.974 131.367  0.00  0.00    +0.000 A 
ATOM      9  C   UNL     1      -7.249   4.189 131.939  0.00  0.00    +0.000 A 
ATOM     10  N   UNL     1      -7.236   5.288 131.073  0.00  0.00    +0.000 N 
ATOM     11  C   UNL     1      -8.392   6.051 131.055  0.00  0.00    +0.000 C 
ATOM     12  O   UNL     1      -8.600   6.866 130.151  0.00  0.00    +0.000 OA
ENDROOT
BRANCH   3  13
ATOM     13  C   UNL     1      -7.158   5.821 135.271  0.00  0.00    +0.000 A 
ATOM     14  C   UNL     1      -7.916   6.047 136.417  0.00  0.00    +0.000 A 
ATOM     15  C   UNL     1      -7.272   6.463 137.578  0.00  0.00    +0.000 A 
ATOM     16  C   UNL     1      -5.876   6.501 137.632  0.00  0.00    +0.000 A 
ATOM     17  C   UNL     1      -5.120   6.058 136.547  0.00  0.00    +0.000 A 
ATOM     18  C   UNL     1      -5.758   5.747 135.350  0.00  0.00    +0.000 A 
ENDBRANCH   3  13
BRANCH   1  21
ATOM     19  C   UNL     1     -11.547   6.086 131.176  0.00  0.00    +0.000 C 
ATOM     20  O   UNL     1     -11.504   4.982 130.640  0.00  0.00    +0.000 OA
ATOM     21  N   UNL     1     -10.590   6.522 132.057  0.00  0.00    +0.000 N 
ATOM     22  H   UNL     1     -10.495   7.489 132.313  0.00  0.00    +0.000 HD
BRANCH  19  23
ATOM     23  C   UNL     1     -12.665   7.084 130.942  0.00  0.00    +0.000 C 
BRANCH  23  24
ATOM     24  C   UNL     1     -12.264   8.082 129.858  0.00  0.00    +0.000 C 
BRANCH  24  25
ATOM     25  C   UNL     1     -13.007   7.882 128.541  0.00  0.00    +0.000 C 
BRANCH  25  27
ATOM     26  C   UNL     1     -10.682   8.114 127.439  0.00  0.00    +0.000 C 
ATOM     27  C   UNL     1     -12.045   7.475 127.433  0.00  0.00    +0.000 C 
ATOM     28  O   UNL     1     -12.343   6.660 126.559  0.00  0.00    +0.000 OA
ENDBRANCH  25  27
ENDBRANCH  24  25
ENDBRANCH  23  24
ENDBRANCH  19  23
ENDBRANCH   1  21
BRANCH  10  29
ATOM     29  C   UNL     1      -6.262   5.344 129.948  0.00  0.00    +0.000 C 
BRANCH  29  30
ATOM     30  C   UNL     1      -4.994   6.210 130.158  0.00  0.00    +0.000 C 
ATOM     31  O   UNL     1      -4.663   7.086 129.326  0.00  0.00    +0.000 OA
ATOM     32  N   UNL     1      -4.203   5.968 131.255  0.00  0.00    +0.000 N 
ATOM     33  H   UNL     1      -4.151   5.003 131.544  0.00  0.00    +0.000 HD
BRANCH  32  34
ATOM     34  C   UNL     1      -3.081   6.876 131.614  0.00  0.00    +0.000 C 
BRANCH  34  35
ATOM     35  C   UNL     1      -1.700   6.478 131.034  0.00  0.00    +0.000 C 
ATOM     36  N   UNL     1      -0.711   6.120 131.903  0.00  0.00    +0.000 N 
ATOM     37  O   UNL     1      -1.465   6.447 129.825  0.00  0.00    +0.000 OA
ATOM     38  H   UNL     1      -0.786   6.079 132.903  0.00  0.00    +0.000 HD
ATOM     39  H   UNL     1       0.180   5.860 131.499  0.00  0.00    +0.000 HD
ENDBRANCH  34  35
BRANCH  34  40
ATOM     40  C   UNL     1      -2.911   7.004 133.160  0.00  0.00    +0.000 C 
BRANCH  40  41
ATOM     41  C   UNL     1      -2.639   8.356 133.786  0.00  0.00    +0.000 A 
ATOM     42  C   UNL     1      -2.882   8.568 135.144  0.00  0.00    +0.000 A 
ATOM     43  C   UNL     1      -2.746   9.841 135.710  0.00  0.00    +0.000 A 
ATOM     44  C   UNL     1      -2.522  10.980 134.892  0.00  0.00    +0.000 A 
ATOM     45 CL   UNL     1      -2.159  12.540 135.607  0.00  0.00    +0.000 Cl
ATOM     46  C   UNL     1      -2.219  10.766 133.526  0.00  0.00    +0.000 A 
ATOM     47 CL   UNL     1      -1.384  11.975 132.580  0.00  0.00    +0.000 Cl
ATOM     48  C   UNL     1      -2.227   9.453 133.002  0.00  0.00    +0.000 A 
ENDBRANCH  40  41
ENDBRANCH  34  40
ENDBRANCH  32  34
ENDBRANCH  29  30
ENDBRANCH  10  29
TORSDOF 12
ENDMDL
MODEL 8
REMARK VINA RESULT:      -8.5      4.897      8.522
REMARK  Name = CHEMBL284120
REMARK  13 active torsions:
REMARK  status: ('A' for Active; 'I' for Inactive)
REMARK    1  A    between atoms: C_1  and  C_2
REMARK    2  A    between atoms: C_2  and  C_4
REMARK    3  A    between atoms: C_4  and  C_5
REMARK    4  A    between atoms: C_5  and  C_6
REMARK    5  A    between atoms: C_6  and  C_7
REMARK    6  A    between atoms: N_9  and  C_10
REMARK    7  A    between atoms: C_12  and  C_13
REMARK    8  A    between atoms: N_25  and  C_26
REMARK    9  A    between atoms: C_26  and  C_27
REMARK   10  A    between atoms: N_29  and  C_30
REMARK   11  A    between atoms: C_30  and  C_31
REMARK   12  A    between atoms: C_30  and  C_40
REMARK   13  A    between atoms: C_31  and  C_32
REMARK                            x       y       z     vdW  Elec       q    Type
REMARK                         _______ _______ _______ _____ _____    ______ ____
ROOT
ATOM      1  C   UNL     1      -6.236   2.811 125.733  0.00  0.00    +0.000 C 
ATOM      2  N   UNL     1      -6.004   1.477 126.338  0.00  0.00    +0.000 NA
ATOM      3  C   UNL     1      -5.441   1.470 127.503  0.00  0.00    +0.000 C 
ATOM      4  C   UNL     1      -5.016   2.688 128.164  0.00  0.00    +0.000 A 
ATOM      5  C   UNL     1      -3.760   2.618 128.737  0.00  0.00    +0.000 A 
ATOM      6  C   UNL     1      -3.300   3.762 129.260  0.00  0.00    +0.000 A 
ATOM      7  C   UNL     1      -4.022   4.933 129.049  0.00  0.00    +0.000 A 
ATOM      8  C   UNL     1      -5.267   5.032 128.521  0.00  0.00    +0.000 A 
ATOM      9  C   UNL     1      -5.818   3.855 128.165  0.00  0.00    +0.000 A 
ATOM     10  N   UNL     1      -7.167   3.886 127.795  0.00  0.00    +0.000 N 
ATOM     11  C   UNL     1      -7.439   3.516 126.488  0.00  0.00    +0.000 C 
ATOM     12  O   UNL     1      -8.535   3.762 125.974  0.00  0.00    +0.000 OA
ENDROOT
BRANCH   3  13
ATOM     13  C   UNL     1      -5.111   0.213 128.224  0.00  0.00    +0.000 A 
ATOM     14  C   UNL     1      -4.708   0.266 129.556  0.00  0.00    +0.000 A 
ATOM     15  C   UNL     1      -4.286  -0.905 130.179  0.00  0.00    +0.000 A 
ATOM     16  C   UNL     1      -4.414  -2.133 129.524  0.00  0.00    +0.000 A 
ATOM     17  C   UNL     1      -5.026  -2.202 128.273  0.00  0.00    +0.000 A 
ATOM     18  C   UNL     1      -5.347  -1.025 127.604  0.00  0.00    +0.000 A 
ENDBRANCH   3  13
BRANCH   1  21
ATOM     19  C   UNL     1      -6.252   3.483 123.411  0.00  0.00    +0.000 C 
ATOM     20  O   UNL     1      -5.504   4.432 123.632  0.00  0.00    +0.000 OA
ATOM     21  N   UNL     1      -6.601   2.573 124.376  0.00  0.00    +0.000 N 
ATOM     22  H   UNL     1      -7.378   1.945 124.266  0.00  0.00    +0.000 HD
BRANCH  19  23
ATOM     23  C   UNL     1      -6.859   3.199 122.050  0.00  0.00    +0.000 C 
BRANCH  23  24
ATOM     24  C   UNL     1      -5.836   3.472 120.948  0.00  0.00    +0.000 C 
BRANCH  24  25
ATOM     25  C   UNL     1      -6.422   4.199 119.742  0.00  0.00    +0.000 C 
BRANCH  25  27
ATOM     26  C   UNL     1      -5.902   6.146 118.125  0.00  0.00    +0.000 C 
ATOM     27  C   UNL     1      -5.640   5.472 119.446  0.00  0.00    +0.000 C 
ATOM     28  O   UNL     1      -4.825   5.951 120.235  0.00  0.00    +0.000 OA
ENDBRANCH  25  27
ENDBRANCH  24  25
ENDBRANCH  23  24
ENDBRANCH  19  23
ENDBRANCH   1  21
BRANCH  10  29
ATOM     29  C   UNL     1      -8.142   4.690 128.584  0.00  0.00    +0.000 C 
BRANCH  29  30
ATOM     30  C   UNL     1      -8.833   3.982 129.778  0.00  0.00    +0.000 C 
ATOM     31  O   UNL     1      -9.967   3.463 129.655  0.00  0.00    +0.000 OA
ATOM     32  N   UNL     1      -8.201   3.974 130.997  0.00  0.00    +0.000 N 
ATOM     33  H   UNL     1      -7.657   4.798 131.206  0.00  0.00    +0.000 HD
BRANCH  32  34
ATOM     34  C   UNL     1      -8.717   3.160 132.131  0.00  0.00    +0.000 C 
BRANCH  34  35
ATOM     35  C   UNL     1      -9.130   3.969 133.387  0.00  0.00    +0.000 C 
ATOM     36  N   UNL     1     -10.124   4.893 133.264  0.00  0.00    +0.000 N 
ATOM     37  O   UNL     1      -8.617   3.794 134.494  0.00  0.00    +0.000 OA
ATOM     38  H   UNL     1     -10.635   5.107 132.428  0.00  0.00    +0.000 HD
ATOM     39  H   UNL     1     -10.378   5.405 134.100  0.00  0.00    +0.000 HD
ENDBRANCH  34  35
BRANCH  34  40
ATOM     40  C   UNL     1      -7.681   2.089 132.593  0.00  0.00    +0.000 C 
BRANCH  40  41
ATOM     41  C   UNL     1      -7.630   0.738 131.912  0.00  0.00    +0.000 A 
ATOM     42  C   UNL     1      -8.131   0.578 130.619  0.00  0.00    +0.000 A 
ATOM     43  C   UNL     1      -8.196  -0.686 130.022  0.00  0.00    +0.000 A 
ATOM     44  C   UNL     1      -7.912  -1.859 130.771  0.00  0.00    +0.000 A 
ATOM     45 CL   UNL     1      -7.802  -3.422 129.982  0.00  0.00    +0.000 Cl
ATOM     46  C   UNL     1      -7.350  -1.702 132.060  0.00  0.00    +0.000 A 
ATOM     47 CL   UNL     1      -6.448  -2.991 132.822  0.00  0.00    +0.000 Cl
ATOM     48  C   UNL     1      -7.164  -0.406 132.592  0.00  0.00    +0.000 A 
ENDBRANCH  40  41
ENDBRANCH  34  40
ENDBRANCH  32  34
ENDBRANCH  29  30
ENDBRANCH  10  29
TORSDOF 12
ENDMDL
MODEL 9
REMARK VINA RESULT:      -8.4      2.680      3.109
REMARK  Name = CHEMBL284120
REMARK  13 active torsions:
REMARK  status: ('A' for Active; 'I' for Inactive)
REMARK    1  A    between atoms: C_1  and  C_2
REMARK    2  A    between atoms: C_2  and  C_4
REMARK    3  A    between atoms: C_4  and  C_5
REMARK    4  A    between atoms: C_5  and  C_6
REMARK    5  A    between atoms: C_6  and  C_7
REMARK    6  A    between atoms: N_9  and  C_10
REMARK    7  A    between atoms: C_12  and  C_13
REMARK    8  A    between atoms: N_25  and  C_26
REMARK    9  A    between atoms: C_26  and  C_27
REMARK   10  A    between atoms: N_29  and  C_30
REMARK   11  A    between atoms: C_30  and  C_31
REMARK   12  A    between atoms: C_30  and  C_40
REMARK   13  A    between atoms: C_31  and  C_32
REMARK                            x       y       z     vdW  Elec       q    Type
REMARK                         _______ _______ _______ _____ _____    ______ ____
ROOT
ATOM      1  C   UNL     1      -9.920   5.735 131.681  0.00  0.00    +0.000 C 
ATOM      2  N   UNL     1      -9.012   6.161 132.773  0.00  0.00    +0.000 NA
ATOM      3  C   UNL     1      -8.134   5.291 133.155  0.00  0.00    +0.000 C 
ATOM      4  C   UNL     1      -8.066   3.959 132.588  0.00  0.00    +0.000 A 
ATOM      5  C   UNL     1      -7.906   2.949 133.518  0.00  0.00    +0.000 A 
ATOM      6  C   UNL     1      -7.949   1.703 133.029  0.00  0.00    +0.000 A 
ATOM      7  C   UNL     1      -8.304   1.517 131.696  0.00  0.00    +0.000 A 
ATOM      8  C   UNL     1      -8.437   2.482 130.753  0.00  0.00    +0.000 A 
ATOM      9  C   UNL     1      -8.206   3.733 131.197  0.00  0.00    +0.000 A 
ATOM     10  N   UNL     1      -8.144   4.737 130.223  0.00  0.00    +0.000 N 
ATOM     11  C   UNL     1      -9.113   5.723 130.316  0.00  0.00    +0.000 C 
ATOM     12  O   UNL     1      -9.326   6.493 129.375  0.00  0.00    +0.000 OA
ENDROOT
BRANCH   3  13
ATOM     13  C   UNL     1      -7.176   5.554 134.261  0.00  0.00    +0.000 A 
ATOM     14  C   UNL     1      -5.854   5.878 133.967  0.00  0.00    +0.000 A 
ATOM     15  C   UNL     1      -4.943   6.002 135.012  0.00  0.00    +0.000 A 
ATOM     16  C   UNL     1      -5.384   5.955 136.337  0.00  0.00    +0.000 A 
ATOM     17  C   UNL     1      -6.745   5.852 136.620  0.00  0.00    +0.000 A 
ATOM     18  C   UNL     1      -7.643   5.618 135.583  0.00  0.00    +0.000 A 
ENDBRANCH   3  13
BRANCH   1  21
ATOM     19  C   UNL     1     -12.057   6.489 130.838  0.00  0.00    +0.000 C 
ATOM     20  O   UNL     1     -12.282   5.406 130.305  0.00  0.00    +0.000 OA
ATOM     21  N   UNL     1     -10.950   6.719 131.615  0.00  0.00    +0.000 N 
ATOM     22  H   UNL     1     -10.645   7.645 131.857  0.00  0.00    +0.000 HD
BRANCH  19  23
ATOM     23  C   UNL     1     -12.979   7.687 130.715  0.00  0.00    +0.000 C 
BRANCH  23  24
ATOM     24  C   UNL     1     -12.510   8.601 129.585  0.00  0.00    +0.000 C 
BRANCH  24  25
ATOM     25  C   UNL     1     -13.226   8.350 128.261  0.00  0.00    +0.000 C 
BRANCH  25  27
ATOM     26  C   UNL     1     -10.956   8.125 127.050  0.00  0.00    +0.000 C 
ATOM     27  C   UNL     1     -12.334   7.574 127.302  0.00  0.00    +0.000 C 
ATOM     28  O   UNL     1     -12.698   6.538 126.744  0.00  0.00    +0.000 OA
ENDBRANCH  25  27
ENDBRANCH  24  25
ENDBRANCH  23  24
ENDBRANCH  19  23
ENDBRANCH   1  21
BRANCH  10  29
ATOM     29  C   UNL     1      -7.407   4.502 128.951  0.00  0.00    +0.000 C 
BRANCH  29  30
ATOM     30  C   UNL     1      -5.866   4.663 128.991  0.00  0.00    +0.000 C 
ATOM     31  O   UNL     1      -5.137   4.140 128.116  0.00  0.00    +0.000 OA
ATOM     32  N   UNL     1      -5.300   5.353 130.036  0.00  0.00    +0.000 N 
ATOM     33  H   UNL     1      -5.774   5.257 130.922  0.00  0.00    +0.000 HD
BRANCH  32  34
ATOM     34  C   UNL     1      -3.854   5.702 130.040  0.00  0.00    +0.000 C 
BRANCH  34  35
ATOM     35  C   UNL     1      -3.303   6.239 128.695  0.00  0.00    +0.000 C 
ATOM     36  N   UNL     1      -2.290   5.555 128.090  0.00  0.00    +0.000 N 
ATOM     37  O   UNL     1      -3.757   7.240 128.138  0.00  0.00    +0.000 OA
ATOM     38  H   UNL     1      -1.857   4.716 128.428  0.00  0.00    +0.000 HD
ATOM     39  H   UNL     1      -1.950   5.925 127.211  0.00  0.00    +0.000 HD
ENDBRANCH  34  35
BRANCH  34  40
ATOM     40  C   UNL     1      -2.966   4.486 130.448  0.00  0.00    +0.000 C 
BRANCH  40  41
ATOM     41  C   UNL     1      -3.500   3.444 131.409  0.00  0.00    +0.000 A 
ATOM     42  C   UNL     1      -3.387   3.629 132.788  0.00  0.00    +0.000 A 
ATOM     43  C   UNL     1      -3.770   2.625 133.684  0.00  0.00    +0.000 A 
ATOM     44  C   UNL     1      -4.124   1.331 133.217  0.00  0.00    +0.000 A 
ATOM     45 CL   UNL     1      -4.788   0.133 134.312  0.00  0.00    +0.000 Cl
ATOM     46  C   UNL     1      -4.296   1.153 131.823  0.00  0.00    +0.000 A 
ATOM     47 CL   UNL     1      -5.255  -0.161 131.186  0.00  0.00    +0.000 Cl
ATOM     48  C   UNL     1      -4.035   2.226 130.941  0.00  0.00    +0.000 A 
ENDBRANCH  40  41
ENDBRANCH  34  40
ENDBRANCH  32  34
ENDBRANCH  29  30
ENDBRANCH  10  29
TORSDOF 12
ENDMDL
