MODEL 1
REMARK VINA RESULT:      -9.2      0.000      0.000
REMARK  Name = CHEMBL491224
REMARK  9 active torsions:
REMARK  status: ('A' for Active; 'I' for Inactive)
REMARK    1  A    between atoms: C_1  and  C_2
REMARK    2  A    between atoms: C_2  and  O_3
REMARK    3  A    between atoms: O_3  and  C_4
REMARK    4  A    between atoms: C_7  and  S_8
REMARK    5  A    between atoms: S_8  and  N_11
REMARK    6  A    between atoms: N_11  and  C_12
REMARK    7  A    between atoms: N_11  and  C_27
REMARK    8  A    between atoms: C_12  and  C_13
REMARK    9  A    between atoms: N_15  and  N_16
REMARK                            x       y       z     vdW  Elec       q    Type
REMARK                         _______ _______ _______ _____ _____    ______ ____
ROOT
ATOM      1  N   UNL     1      -7.759   0.594 129.425  0.00  0.00    +0.000 N 
ENDROOT
BRANCH   1   2
ATOM      2  C   UNL     1      -7.175  -0.781 129.651  0.00  0.00    +0.000 A 
ATOM      3  C   UNL     1      -5.777  -0.939 129.549  0.00  0.00    +0.000 A 
ATOM      4  C   UNL     1      -5.154  -2.203 129.545  0.00  0.00    +0.000 A 
ATOM      5  C   UNL     1      -5.906  -3.355 129.731  0.00  0.00    +0.000 A 
ATOM      6  C   UNL     1      -7.290  -3.240 129.846  0.00  0.00    +0.000 A 
ATOM      7  C   UNL     1      -7.918  -1.971 129.780  0.00  0.00    +0.000 A 
ENDBRANCH   1   2
BRANCH   1   8
ATOM      8  S   UNL     1      -7.697   1.220 127.776  0.00  0.00    +0.000 S 
ATOM      9  O   UNL     1      -6.552   2.107 127.741  0.00  0.00    +0.000 OA
ATOM     10  O   UNL     1      -9.010   1.778 127.474  0.00  0.00    +0.000 OA
BRANCH   8  14
ATOM     11  C   UNL     1      -6.557  -2.361 125.054  0.00  0.00    +0.000 A 
ATOM     12  C   UNL     1      -7.904  -2.160 125.374  0.00  0.00    +0.000 A 
ATOM     13  C   UNL     1      -8.303  -1.014 126.127  0.00  0.00    +0.000 A 
ATOM     14  C   UNL     1      -7.371  -0.001 126.434  0.00  0.00    +0.000 A 
ATOM     15  C   UNL     1      -6.146  -0.103 125.813  0.00  0.00    +0.000 A 
ATOM     16  C   UNL     1      -5.680  -1.345 125.364  0.00  0.00    +0.000 A 
BRANCH  11  17
ATOM     17  O   UNL     1      -6.171  -3.431 124.291  0.00  0.00    +0.000 OA
BRANCH  17  19
ATOM     18  C   UNL     1      -4.262  -4.667 123.529  0.00  0.00    +0.000 C 
ATOM     19  C   UNL     1      -4.927  -3.304 123.578  0.00  0.00    +0.000 C 
ENDBRANCH  17  19
ENDBRANCH  11  17
ENDBRANCH   8  14
ENDBRANCH   1   8
BRANCH   1  20
ATOM     20  C   UNL     1      -7.947   1.404 130.712  0.00  0.00    +0.000 C 
BRANCH  20  21
ATOM     21  C   UNL     1      -9.285   2.072 131.115  0.00  0.00    +0.000 C 
ATOM     22  O   UNL     1      -9.828   1.650 132.158  0.00  0.00    +0.000 OA
ATOM     23  N   UNL     1      -9.808   3.132 130.293  0.00  0.00    +0.000 N 
ATOM     24  H   UNL     1      -9.290   3.353 129.440  0.00  0.00    +0.000 HD
BRANCH  23  25
ATOM     25  N   UNL     1     -11.283   3.502 130.070  0.00  0.00    +0.000 NA
ATOM     26  C   UNL     1     -11.518   4.809 130.206  0.00  0.00    +0.000 C 
ATOM     27  C   UNL     1     -10.776   5.569 131.260  0.00  0.00    +0.000 C 
ATOM     28  O   UNL     1      -9.625   5.786 130.974  0.00  0.00    +0.000 OA
ATOM     29  N   UNL     1     -11.723   6.420 131.852  0.00  0.00    +0.000 N 
ATOM     30  C   UNL     1     -12.376   6.969 130.739  0.00  0.00    +0.000 A 
ATOM     31  C   UNL     1     -12.605   8.360 130.785  0.00  0.00    +0.000 A 
ATOM     32  C   UNL     1     -12.797   9.071 129.628  0.00  0.00    +0.000 A 
ATOM     33  C   UNL     1     -12.696   8.333 128.447  0.00  0.00    +0.000 A 
ATOM     34  C   UNL     1     -12.481   6.861 128.429  0.00  0.00    +0.000 A 
ATOM     35  C   UNL     1     -12.355   6.097 129.626  0.00  0.00    +0.000 A 
ATOM     36  H   UNL     1     -12.477   5.958 132.359  0.00  0.00    +0.000 HD
ENDBRANCH  23  25
ENDBRANCH  20  21
ENDBRANCH   1  20
TORSDOF 8
ENDMDL
MODEL 2
REMARK VINA RESULT:      -9.1      3.736      4.738
REMARK  Name = CHEMBL491224
REMARK  9 active torsions:
REMARK  status: ('A' for Active; 'I' for Inactive)
REMARK    1  A    between atoms: C_1  and  C_2
REMARK    2  A    between atoms: C_2  and  O_3
REMARK    3  A    between atoms: O_3  and  C_4
REMARK    4  A    between atoms: C_7  and  S_8
REMARK    5  A    between atoms: S_8  and  N_11
REMARK    6  A    between atoms: N_11  and  C_12
REMARK    7  A    between atoms: N_11  and  C_27
REMARK    8  A    between atoms: C_12  and  C_13
REMARK    9  A    between atoms: N_15  and  N_16
REMARK                            x       y       z     vdW  Elec       q    Type
REMARK                         _______ _______ _______ _____ _____    ______ ____
ROOT
ATOM      1  N   UNL     1      -6.460   2.891 127.764  0.00  0.00    +0.000 N 
ENDROOT
BRANCH   1   2
ATOM      2  C   UNL     1      -5.048   3.314 127.436  0.00  0.00    +0.000 A 
ATOM      3  C   UNL     1      -4.249   2.443 126.667  0.00  0.00    +0.000 A 
ATOM      4  C   UNL     1      -2.868   2.648 126.473  0.00  0.00    +0.000 A 
ATOM      5  C   UNL     1      -2.254   3.788 126.975  0.00  0.00    +0.000 A 
ATOM      6  C   UNL     1      -3.011   4.680 127.731  0.00  0.00    +0.000 A 
ATOM      7  C   UNL     1      -4.385   4.432 127.981  0.00  0.00    +0.000 A 
ENDBRANCH   1   2
BRANCH   1   8
ATOM      8  S   UNL     1      -7.725   3.426 126.657  0.00  0.00    +0.000 S 
ATOM      9  O   UNL     1      -8.127   4.735 127.131  0.00  0.00    +0.000 OA
ATOM     10  O   UNL     1      -8.733   2.373 126.606  0.00  0.00    +0.000 OA
BRANCH   8  14
ATOM     11  C   UNL     1      -5.834   3.556 122.421  0.00  0.00    +0.000 A 
ATOM     12  C   UNL     1      -7.018   2.836 122.608  0.00  0.00    +0.000 A 
ATOM     13  C   UNL     1      -7.681   2.855 123.873  0.00  0.00    +0.000 A 
ATOM     14  C   UNL     1      -7.232   3.707 124.903  0.00  0.00    +0.000 A 
ATOM     15  C   UNL     1      -6.267   4.624 124.547  0.00  0.00    +0.000 A 
ATOM     16  C   UNL     1      -5.433   4.383 123.448  0.00  0.00    +0.000 A 
BRANCH  11  17
ATOM     17  O   UNL     1      -5.217   3.583 121.199  0.00  0.00    +0.000 OA
BRANCH  17  19
ATOM     18  C   UNL     1      -6.595   4.542 119.486  0.00  0.00    +0.000 C 
ATOM     19  C   UNL     1      -5.407   4.767 120.402  0.00  0.00    +0.000 C 
ENDBRANCH  17  19
ENDBRANCH  11  17
ENDBRANCH   8  14
ENDBRANCH   1   8
BRANCH   1  20
ATOM     20  C   UNL     1      -6.641   2.412 129.208  0.00  0.00    +0.000 C 
BRANCH  20  21
ATOM     21  C   UNL     1      -8.021   2.274 129.898  0.00  0.00    +0.000 C 
ATOM     22  O   UNL     1      -8.313   1.143 130.339  0.00  0.00    +0.000 OA
ATOM     23  N   UNL     1      -8.865   3.436 130.005  0.00  0.00    +0.000 N 
ATOM     24  H   UNL     1      -8.528   4.293 129.562  0.00  0.00    +0.000 HD
BRANCH  23  25
ATOM     25  N   UNL     1     -10.400   3.478 130.029  0.00  0.00    +0.000 NA
ATOM     26  C   UNL     1     -10.883   4.683 130.345  0.00  0.00    +0.000 C 
ATOM     27  C   UNL     1     -10.162   5.502 131.369  0.00  0.00    +0.000 C 
ATOM     28  O   UNL     1      -9.144   5.997 130.955  0.00  0.00    +0.000 OA
ATOM     29  N   UNL     1     -11.162   6.064 132.178  0.00  0.00    +0.000 N 
ATOM     30  C   UNL     1     -12.084   6.540 131.234  0.00  0.00    +0.000 A 
ATOM     31  C   UNL     1     -12.594   7.833 131.471  0.00  0.00    +0.000 A 
ATOM     32  C   UNL     1     -13.113   8.575 130.440  0.00  0.00    +0.000 A 
ATOM     33  C   UNL     1     -13.046   7.979 129.180  0.00  0.00    +0.000 A 
ATOM     34  C   UNL     1     -12.528   6.601 128.963  0.00  0.00    +0.000 A 
ATOM     35  C   UNL     1     -12.056   5.790 130.037  0.00  0.00    +0.000 A 
ATOM     36  H   UNL     1     -11.710   5.403 132.726  0.00  0.00    +0.000 HD
ENDBRANCH  23  25
ENDBRANCH  20  21
ENDBRANCH   1  20
TORSDOF 8
ENDMDL
MODEL 3
REMARK VINA RESULT:      -9.0      3.211      4.036
REMARK  Name = CHEMBL491224
REMARK  9 active torsions:
REMARK  status: ('A' for Active; 'I' for Inactive)
REMARK    1  A    between atoms: C_1  and  C_2
REMARK    2  A    between atoms: C_2  and  O_3
REMARK    3  A    between atoms: O_3  and  C_4
REMARK    4  A    between atoms: C_7  and  S_8
REMARK    5  A    between atoms: S_8  and  N_11
REMARK    6  A    between atoms: N_11  and  C_12
REMARK    7  A    between atoms: N_11  and  C_27
REMARK    8  A    between atoms: C_12  and  C_13
REMARK    9  A    between atoms: N_15  and  N_16
REMARK                            x       y       z     vdW  Elec       q    Type
REMARK                         _______ _______ _______ _____ _____    ______ ____
ROOT
ATOM      1  N   UNL     1      -6.533   3.777 127.017  0.00  0.00    +0.000 N 
ENDROOT
BRANCH   1   2
ATOM      2  C   UNL     1      -5.024   3.821 126.959  0.00  0.00    +0.000 A 
ATOM      3  C   UNL     1      -4.340   2.694 126.459  0.00  0.00    +0.000 A 
ATOM      4  C   UNL     1      -2.940   2.553 126.545  0.00  0.00    +0.000 A 
ATOM      5  C   UNL     1      -2.164   3.583 127.061  0.00  0.00    +0.000 A 
ATOM      6  C   UNL     1      -2.802   4.719 127.555  0.00  0.00    +0.000 A 
ATOM      7  C   UNL     1      -4.216   4.825 127.529  0.00  0.00    +0.000 A 
ENDBRANCH   1   2
BRANCH   1   8
ATOM      8  S   UNL     1      -7.394   4.144 125.521  0.00  0.00    +0.000 S 
ATOM      9  O   UNL     1      -6.431   4.820 124.675  0.00  0.00    +0.000 OA
ATOM     10  O   UNL     1      -8.612   4.858 125.885  0.00  0.00    +0.000 OA
BRANCH   8  14
ATOM     11  C   UNL     1      -8.876   0.112 123.764  0.00  0.00    +0.000 A 
ATOM     12  C   UNL     1      -9.776   1.179 123.855  0.00  0.00    +0.000 A 
ATOM     13  C   UNL     1      -9.331   2.462 124.298  0.00  0.00    +0.000 A 
ATOM     14  C   UNL     1      -7.959   2.708 124.513  0.00  0.00    +0.000 A 
ATOM     15  C   UNL     1      -7.098   1.718 124.093  0.00  0.00    +0.000 A 
ATOM     16  C   UNL     1      -7.544   0.395 123.974  0.00  0.00    +0.000 A 
BRANCH  11  17
ATOM     17  O   UNL     1      -9.282  -1.108 123.295  0.00  0.00    +0.000 OA
BRANCH  17  19
ATOM     18  C   UNL     1      -9.049  -3.331 124.166  0.00  0.00    +0.000 C 
ATOM     19  C   UNL     1      -8.352  -2.199 123.434  0.00  0.00    +0.000 C 
ENDBRANCH  17  19
ENDBRANCH  11  17
ENDBRANCH   8  14
ENDBRANCH   1   8
BRANCH   1  20
ATOM     20  C   UNL     1      -7.097   3.822 128.441  0.00  0.00    +0.000 C 
BRANCH  20  21
ATOM     21  C   UNL     1      -8.510   3.310 128.818  0.00  0.00    +0.000 C 
ATOM     22  O   UNL     1      -8.943   2.337 128.167  0.00  0.00    +0.000 OA
ATOM     23  N   UNL     1      -9.223   3.962 129.887  0.00  0.00    +0.000 N 
ATOM     24  H   UNL     1      -8.776   4.777 130.310  0.00  0.00    +0.000 HD
BRANCH  23  25
ATOM     25  N   UNL     1     -10.744   4.112 130.041  0.00  0.00    +0.000 NA
ATOM     26  C   UNL     1     -11.158   5.375 129.911  0.00  0.00    +0.000 C 
ATOM     27  C   UNL     1     -10.305   6.473 130.463  0.00  0.00    +0.000 C 
ATOM     28  O   UNL     1      -9.329   6.704 129.794  0.00  0.00    +0.000 OA
ATOM     29  N   UNL     1     -11.192   7.367 131.084  0.00  0.00    +0.000 N 
ATOM     30  C   UNL     1     -12.205   7.506 130.124  0.00  0.00    +0.000 A 
ATOM     31  C   UNL     1     -12.652   8.823 129.889  0.00  0.00    +0.000 A 
ATOM     32  C   UNL     1     -13.268   9.147 128.707  0.00  0.00    +0.000 A 
ATOM     33  C   UNL     1     -13.360   8.112 127.775  0.00  0.00    +0.000 A 
ATOM     34  C   UNL     1     -12.904   6.725 128.060  0.00  0.00    +0.000 A 
ATOM     35  C   UNL     1     -12.331   6.356 129.313  0.00  0.00    +0.000 A 
ATOM     36  H   UNL     1     -11.690   7.003 131.896  0.00  0.00    +0.000 HD
ENDBRANCH  23  25
ENDBRANCH  20  21
ENDBRANCH   1  20
TORSDOF 8
ENDMDL
MODEL 4
REMARK VINA RESULT:      -8.8      5.796      8.146
REMARK  Name = CHEMBL491224
REMARK  9 active torsions:
REMARK  status: ('A' for Active; 'I' for Inactive)
REMARK    1  A    between atoms: C_1  and  C_2
REMARK    2  A    between atoms: C_2  and  O_3
REMARK    3  A    between atoms: O_3  and  C_4
REMARK    4  A    between atoms: C_7  and  S_8
REMARK    5  A    between atoms: S_8  and  N_11
REMARK    6  A    between atoms: N_11  and  C_12
REMARK    7  A    between atoms: N_11  and  C_27
REMARK    8  A    between atoms: C_12  and  C_13
REMARK    9  A    between atoms: N_15  and  N_16
REMARK                            x       y       z     vdW  Elec       q    Type
REMARK                         _______ _______ _______ _____ _____    ______ ____
ROOT
ATOM      1  N   UNL     1      -4.919   5.082 129.506  0.00  0.00    +0.000 N 
ENDROOT
BRANCH   1   2
ATOM      2  C   UNL     1      -4.124   4.597 128.316  0.00  0.00    +0.000 A 
ATOM      3  C   UNL     1      -4.790   4.446 127.082  0.00  0.00    +0.000 A 
ATOM      4  C   UNL     1      -4.196   3.819 125.969  0.00  0.00    +0.000 A 
ATOM      5  C   UNL     1      -2.875   3.394 126.028  0.00  0.00    +0.000 A 
ATOM      6  C   UNL     1      -2.178   3.535 127.226  0.00  0.00    +0.000 A 
ATOM      7  C   UNL     1      -2.804   4.105 128.364  0.00  0.00    +0.000 A 
ENDBRANCH   1   2
BRANCH   1   8
ATOM      8  S   UNL     1      -4.578   6.717 130.073  0.00  0.00    +0.000 S 
ATOM      9  O   UNL     1      -5.793   7.162 130.726  0.00  0.00    +0.000 OA
ATOM     10  O   UNL     1      -4.091   7.481 128.930  0.00  0.00    +0.000 OA
BRANCH   8  14
ATOM     11  C   UNL     1      -0.791   7.454 132.652  0.00  0.00    +0.000 A 
ATOM     12  C   UNL     1      -1.846   8.369 132.728  0.00  0.00    +0.000 A 
ATOM     13  C   UNL     1      -3.065   8.123 132.025  0.00  0.00    +0.000 A 
ATOM     14  C   UNL     1      -3.274   6.895 131.364  0.00  0.00    +0.000 A 
ATOM     15  C   UNL     1      -2.334   5.917 131.601  0.00  0.00    +0.000 A 
ATOM     16  C   UNL     1      -1.037   6.263 132.004  0.00  0.00    +0.000 A 
BRANCH  11  17
ATOM     17  O   UNL     1       0.363   7.656 133.360  0.00  0.00    +0.000 OA
BRANCH  17  19
ATOM     18  C   UNL     1       0.646   8.841 135.427  0.00  0.00    +0.000 C 
ATOM     19  C   UNL     1       0.281   7.513 134.790  0.00  0.00    +0.000 C 
ENDBRANCH  17  19
ENDBRANCH  11  17
ENDBRANCH   8  14
ENDBRANCH   1   8
BRANCH   1  20
ATOM     20  C   UNL     1      -5.603   3.957 130.290  0.00  0.00    +0.000 C 
BRANCH  20  21
ATOM     21  C   UNL     1      -7.126   3.681 130.238  0.00  0.00    +0.000 C 
ATOM     22  O   UNL     1      -7.480   2.487 130.326  0.00  0.00    +0.000 OA
ATOM     23  N   UNL     1      -8.031   4.795 130.109  0.00  0.00    +0.000 N 
ATOM     24  H   UNL     1      -7.611   5.720 130.000  0.00  0.00    +0.000 HD
BRANCH  23  25
ATOM     25  N   UNL     1      -9.408   4.807 129.429  0.00  0.00    +0.000 NA
ATOM     26  C   UNL     1     -10.247   5.695 129.968  0.00  0.00    +0.000 C 
ATOM     27  C   UNL     1     -10.217   5.908 131.449  0.00  0.00    +0.000 C 
ATOM     28  O   UNL     1      -9.267   6.551 131.821  0.00  0.00    +0.000 OA
ATOM     29  N   UNL     1     -11.560   5.989 131.848  0.00  0.00    +0.000 N 
ATOM     30  C   UNL     1     -12.108   6.861 130.897  0.00  0.00    +0.000 A 
ATOM     31  C   UNL     1     -12.960   7.865 131.402  0.00  0.00    +0.000 A 
ATOM     32  C   UNL     1     -13.179   9.015 130.686  0.00  0.00    +0.000 A 
ATOM     33  C   UNL     1     -12.471   9.119 129.488  0.00  0.00    +0.000 A 
ATOM     34  C   UNL     1     -11.600   8.032 128.965  0.00  0.00    +0.000 A 
ATOM     35  C   UNL     1     -11.422   6.801 129.662  0.00  0.00    +0.000 A 
ATOM     36  H   UNL     1     -12.109   5.139 131.729  0.00  0.00    +0.000 HD
ENDBRANCH  23  25
ENDBRANCH  20  21
ENDBRANCH   1  20
TORSDOF 8
ENDMDL
MODEL 5
REMARK VINA RESULT:      -8.7      3.050      9.253
REMARK  Name = CHEMBL491224
REMARK  9 active torsions:
REMARK  status: ('A' for Active; 'I' for Inactive)
REMARK    1  A    between atoms: C_1  and  C_2
REMARK    2  A    between atoms: C_2  and  O_3
REMARK    3  A    between atoms: O_3  and  C_4
REMARK    4  A    between atoms: C_7  and  S_8
REMARK    5  A    between atoms: S_8  and  N_11
REMARK    6  A    between atoms: N_11  and  C_12
REMARK    7  A    between atoms: N_11  and  C_27
REMARK    8  A    between atoms: C_12  and  C_13
REMARK    9  A    between atoms: N_15  and  N_16
REMARK                            x       y       z     vdW  Elec       q    Type
REMARK                         _______ _______ _______ _____ _____    ______ ____
ROOT
ATOM      1  N   UNL     1      -7.418   4.466 130.474  0.00  0.00    +0.000 N 
ENDROOT
BRANCH   1   2
ATOM      2  C   UNL     1      -8.080   3.255 131.087  0.00  0.00    +0.000 A 
ATOM      3  C   UNL     1      -7.293   2.108 131.322  0.00  0.00    +0.000 A 
ATOM      4  C   UNL     1      -7.848   0.870 131.702  0.00  0.00    +0.000 A 
ATOM      5  C   UNL     1      -9.211   0.759 131.945  0.00  0.00    +0.000 A 
ATOM      6  C   UNL     1     -10.021   1.872 131.735  0.00  0.00    +0.000 A 
ATOM      7  C   UNL     1      -9.466   3.097 131.286  0.00  0.00    +0.000 A 
ENDBRANCH   1   2
BRANCH   1   8
ATOM      8  S   UNL     1      -7.748   6.021 131.238  0.00  0.00    +0.000 S 
ATOM      9  O   UNL     1      -6.749   6.931 130.712  0.00  0.00    +0.000 OA
ATOM     10  O   UNL     1      -7.785   5.799 132.679  0.00  0.00    +0.000 OA
BRANCH   8  14
ATOM     11  C   UNL     1     -11.929   7.325 129.706  0.00  0.00    +0.000 A 
ATOM     12  C   UNL     1     -11.814   6.827 131.008  0.00  0.00    +0.000 A 
ATOM     13  C   UNL     1     -10.530   6.509 131.547  0.00  0.00    +0.000 A 
ATOM     14  C   UNL     1      -9.357   6.824 130.831  0.00  0.00    +0.000 A 
ATOM     15  C   UNL     1      -9.528   7.604 129.709  0.00  0.00    +0.000 A 
ATOM     16  C   UNL     1     -10.760   7.627 129.043  0.00  0.00    +0.000 A 
BRANCH  11  17
ATOM     17  O   UNL     1     -13.151   7.678 129.197  0.00  0.00    +0.000 OA
BRANCH  17  19
ATOM     18  C   UNL     1     -13.220  10.029 129.669  0.00  0.00    +0.000 C 
ATOM     19  C   UNL     1     -13.245   8.975 128.578  0.00  0.00    +0.000 C 
ENDBRANCH  17  19
ENDBRANCH  11  17
ENDBRANCH   8  14
ENDBRANCH   1   8
BRANCH   1  20
ATOM     20  C   UNL     1      -6.892   4.228 129.054  0.00  0.00    +0.000 C 
BRANCH  20  21
ATOM     21  C   UNL     1      -7.786   3.770 127.875  0.00  0.00    +0.000 C 
ATOM     22  O   UNL     1      -8.351   4.671 127.221  0.00  0.00    +0.000 OA
ATOM     23  N   UNL     1      -7.901   2.362 127.596  0.00  0.00    +0.000 N 
ATOM     24  H   UNL     1      -7.424   1.724 128.236  0.00  0.00    +0.000 HD
BRANCH  23  25
ATOM     25  N   UNL     1      -9.104   1.624 126.989  0.00  0.00    +0.000 NA
ATOM     26  C   UNL     1      -8.747   0.665 126.130  0.00  0.00    +0.000 C 
ATOM     27  C   UNL     1      -7.569   0.900 125.237  0.00  0.00    +0.000 C 
ATOM     28  O   UNL     1      -6.511   0.810 125.808  0.00  0.00    +0.000 OA
ATOM     29  N   UNL     1      -7.946   0.413 123.976  0.00  0.00    +0.000 N 
ATOM     30  C   UNL     1      -8.516  -0.830 124.287  0.00  0.00    +0.000 A 
ATOM     31  C   UNL     1      -8.137  -1.905 123.457  0.00  0.00    +0.000 A 
ATOM     32  C   UNL     1      -8.239  -3.198 123.905  0.00  0.00    +0.000 A 
ATOM     33  C   UNL     1      -8.681  -3.343 125.221  0.00  0.00    +0.000 A 
ATOM     34  C   UNL     1      -9.101  -2.192 126.065  0.00  0.00    +0.000 A 
ATOM     35  C   UNL     1      -9.073  -0.850 125.586  0.00  0.00    +0.000 A 
ATOM     36  H   UNL     1      -8.710   0.911 123.520  0.00  0.00    +0.000 HD
ENDBRANCH  23  25
ENDBRANCH  20  21
ENDBRANCH   1  20
TORSDOF 8
ENDMDL
MODEL 6
REMARK VINA RESULT:      -8.7      3.133      4.387
REMARK  Name = CHEMBL491224
REMARK  9 active torsions:
REMARK  status: ('A' for Active; 'I' for Inactive)
REMARK    1  A    between atoms: C_1  and  C_2
REMARK    2  A    between atoms: C_2  and  O_3
REMARK    3  A    between atoms: O_3  and  C_4
REMARK    4  A    between atoms: C_7  and  S_8
REMARK    5  A    between atoms: S_8  and  N_11
REMARK    6  A    between atoms: N_11  and  C_12
REMARK    7  A    between atoms: N_11  and  C_27
REMARK    8  A    between atoms: C_12  and  C_13
REMARK    9  A    between atoms: N_15  and  N_16
REMARK                            x       y       z     vdW  Elec       q    Type
REMARK                         _______ _______ _______ _____ _____    ______ ____
ROOT
ATOM      1  N   UNL     1      -6.905   1.757 128.101  0.00  0.00    +0.000 N 
ENDROOT
BRANCH   1   2
ATOM      2  C   UNL     1      -5.772   2.509 127.444  0.00  0.00    +0.000 A 
ATOM      3  C   UNL     1      -6.023   3.809 126.961  0.00  0.00    +0.000 A 
ATOM      4  C   UNL     1      -5.100   4.515 126.163  0.00  0.00    +0.000 A 
ATOM      5  C   UNL     1      -3.851   3.973 125.891  0.00  0.00    +0.000 A 
ATOM      6  C   UNL     1      -3.560   2.694 126.361  0.00  0.00    +0.000 A 
ATOM      7  C   UNL     1      -4.519   1.961 127.105  0.00  0.00    +0.000 A 
ENDBRANCH   1   2
BRANCH   1   8
ATOM      8  S   UNL     1      -8.130   1.076 127.029  0.00  0.00    +0.000 S 
ATOM      9  O   UNL     1      -9.392   1.622 127.488  0.00  0.00    +0.000 OA
ATOM     10  O   UNL     1      -7.962  -0.373 127.041  0.00  0.00    +0.000 OA
BRANCH   8  14
ATOM     11  C   UNL     1      -7.260   2.833 122.824  0.00  0.00    +0.000 A 
ATOM     12  C   UNL     1      -6.800   1.547 123.125  0.00  0.00    +0.000 A 
ATOM     13  C   UNL     1      -7.133   0.936 124.372  0.00  0.00    +0.000 A 
ATOM     14  C   UNL     1      -8.042   1.558 125.252  0.00  0.00    +0.000 A 
ATOM     15  C   UNL     1      -8.705   2.658 124.753  0.00  0.00    +0.000 A 
ATOM     16  C   UNL     1      -8.152   3.403 123.705  0.00  0.00    +0.000 A 
BRANCH  11  17
ATOM     17  O   UNL     1      -6.986   3.408 121.612  0.00  0.00    +0.000 OA
BRANCH  17  19
ATOM     18  C   UNL     1      -4.877   4.513 121.906  0.00  0.00    +0.000 C 
ATOM     19  C   UNL     1      -5.611   3.398 121.184  0.00  0.00    +0.000 C 
ENDBRANCH  17  19
ENDBRANCH  11  17
ENDBRANCH   8  14
ENDBRANCH   1   8
BRANCH   1  20
ATOM     20  C   UNL     1      -7.045   2.039 129.601  0.00  0.00    +0.000 C 
BRANCH  20  21
ATOM     21  C   UNL     1      -7.778   3.278 130.174  0.00  0.00    +0.000 C 
ATOM     22  O   UNL     1      -7.135   3.983 130.979  0.00  0.00    +0.000 OA
ATOM     23  N   UNL     1      -9.125   3.551 129.742  0.00  0.00    +0.000 N 
ATOM     24  H   UNL     1      -9.555   2.870 129.113  0.00  0.00    +0.000 HD
BRANCH  23  25
ATOM     25  N   UNL     1     -10.241   4.241 130.540  0.00  0.00    +0.000 NA
ATOM     26  C   UNL     1     -10.634   5.395 129.995  0.00  0.00    +0.000 C 
ATOM     27  C   UNL     1      -9.608   6.277 129.355  0.00  0.00    +0.000 C 
ATOM     28  O   UNL     1      -9.233   5.875 128.283  0.00  0.00    +0.000 OA
ATOM     29  N   UNL     1      -9.928   7.584 129.756  0.00  0.00    +0.000 N 
ATOM     30  C   UNL     1     -11.313   7.636 129.544  0.00  0.00    +0.000 A 
ATOM     31  C   UNL     1     -11.796   8.803 128.916  0.00  0.00    +0.000 A 
ATOM     32  C   UNL     1     -12.998   8.789 128.254  0.00  0.00    +0.000 A 
ATOM     33  C   UNL     1     -13.646   7.554 128.215  0.00  0.00    +0.000 A 
ATOM     34  C   UNL     1     -13.128   6.345 128.911  0.00  0.00    +0.000 A 
ATOM     35  C   UNL     1     -11.919   6.364 129.666  0.00  0.00    +0.000 A 
ATOM     36  H   UNL     1      -9.838   7.776 130.753  0.00  0.00    +0.000 HD
ENDBRANCH  23  25
ENDBRANCH  20  21
ENDBRANCH   1  20
TORSDOF 8
ENDMDL
MODEL 7
REMARK VINA RESULT:      -8.7      3.456      5.599
REMARK  Name = CHEMBL491224
REMARK  9 active torsions:
REMARK  status: ('A' for Active; 'I' for Inactive)
REMARK    1  A    between atoms: C_1  and  C_2
REMARK    2  A    between atoms: C_2  and  O_3
REMARK    3  A    between atoms: O_3  and  C_4
REMARK    4  A    between atoms: C_7  and  S_8
REMARK    5  A    between atoms: S_8  and  N_11
REMARK    6  A    between atoms: N_11  and  C_12
REMARK    7  A    between atoms: N_11  and  C_27
REMARK    8  A    between atoms: C_12  and  C_13
REMARK    9  A    between atoms: N_15  and  N_16
REMARK                            x       y       z     vdW  Elec       q    Type
REMARK                         _______ _______ _______ _____ _____    ______ ____
ROOT
ATOM      1  N   UNL     1      -7.440   3.132 125.025  0.00  0.00    +0.000 N 
ENDROOT
BRANCH   1   2
ATOM      2  C   UNL     1      -7.300   3.221 123.524  0.00  0.00    +0.000 A 
ATOM      3  C   UNL     1      -6.048   3.592 122.990  0.00  0.00    +0.000 A 
ATOM      4  C   UNL     1      -5.863   3.895 121.626  0.00  0.00    +0.000 A 
ATOM      5  C   UNL     1      -6.913   3.753 120.729  0.00  0.00    +0.000 A 
ATOM      6  C   UNL     1      -8.163   3.378 121.215  0.00  0.00    +0.000 A 
ATOM      7  C   UNL     1      -8.360   3.141 122.600  0.00  0.00    +0.000 A 
ENDBRANCH   1   2
BRANCH   1   8
ATOM      8  S   UNL     1      -8.195   1.671 125.665  0.00  0.00    +0.000 S 
ATOM      9  O   UNL     1      -9.573   1.719 125.216  0.00  0.00    +0.000 OA
ATOM     10  O   UNL     1      -7.940   1.643 127.100  0.00  0.00    +0.000 OA
BRANCH   8  14
ATOM     11  C   UNL     1      -6.062  -1.879 123.572  0.00  0.00    +0.000 A 
ATOM     12  C   UNL     1      -5.727  -1.578 124.896  0.00  0.00    +0.000 A 
ATOM     13  C   UNL     1      -6.432  -0.556 125.604  0.00  0.00    +0.000 A 
ATOM     14  C   UNL     1      -7.562   0.061 125.030  0.00  0.00    +0.000 A 
ATOM     15  C   UNL     1      -8.032  -0.508 123.866  0.00  0.00    +0.000 A 
ATOM     16  C   UNL     1      -7.177  -1.260 123.050  0.00  0.00    +0.000 A 
BRANCH  11  17
ATOM     17  O   UNL     1      -5.425  -2.888 122.902  0.00  0.00    +0.000 OA
BRANCH  17  19
ATOM     18  C   UNL     1      -4.411  -4.961 123.556  0.00  0.00    +0.000 C 
ATOM     19  C   UNL     1      -4.260  -3.452 123.532  0.00  0.00    +0.000 C 
ENDBRANCH  17  19
ENDBRANCH  11  17
ENDBRANCH   8  14
ENDBRANCH   1   8
BRANCH   1  20
ATOM     20  C   UNL     1      -7.284   4.478 125.741  0.00  0.00    +0.000 C 
BRANCH  20  21
ATOM     21  C   UNL     1      -8.404   5.134 126.586  0.00  0.00    +0.000 C 
ATOM     22  O   UNL     1      -9.217   5.855 125.971  0.00  0.00    +0.000 OA
ATOM     23  N   UNL     1      -8.454   4.868 128.001  0.00  0.00    +0.000 N 
ATOM     24  H   UNL     1      -7.701   4.296 128.390  0.00  0.00    +0.000 HD
BRANCH  23  25
ATOM     25  N   UNL     1      -8.977   5.794 129.109  0.00  0.00    +0.000 NA
ATOM     26  C   UNL     1      -8.929   5.235 130.321  0.00  0.00    +0.000 C 
ATOM     27  C   UNL     1      -9.231   3.776 130.453  0.00  0.00    +0.000 C 
ATOM     28  O   UNL     1      -8.337   3.065 130.069  0.00  0.00    +0.000 OA
ATOM     29  N   UNL     1     -10.035   3.658 131.598  0.00  0.00    +0.000 N 
ATOM     30  C   UNL     1      -9.353   4.451 132.532  0.00  0.00    +0.000 A 
ATOM     31  C   UNL     1      -9.211   3.898 133.821  0.00  0.00    +0.000 A 
ATOM     32  C   UNL     1      -8.212   4.330 134.656  0.00  0.00    +0.000 A 
ATOM     33  C   UNL     1      -7.352   5.289 134.117  0.00  0.00    +0.000 A 
ATOM     34  C   UNL     1      -7.542   5.875 132.763  0.00  0.00    +0.000 A 
ATOM     35  C   UNL     1      -8.621   5.490 131.913  0.00  0.00    +0.000 A 
ATOM     36  H   UNL     1     -10.952   4.100 131.543  0.00  0.00    +0.000 HD
ENDBRANCH  23  25
ENDBRANCH  20  21
ENDBRANCH   1  20
TORSDOF 8
ENDMDL
MODEL 8
REMARK VINA RESULT:      -8.4      2.838      4.062
REMARK  Name = CHEMBL491224
REMARK  9 active torsions:
REMARK  status: ('A' for Active; 'I' for Inactive)
REMARK    1  A    between atoms: C_1  and  C_2
REMARK    2  A    between atoms: C_2  and  O_3
REMARK    3  A    between atoms: O_3  and  C_4
REMARK    4  A    between atoms: C_7  and  S_8
REMARK    5  A    between atoms: S_8  and  N_11
REMARK    6  A    between atoms: N_11  and  C_12
REMARK    7  A    between atoms: N_11  and  C_27
REMARK    8  A    between atoms: C_12  and  C_13
REMARK    9  A    between atoms: N_15  and  N_16
REMARK                            x       y       z     vdW  Elec       q    Type
REMARK                         _______ _______ _______ _____ _____    ______ ____
ROOT
ATOM      1  N   UNL     1      -6.536   3.619 129.220  0.00  0.00    +0.000 N 
ENDROOT
BRANCH   1   2
ATOM      2  C   UNL     1      -5.563   4.616 129.804  0.00  0.00    +0.000 A 
ATOM      3  C   UNL     1      -4.194   4.278 129.833  0.00  0.00    +0.000 A 
ATOM      4  C   UNL     1      -3.236   5.043 130.527  0.00  0.00    +0.000 A 
ATOM      5  C   UNL     1      -3.605   6.228 131.150  0.00  0.00    +0.000 A 
ATOM      6  C   UNL     1      -4.946   6.603 131.135  0.00  0.00    +0.000 A 
ATOM      7  C   UNL     1      -5.917   5.793 130.492  0.00  0.00    +0.000 A 
ENDBRANCH   1   2
BRANCH   1   8
ATOM      8  S   UNL     1      -7.165   3.974 127.610  0.00  0.00    +0.000 S 
ATOM      9  O   UNL     1      -6.084   4.641 126.911  0.00  0.00    +0.000 OA
ATOM     10  O   UNL     1      -8.421   4.695 127.784  0.00  0.00    +0.000 OA
BRANCH   8  14
ATOM     11  C   UNL     1      -8.954   0.306 125.402  0.00  0.00    +0.000 A 
ATOM     12  C   UNL     1      -8.990   1.554 124.773  0.00  0.00    +0.000 A 
ATOM     13  C   UNL     1      -8.362   2.685 125.378  0.00  0.00    +0.000 A 
ATOM     14  C   UNL     1      -7.580   2.531 126.542  0.00  0.00    +0.000 A 
ATOM     15  C   UNL     1      -7.318   1.233 126.922  0.00  0.00    +0.000 A 
ATOM     16  C   UNL     1      -8.173   0.194 126.532  0.00  0.00    +0.000 A 
BRANCH  11  17
ATOM     17  O   UNL     1      -9.511  -0.794 124.807  0.00  0.00    +0.000 OA
BRANCH  17  19
ATOM     18  C   UNL     1      -9.268  -2.737 123.422  0.00  0.00    +0.000 C 
ATOM     19  C   UNL     1      -8.862  -1.289 123.621  0.00  0.00    +0.000 C 
ENDBRANCH  17  19
ENDBRANCH  11  17
ENDBRANCH   8  14
ENDBRANCH   1   8
BRANCH   1  20
ATOM     20  C   UNL     1      -7.142   2.669 130.258  0.00  0.00    +0.000 C 
BRANCH  20  21
ATOM     21  C   UNL     1      -8.648   2.644 130.619  0.00  0.00    +0.000 C 
ATOM     22  O   UNL     1      -9.116   1.546 130.987  0.00  0.00    +0.000 OA
ATOM     23  N   UNL     1      -9.405   3.866 130.528  0.00  0.00    +0.000 N 
ATOM     24  H   UNL     1      -8.915   4.688 130.169  0.00  0.00    +0.000 HD
BRANCH  23  25
ATOM     25  N   UNL     1     -10.899   4.018 130.206  0.00  0.00    +0.000 NA
ATOM     26  C   UNL     1     -11.309   5.289 130.223  0.00  0.00    +0.000 C 
ATOM     27  C   UNL     1     -10.734   6.217 131.248  0.00  0.00    +0.000 C 
ATOM     28  O   UNL     1      -9.607   6.564 131.000  0.00  0.00    +0.000 OA
ATOM     29  N   UNL     1     -11.816   6.975 131.722  0.00  0.00    +0.000 N 
ATOM     30  C   UNL     1     -12.468   7.349 130.538  0.00  0.00    +0.000 A 
ATOM     31  C   UNL     1     -12.878   8.696 130.460  0.00  0.00    +0.000 A 
ATOM     32  C   UNL     1     -13.092   9.288 129.241  0.00  0.00    +0.000 A 
ATOM     33  C   UNL     1     -12.827   8.485 128.130  0.00  0.00    +0.000 A 
ATOM     34  C   UNL     1     -12.423   7.058 128.241  0.00  0.00    +0.000 A 
ATOM     35  C   UNL     1     -12.270   6.408 129.502  0.00  0.00    +0.000 A 
ATOM     36  H   UNL     1     -12.533   6.456 132.228  0.00  0.00    +0.000 HD
ENDBRANCH  23  25
ENDBRANCH  20  21
ENDBRANCH   1  20
TORSDOF 8
ENDMDL
MODEL 9
REMARK VINA RESULT:      -8.4      5.701      7.791
REMARK  Name = CHEMBL491224
REMARK  9 active torsions:
REMARK  status: ('A' for Active; 'I' for Inactive)
REMARK    1  A    between atoms: C_1  and  C_2
REMARK    2  A    between atoms: C_2  and  O_3
REMARK    3  A    between atoms: O_3  and  C_4
REMARK    4  A    between atoms: C_7  and  S_8
REMARK    5  A    between atoms: S_8  and  N_11
REMARK    6  A    between atoms: N_11  and  C_12
REMARK    7  A    between atoms: N_11  and  C_27
REMARK    8  A    between atoms: C_12  and  C_13
REMARK    9  A    between atoms: N_15  and  N_16
REMARK                            x       y       z     vdW  Elec       q    Type
REMARK                         _______ _______ _______ _____ _____    ______ ____
ROOT
ATOM      1  N   UNL     1      -6.614   3.522 123.793  0.00  0.00    +0.000 N 
ENDROOT
BRANCH   1   2
ATOM      2  C   UNL     1      -6.175   3.885 122.393  0.00  0.00    +0.000 A 
ATOM      3  C   UNL     1      -4.987   4.629 122.236  0.00  0.00    +0.000 A 
ATOM      4  C   UNL     1      -4.596   5.184 121.001  0.00  0.00    +0.000 A 
ATOM      5  C   UNL     1      -5.343   4.941 119.856  0.00  0.00    +0.000 A 
ATOM      6  C   UNL     1      -6.518   4.201 119.968  0.00  0.00    +0.000 A 
ATOM      7  C   UNL     1      -6.943   3.702 121.226  0.00  0.00    +0.000 A 
ENDBRANCH   1   2
BRANCH   1   8
ATOM      8  S   UNL     1      -8.250   2.887 123.971  0.00  0.00    +0.000 S 
ATOM      9  O   UNL     1      -8.875   3.057 122.674  0.00  0.00    +0.000 OA
ATOM     10  O   UNL     1      -8.853   3.555 125.118  0.00  0.00    +0.000 OA
BRANCH   8  14
ATOM     11  C   UNL     1      -8.065  -1.490 125.501  0.00  0.00    +0.000 A 
ATOM     12  C   UNL     1      -9.180  -0.710 125.824  0.00  0.00    +0.000 A 
ATOM     13  C   UNL     1      -9.318   0.607 125.289  0.00  0.00    +0.000 A 
ATOM     14  C   UNL     1      -8.410   1.085 124.322  0.00  0.00    +0.000 A 
ATOM     15  C   UNL     1      -7.533   0.154 123.810  0.00  0.00    +0.000 A 
ATOM     16  C   UNL     1      -7.205  -0.992 124.547  0.00  0.00    +0.000 A 
BRANCH  11  17
ATOM     17  O   UNL     1      -7.948  -2.771 125.970  0.00  0.00    +0.000 OA
BRANCH  17  19
ATOM     18  C   UNL     1      -8.797  -3.839 127.943  0.00  0.00    +0.000 C 
ATOM     19  C   UNL     1      -9.129  -3.364 126.541  0.00  0.00    +0.000 C 
ENDBRANCH  17  19
ENDBRANCH  11  17
ENDBRANCH   8  14
ENDBRANCH   1   8
BRANCH   1  20
ATOM     20  C   UNL     1      -5.736   4.131 124.891  0.00  0.00    +0.000 C 
BRANCH  20  21
ATOM     21  C   UNL     1      -4.748   3.307 125.753  0.00  0.00    +0.000 C 
ATOM     22  O   UNL     1      -5.103   2.148 126.055  0.00  0.00    +0.000 OA
ATOM     23  N   UNL     1      -3.494   3.903 126.136  0.00  0.00    +0.000 N 
ATOM     24  H   UNL     1      -3.343   4.876 125.862  0.00  0.00    +0.000 HD
BRANCH  23  25
ATOM     25  N   UNL     1      -2.677   3.628 127.407  0.00  0.00    +0.000 NA
ATOM     26  C   UNL     1      -2.844   4.562 128.346  0.00  0.00    +0.000 C 
ATOM     27  C   UNL     1      -2.987   5.991 127.923  0.00  0.00    +0.000 C 
ATOM     28  O   UNL     1      -4.066   6.244 127.451  0.00  0.00    +0.000 OA
ATOM     29  N   UNL     1      -2.213   6.733 128.829  0.00  0.00    +0.000 N 
ATOM     30  C   UNL     1      -2.591   6.193 130.066  0.00  0.00    +0.000 A 
ATOM     31  C   UNL     1      -2.843   7.127 131.093  0.00  0.00    +0.000 A 
ATOM     32  C   UNL     1      -3.635   6.788 132.161  0.00  0.00    +0.000 A 
ATOM     33  C   UNL     1      -4.189   5.507 132.114  0.00  0.00    +0.000 A 
ATOM     34  C   UNL     1      -3.883   4.533 131.032  0.00  0.00    +0.000 A 
ATOM     35  C   UNL     1      -3.002   4.845 129.956  0.00  0.00    +0.000 A 
ATOM     36  H   UNL     1      -1.209   6.562 128.797  0.00  0.00    +0.000 HD
ENDBRANCH  23  25
ENDBRANCH  20  21
ENDBRANCH   1  20
TORSDOF 8
ENDMDL
