MODEL 1
REMARK VINA RESULT:      -8.0      0.000      0.000
REMARK  Name = CHEMBL1093709
REMARK  9 active torsions:
REMARK  status: ('A' for Active; 'I' for Inactive)
REMARK    1  A    between atoms: C_1  and  C_2
REMARK    2  A    between atoms: C_2  and  N_3
REMARK    3  A    between atoms: N_3  and  C_21
REMARK    4  A    between atoms: C_4  and  C_6
REMARK    5  A    between atoms: C_9  and  C_10
REMARK    6  A    between atoms: C_13  and  O_14
REMARK    7  A    between atoms: O_14  and  C_15
REMARK    8  A    between atoms: C_24  and  O_25
REMARK    9  A    between atoms: O_25  and  C_26
REMARK                            x       y       z     vdW  Elec       q    Type
REMARK                         _______ _______ _______ _____ _____    ______ ____
ROOT
ATOM      1  C   UNL     1      -9.727   3.262 130.570  0.00  0.00    +0.000 A 
ATOM      2  C   UNL     1      -9.781   2.741 131.814  0.00  0.00    +0.000 A 
ATOM      3  C   UNL     1      -9.127   1.484 132.144  0.00  0.00    +0.000 A 
ATOM      4  C   UNL     1      -8.557   0.755 131.170  0.00  0.00    +0.000 A 
ATOM      5  N   UNL     1      -8.490   1.277 129.903  0.00  0.00    +0.000 N 
ATOM      6  C   UNL     1      -8.834   2.580 129.582  0.00  0.00    +0.000 A 
ATOM      7  O   UNL     1      -8.547   3.066 128.503  0.00  0.00    +0.000 OA
ATOM      8  H   UNL     1      -8.109   0.712 129.153  0.00  0.00    +0.000 HD
ENDROOT
BRANCH   4   9
ATOM      9  C   UNL     1      -7.927  -0.554 131.396  0.00  0.00    +0.000 A 
ATOM     10  C   UNL     1      -7.822  -1.469 130.339  0.00  0.00    +0.000 A 
ATOM     11  C   UNL     1      -7.326  -2.758 130.558  0.00  0.00    +0.000 A 
ATOM     12  C   UNL     1      -6.850  -3.124 131.818  0.00  0.00    +0.000 A 
ATOM     13  C   UNL     1      -6.947  -2.215 132.873  0.00  0.00    +0.000 A 
ATOM     14  C   UNL     1      -7.486  -0.941 132.666  0.00  0.00    +0.000 A 
BRANCH  12  15
ATOM     15  O   UNL     1      -6.304  -4.376 131.901  0.00  0.00    +0.000 OA
ATOM     16  C   UNL     1      -5.555  -4.809 130.769  0.00  0.00    +0.000 C 
ENDBRANCH  12  15
ENDBRANCH   4   9
BRANCH   1  18
ATOM     17  N   UNL     1     -10.040   5.779 130.247  0.00  0.00    +0.000 N 
ATOM     18  C   UNL     1     -10.567   4.463 130.252  0.00  0.00    +0.000 C 
ATOM     19  O   UNL     1     -11.714   4.219 129.853  0.00  0.00    +0.000 OA
BRANCH  17  20
ATOM     20  C   UNL     1     -10.970   6.887 130.026  0.00  0.00    +0.000 A 
ATOM     21  C   UNL     1     -11.987   7.192 130.936  0.00  0.00    +0.000 A 
ATOM     22  C   UNL     1     -12.841   8.282 130.727  0.00  0.00    +0.000 A 
ATOM     23  C   UNL     1     -12.696   9.050 129.586  0.00  0.00    +0.000 A 
ATOM     24  N   UNL     1     -11.761   8.764 128.659  0.00  0.00    +0.000 NA
ATOM     25  C   UNL     1     -10.922   7.712 128.900  0.00  0.00    +0.000 A 
BRANCH  23  26
ATOM     26  O   UNL     1     -13.456  10.151 129.289  0.00  0.00    +0.000 OA
ATOM     27  C   UNL     1     -13.492  11.183 130.269  0.00  0.00    +0.000 C 
ENDBRANCH  23  26
ENDBRANCH  17  20
BRANCH  17  29
ATOM     28  C   UNL     1      -8.163   6.262 131.953  0.00  0.00    +0.000 C 
ATOM     29  C   UNL     1      -8.640   6.233 130.524  0.00  0.00    +0.000 C 
ENDBRANCH  17  29
ENDBRANCH   1  18
TORSDOF 6
ENDMDL
MODEL 2
REMARK VINA RESULT:      -7.6      6.918     11.496
REMARK  Name = CHEMBL1093709
REMARK  9 active torsions:
REMARK  status: ('A' for Active; 'I' for Inactive)
REMARK    1  A    between atoms: C_1  and  C_2
REMARK    2  A    between atoms: C_2  and  N_3
REMARK    3  A    between atoms: N_3  and  C_21
REMARK    4  A    between atoms: C_4  and  C_6
REMARK    5  A    between atoms: C_9  and  C_10
REMARK    6  A    between atoms: C_13  and  O_14
REMARK    7  A    between atoms: O_14  and  C_15
REMARK    8  A    between atoms: C_24  and  O_25
REMARK    9  A    between atoms: O_25  and  C_26
REMARK                            x       y       z     vdW  Elec       q    Type
REMARK                         _______ _______ _______ _____ _____    ______ ____
ROOT
ATOM      1  C   UNL     1      -7.034   0.697 125.913  0.00  0.00    +0.000 A 
ATOM      2  C   UNL     1      -6.185   1.722 125.684  0.00  0.00    +0.000 A 
ATOM      3  C   UNL     1      -6.252   2.510 124.464  0.00  0.00    +0.000 A 
ATOM      4  C   UNL     1      -7.091   2.144 123.481  0.00  0.00    +0.000 A 
ATOM      5  N   UNL     1      -7.963   1.108 123.703  0.00  0.00    +0.000 N 
ATOM      6  C   UNL     1      -8.150   0.504 124.935  0.00  0.00    +0.000 A 
ATOM      7  O   UNL     1      -9.086  -0.248 125.139  0.00  0.00    +0.000 OA
ATOM      8  H   UNL     1      -8.562   0.793 122.949  0.00  0.00    +0.000 HD
ENDROOT
BRANCH   4   9
ATOM      9  C   UNL     1      -7.184   2.841 122.189  0.00  0.00    +0.000 A 
ATOM     10  C   UNL     1      -6.014   3.209 121.510  0.00  0.00    +0.000 A 
ATOM     11  C   UNL     1      -6.079   3.966 120.336  0.00  0.00    +0.000 A 
ATOM     12  C   UNL     1      -7.315   4.295 119.778  0.00  0.00    +0.000 A 
ATOM     13  C   UNL     1      -8.484   3.925 120.447  0.00  0.00    +0.000 A 
ATOM     14  C   UNL     1      -8.420   3.208 121.646  0.00  0.00    +0.000 A 
BRANCH  12  15
ATOM     15  O   UNL     1      -7.265   4.959 118.583  0.00  0.00    +0.000 OA
ATOM     16  C   UNL     1      -6.079   5.707 118.332  0.00  0.00    +0.000 C 
ENDBRANCH  12  15
ENDBRANCH   4   9
BRANCH   1  18
ATOM     17  N   UNL     1      -6.228  -1.477 126.991  0.00  0.00    +0.000 N 
ATOM     18  C   UNL     1      -6.799  -0.184 127.104  0.00  0.00    +0.000 C 
ATOM     19  O   UNL     1      -7.002   0.345 128.205  0.00  0.00    +0.000 OA
BRANCH  17  20
ATOM     20  C   UNL     1      -6.139  -2.293 128.202  0.00  0.00    +0.000 A 
ATOM     21  C   UNL     1      -7.271  -2.864 128.794  0.00  0.00    +0.000 A 
ATOM     22  C   UNL     1      -7.160  -3.676 129.929  0.00  0.00    +0.000 A 
ATOM     23  C   UNL     1      -5.915  -3.892 130.492  0.00  0.00    +0.000 A 
ATOM     24  N   UNL     1      -4.804  -3.323 129.984  0.00  0.00    +0.000 NA
ATOM     25  C   UNL     1      -4.936  -2.557 128.860  0.00  0.00    +0.000 A 
BRANCH  23  26
ATOM     26  O   UNL     1      -5.685  -4.685 131.586  0.00  0.00    +0.000 OA
ATOM     27  C   UNL     1      -4.587  -4.321 132.416  0.00  0.00    +0.000 C 
ENDBRANCH  23  26
ENDBRANCH  17  20
BRANCH  17  29
ATOM     28  C   UNL     1      -6.766  -2.958 124.946  0.00  0.00    +0.000 C 
ATOM     29  C   UNL     1      -5.757  -2.194 125.763  0.00  0.00    +0.000 C 
ENDBRANCH  17  29
ENDBRANCH   1  18
TORSDOF 6
ENDMDL
MODEL 3
REMARK VINA RESULT:      -7.6      6.590      7.707
REMARK  Name = CHEMBL1093709
REMARK  9 active torsions:
REMARK  status: ('A' for Active; 'I' for Inactive)
REMARK    1  A    between atoms: C_1  and  C_2
REMARK    2  A    between atoms: C_2  and  N_3
REMARK    3  A    between atoms: N_3  and  C_21
REMARK    4  A    between atoms: C_4  and  C_6
REMARK    5  A    between atoms: C_9  and  C_10
REMARK    6  A    between atoms: C_13  and  O_14
REMARK    7  A    between atoms: O_14  and  C_15
REMARK    8  A    between atoms: C_24  and  O_25
REMARK    9  A    between atoms: O_25  and  C_26
REMARK                            x       y       z     vdW  Elec       q    Type
REMARK                         _______ _______ _______ _____ _____    ______ ____
ROOT
ATOM      1  C   UNL     1      -7.039  -0.623 125.203  0.00  0.00    +0.000 A 
ATOM      2  C   UNL     1      -5.822  -1.040 125.610  0.00  0.00    +0.000 A 
ATOM      3  C   UNL     1      -5.640  -1.753 126.865  0.00  0.00    +0.000 A 
ATOM      4  C   UNL     1      -6.679  -1.899 127.704  0.00  0.00    +0.000 A 
ATOM      5  N   UNL     1      -7.923  -1.485 127.298  0.00  0.00    +0.000 N 
ATOM      6  C   UNL     1      -8.219  -1.063 126.013  0.00  0.00    +0.000 A 
ATOM      7  O   UNL     1      -9.368  -0.923 125.638  0.00  0.00    +0.000 OA
ATOM      8  H   UNL     1      -8.701  -1.544 127.945  0.00  0.00    +0.000 HD
ENDROOT
BRANCH   4   9
ATOM      9  C   UNL     1      -6.578  -2.550 129.019  0.00  0.00    +0.000 A 
ATOM     10  C   UNL     1      -7.608  -2.388 129.957  0.00  0.00    +0.000 A 
ATOM     11  C   UNL     1      -7.483  -2.908 131.249  0.00  0.00    +0.000 A 
ATOM     12  C   UNL     1      -6.365  -3.666 131.597  0.00  0.00    +0.000 A 
ATOM     13  C   UNL     1      -5.339  -3.835 130.665  0.00  0.00    +0.000 A 
ATOM     14  C   UNL     1      -5.442  -3.276 129.387  0.00  0.00    +0.000 A 
BRANCH  12  15
ATOM     15  O   UNL     1      -6.384  -4.202 132.856  0.00  0.00    +0.000 OA
ATOM     16  C   UNL     1      -5.315  -5.087 133.176  0.00  0.00    +0.000 C 
ENDBRANCH  12  15
ENDBRANCH   4   9
BRANCH   1  18
ATOM     17  N   UNL     1      -7.071   1.673 124.077  0.00  0.00    +0.000 N 
ATOM     18  C   UNL     1      -7.134   0.259 123.993  0.00  0.00    +0.000 C 
ATOM     19  O   UNL     1      -7.126  -0.331 122.904  0.00  0.00    +0.000 OA
BRANCH  17  20
ATOM     20  C   UNL     1      -7.278   2.440 122.848  0.00  0.00    +0.000 A 
ATOM     21  C   UNL     1      -6.208   2.889 122.068  0.00  0.00    +0.000 A 
ATOM     22  C   UNL     1      -6.427   3.586 120.873  0.00  0.00    +0.000 A 
ATOM     23  C   UNL     1      -7.723   3.862 120.475  0.00  0.00    +0.000 A 
ATOM     24  N   UNL     1      -8.783   3.490 121.220  0.00  0.00    +0.000 NA
ATOM     25  C   UNL     1      -8.542   2.787 122.367  0.00  0.00    +0.000 A 
BRANCH  23  26
ATOM     26  O   UNL     1      -8.058   4.514 119.317  0.00  0.00    +0.000 OA
ATOM     27  C   UNL     1      -9.382   4.317 118.835  0.00  0.00    +0.000 C 
ENDBRANCH  23  26
ENDBRANCH  17  20
BRANCH  17  29
ATOM     28  C   UNL     1      -5.503   2.811 125.782  0.00  0.00    +0.000 C 
ATOM     29  C   UNL     1      -6.899   2.537 125.288  0.00  0.00    +0.000 C 
ENDBRANCH  17  29
ENDBRANCH   1  18
TORSDOF 6
ENDMDL
MODEL 4
REMARK VINA RESULT:      -7.2      6.707      9.156
REMARK  Name = CHEMBL1093709
REMARK  9 active torsions:
REMARK  status: ('A' for Active; 'I' for Inactive)
REMARK    1  A    between atoms: C_1  and  C_2
REMARK    2  A    between atoms: C_2  and  N_3
REMARK    3  A    between atoms: N_3  and  C_21
REMARK    4  A    between atoms: C_4  and  C_6
REMARK    5  A    between atoms: C_9  and  C_10
REMARK    6  A    between atoms: C_13  and  O_14
REMARK    7  A    between atoms: O_14  and  C_15
REMARK    8  A    between atoms: C_24  and  O_25
REMARK    9  A    between atoms: O_25  and  C_26
REMARK                            x       y       z     vdW  Elec       q    Type
REMARK                         _______ _______ _______ _____ _____    ______ ____
ROOT
ATOM      1  C   UNL     1      -4.882   4.613 127.066  0.00  0.00    +0.000 A 
ATOM      2  C   UNL     1      -3.535   4.559 126.992  0.00  0.00    +0.000 A 
ATOM      3  C   UNL     1      -2.697   4.762 128.163  0.00  0.00    +0.000 A 
ATOM      4  C   UNL     1      -3.259   5.133 129.326  0.00  0.00    +0.000 A 
ATOM      5  N   UNL     1      -4.626   5.186 129.416  0.00  0.00    +0.000 N 
ATOM      6  C   UNL     1      -5.486   4.731 128.430  0.00  0.00    +0.000 A 
ATOM      7  O   UNL     1      -6.677   4.586 128.641  0.00  0.00    +0.000 OA
ATOM      8  H   UNL     1      -5.055   5.515 130.273  0.00  0.00    +0.000 HD
ENDROOT
BRANCH   4   9
ATOM      9  C   UNL     1      -2.489   5.421 130.545  0.00  0.00    +0.000 A 
ATOM     10  C   UNL     1      -2.686   4.641 131.694  0.00  0.00    +0.000 A 
ATOM     11  C   UNL     1      -2.045   4.966 132.894  0.00  0.00    +0.000 A 
ATOM     12  C   UNL     1      -1.135   6.022 132.943  0.00  0.00    +0.000 A 
ATOM     13  C   UNL     1      -0.930   6.798 131.800  0.00  0.00    +0.000 A 
ATOM     14  C   UNL     1      -1.606   6.503 130.611  0.00  0.00    +0.000 A 
BRANCH  12  15
ATOM     15  O   UNL     1      -0.498   6.196 134.141  0.00  0.00    +0.000 OA
ATOM     16  C   UNL     1       0.122   7.464 134.342  0.00  0.00    +0.000 C 
ENDBRANCH  12  15
ENDBRANCH   4   9
BRANCH   1  18
ATOM     17  N   UNL     1      -6.055   3.355 125.174  0.00  0.00    +0.000 N 
ATOM     18  C   UNL     1      -5.679   4.573 125.796  0.00  0.00    +0.000 C 
ATOM     19  O   UNL     1      -6.110   5.666 125.404  0.00  0.00    +0.000 OA
BRANCH  17  20
ATOM     20  C   UNL     1      -6.741   3.431 123.884  0.00  0.00    +0.000 A 
ATOM     21  C   UNL     1      -6.061   3.739 122.701  0.00  0.00    +0.000 A 
ATOM     22  C   UNL     1      -6.727   3.766 121.470  0.00  0.00    +0.000 A 
ATOM     23  C   UNL     1      -8.087   3.514 121.427  0.00  0.00    +0.000 A 
ATOM     24  N   UNL     1      -8.792   3.259 122.548  0.00  0.00    +0.000 NA
ATOM     25  C   UNL     1      -8.112   3.212 123.733  0.00  0.00    +0.000 A 
BRANCH  23  26
ATOM     26  O   UNL     1      -8.837   3.490 120.280  0.00  0.00    +0.000 OA
ATOM     27  C   UNL     1      -8.310   4.194 119.161  0.00  0.00    +0.000 C 
ENDBRANCH  23  26
ENDBRANCH  17  20
BRANCH  17  29
ATOM     28  C   UNL     1      -6.644   1.346 126.684  0.00  0.00    +0.000 C 
ATOM     29  C   UNL     1      -5.777   1.950 125.611  0.00  0.00    +0.000 C 
ENDBRANCH  17  29
ENDBRANCH   1  18
TORSDOF 6
ENDMDL
MODEL 5
REMARK VINA RESULT:      -7.2      2.278      9.984
REMARK  Name = CHEMBL1093709
REMARK  9 active torsions:
REMARK  status: ('A' for Active; 'I' for Inactive)
REMARK    1  A    between atoms: C_1  and  C_2
REMARK    2  A    between atoms: C_2  and  N_3
REMARK    3  A    between atoms: N_3  and  C_21
REMARK    4  A    between atoms: C_4  and  C_6
REMARK    5  A    between atoms: C_9  and  C_10
REMARK    6  A    between atoms: C_13  and  O_14
REMARK    7  A    between atoms: O_14  and  C_15
REMARK    8  A    between atoms: C_24  and  O_25
REMARK    9  A    between atoms: O_25  and  C_26
REMARK                            x       y       z     vdW  Elec       q    Type
REMARK                         _______ _______ _______ _____ _____    ______ ____
ROOT
ATOM      1  C   UNL     1      -8.953   3.402 130.126  0.00  0.00    +0.000 A 
ATOM      2  C   UNL     1     -10.233   3.371 130.555  0.00  0.00    +0.000 A 
ATOM      3  C   UNL     1     -11.128   4.502 130.366  0.00  0.00    +0.000 A 
ATOM      4  C   UNL     1     -10.649   5.653 129.864  0.00  0.00    +0.000 A 
ATOM      5  N   UNL     1      -9.353   5.694 129.419  0.00  0.00    +0.000 N 
ATOM      6  C   UNL     1      -8.536   4.581 129.305  0.00  0.00    +0.000 A 
ATOM      7  O   UNL     1      -7.482   4.625 128.697  0.00  0.00    +0.000 OA
ATOM      8  H   UNL     1      -8.969   6.572 129.088  0.00  0.00    +0.000 HD
ENDROOT
BRANCH   4   9
ATOM      9  C   UNL     1     -11.462   6.867 129.695  0.00  0.00    +0.000 A 
ATOM     10  C   UNL     1     -11.413   7.575 128.485  0.00  0.00    +0.000 A 
ATOM     11  C   UNL     1     -12.093   8.788 128.342  0.00  0.00    +0.000 A 
ATOM     12  C   UNL     1     -12.898   9.270 129.374  0.00  0.00    +0.000 A 
ATOM     13  C   UNL     1     -12.955   8.566 130.578  0.00  0.00    +0.000 A 
ATOM     14  C   UNL     1     -12.239   7.375 130.740  0.00  0.00    +0.000 A 
BRANCH  12  15
ATOM     15  O   UNL     1     -13.589  10.418 129.096  0.00  0.00    +0.000 OA
ATOM     16  C   UNL     1     -13.624  11.394 130.134  0.00  0.00    +0.000 C 
ENDBRANCH  12  15
ENDBRANCH   4   9
BRANCH   1  18
ATOM     17  N   UNL     1      -7.236   2.316 131.679  0.00  0.00    +0.000 N 
ATOM     18  C   UNL     1      -8.035   2.278 130.508  0.00  0.00    +0.000 C 
ATOM     19  O   UNL     1      -8.128   1.257 129.814  0.00  0.00    +0.000 OA
BRANCH  17  20
ATOM     20  C   UNL     1      -6.300   1.214 131.902  0.00  0.00    +0.000 A 
ATOM     21  C   UNL     1      -5.012   1.215 131.355  0.00  0.00    +0.000 A 
ATOM     22  C   UNL     1      -4.116   0.171 131.614  0.00  0.00    +0.000 A 
ATOM     23  C   UNL     1      -4.522  -0.894 132.399  0.00  0.00    +0.000 A 
ATOM     24  N   UNL     1      -5.768  -0.960 132.907  0.00  0.00    +0.000 NA
ATOM     25  C   UNL     1      -6.614   0.085 132.662  0.00  0.00    +0.000 A 
BRANCH  23  26
ATOM     26  O   UNL     1      -3.725  -1.957 132.738  0.00  0.00    +0.000 OA
ATOM     27  C   UNL     1      -4.160  -2.755 133.833  0.00  0.00    +0.000 C 
ENDBRANCH  23  26
ENDBRANCH  17  20
BRANCH  17  29
ATOM     28  C   UNL     1      -8.126   3.374 133.858  0.00  0.00    +0.000 C 
ATOM     29  C   UNL     1      -7.141   3.389 132.719  0.00  0.00    +0.000 C 
ENDBRANCH  17  29
ENDBRANCH   1  18
TORSDOF 6
ENDMDL
MODEL 6
REMARK VINA RESULT:      -7.1      1.929     10.155
REMARK  Name = CHEMBL1093709
REMARK  9 active torsions:
REMARK  status: ('A' for Active; 'I' for Inactive)
REMARK    1  A    between atoms: C_1  and  C_2
REMARK    2  A    between atoms: C_2  and  N_3
REMARK    3  A    between atoms: N_3  and  C_21
REMARK    4  A    between atoms: C_4  and  C_6
REMARK    5  A    between atoms: C_9  and  C_10
REMARK    6  A    between atoms: C_13  and  O_14
REMARK    7  A    between atoms: O_14  and  C_15
REMARK    8  A    between atoms: C_24  and  O_25
REMARK    9  A    between atoms: O_25  and  C_26
REMARK                            x       y       z     vdW  Elec       q    Type
REMARK                         _______ _______ _______ _____ _____    ______ ____
ROOT
ATOM      1  C   UNL     1      -8.555   2.961 130.494  0.00  0.00    +0.000 A 
ATOM      2  C   UNL     1      -8.002   4.096 130.013  0.00  0.00    +0.000 A 
ATOM      3  C   UNL     1      -8.775   5.318 129.864  0.00  0.00    +0.000 A 
ATOM      4  C   UNL     1     -10.100   5.299 130.090  0.00  0.00    +0.000 A 
ATOM      5  N   UNL     1     -10.672   4.156 130.585  0.00  0.00    +0.000 N 
ATOM      6  C   UNL     1      -9.954   3.053 131.019  0.00  0.00    +0.000 A 
ATOM      7  O   UNL     1     -10.482   2.160 131.655  0.00  0.00    +0.000 OA
ATOM      8  H   UNL     1     -11.678   4.117 130.708  0.00  0.00    +0.000 HD
ENDROOT
BRANCH   4   9
ATOM      9  C   UNL     1     -10.973   6.468 129.906  0.00  0.00    +0.000 A 
ATOM     10  C   UNL     1     -10.801   7.297 128.788  0.00  0.00    +0.000 A 
ATOM     11  C   UNL     1     -11.548   8.471 128.651  0.00  0.00    +0.000 A 
ATOM     12  C   UNL     1     -12.534   8.792 129.584  0.00  0.00    +0.000 A 
ATOM     13  C   UNL     1     -12.712   7.968 130.697  0.00  0.00    +0.000 A 
ATOM     14  C   UNL     1     -11.935   6.816 130.860  0.00  0.00    +0.000 A 
BRANCH  12  15
ATOM     15  O   UNL     1     -13.266   9.914 129.307  0.00  0.00    +0.000 OA
ATOM     16  C   UNL     1     -13.413  10.846 130.375  0.00  0.00    +0.000 C 
ENDBRANCH  12  15
ENDBRANCH   4   9
BRANCH   1  18
ATOM     17  N   UNL     1      -7.701   0.864 129.307  0.00  0.00    +0.000 N 
ATOM     18  C   UNL     1      -7.755   1.693 130.455  0.00  0.00    +0.000 C 
ATOM     19  O   UNL     1      -7.030   1.493 131.440  0.00  0.00    +0.000 OA
BRANCH  17  20
ATOM     20  C   UNL     1      -6.975  -0.402 129.412  0.00  0.00    +0.000 A 
ATOM     21  C   UNL     1      -5.647  -0.530 128.992  0.00  0.00    +0.000 A 
ATOM     22  C   UNL     1      -4.955  -1.738 129.139  0.00  0.00    +0.000 A 
ATOM     23  C   UNL     1      -5.606  -2.832 129.680  0.00  0.00    +0.000 A 
ATOM     24  N   UNL     1      -6.899  -2.769 130.055  0.00  0.00    +0.000 NA
ATOM     25  C   UNL     1      -7.543  -1.570 129.926  0.00  0.00    +0.000 A 
BRANCH  23  26
ATOM     26  O   UNL     1      -5.024  -4.055 129.893  0.00  0.00    +0.000 OA
ATOM     27  C   UNL     1      -5.541  -4.827 130.971  0.00  0.00    +0.000 C 
ENDBRANCH  23  26
ENDBRANCH  17  20
BRANCH  17  29
ATOM     28  C   UNL     1      -7.729   1.986 126.983  0.00  0.00    +0.000 C 
ATOM     29  C   UNL     1      -8.365   1.052 127.978  0.00  0.00    +0.000 C 
ENDBRANCH  17  29
ENDBRANCH   1  18
TORSDOF 6
ENDMDL
MODEL 7
REMARK VINA RESULT:      -7.1      6.732      8.628
REMARK  Name = CHEMBL1093709
REMARK  9 active torsions:
REMARK  status: ('A' for Active; 'I' for Inactive)
REMARK    1  A    between atoms: C_1  and  C_2
REMARK    2  A    between atoms: C_2  and  N_3
REMARK    3  A    between atoms: N_3  and  C_21
REMARK    4  A    between atoms: C_4  and  C_6
REMARK    5  A    between atoms: C_9  and  C_10
REMARK    6  A    between atoms: C_13  and  O_14
REMARK    7  A    between atoms: O_14  and  C_15
REMARK    8  A    between atoms: C_24  and  O_25
REMARK    9  A    between atoms: O_25  and  C_26
REMARK                            x       y       z     vdW  Elec       q    Type
REMARK                         _______ _______ _______ _____ _____    ______ ____
ROOT
ATOM      1  C   UNL     1      -3.372   4.772 128.282  0.00  0.00    +0.000 A 
ATOM      2  C   UNL     1      -2.628   3.979 127.481  0.00  0.00    +0.000 A 
ATOM      3  C   UNL     1      -3.234   2.957 126.642  0.00  0.00    +0.000 A 
ATOM      4  C   UNL     1      -4.549   2.704 126.748  0.00  0.00    +0.000 A 
ATOM      5  N   UNL     1      -5.317   3.506 127.552  0.00  0.00    +0.000 N 
ATOM      6  C   UNL     1      -4.860   4.668 128.152  0.00  0.00    +0.000 A 
ATOM      7  O   UNL     1      -5.625   5.463 128.665  0.00  0.00    +0.000 OA
ATOM      8  H   UNL     1      -6.299   3.290 127.677  0.00  0.00    +0.000 HD
ENDROOT
BRANCH   4   9
ATOM      9  C   UNL     1      -5.238   1.650 125.987  0.00  0.00    +0.000 A 
ATOM     10  C   UNL     1      -6.193   1.999 125.021  0.00  0.00    +0.000 A 
ATOM     11  C   UNL     1      -6.935   1.013 124.365  0.00  0.00    +0.000 A 
ATOM     12  C   UNL     1      -6.678  -0.338 124.603  0.00  0.00    +0.000 A 
ATOM     13  C   UNL     1      -5.725  -0.690 125.561  0.00  0.00    +0.000 A 
ATOM     14  C   UNL     1      -5.013   0.296 126.252  0.00  0.00    +0.000 A 
BRANCH  12  15
ATOM     15  O   UNL     1      -7.399  -1.218 123.844  0.00  0.00    +0.000 OA
ATOM     16  C   UNL     1      -6.726  -1.766 122.714  0.00  0.00    +0.000 C 
ENDBRANCH  12  15
ENDBRANCH   4   9
BRANCH   1  18
ATOM     17  N   UNL     1      -2.677   5.445 130.648  0.00  0.00    +0.000 N 
ATOM     18  C   UNL     1      -2.675   5.680 129.250  0.00  0.00    +0.000 C 
ATOM     19  O   UNL     1      -1.978   6.567 128.739  0.00  0.00    +0.000 OA
BRANCH  17  20
ATOM     20  C   UNL     1      -2.055   6.450 131.511  0.00  0.00    +0.000 A 
ATOM     21  C   UNL     1      -0.783   6.265 132.063  0.00  0.00    +0.000 A 
ATOM     22  C   UNL     1      -0.187   7.256 132.853  0.00  0.00    +0.000 A 
ATOM     23  C   UNL     1      -0.881   8.424 133.116  0.00  0.00    +0.000 A 
ATOM     24  N   UNL     1      -2.127   8.625 132.644  0.00  0.00    +0.000 NA
ATOM     25  C   UNL     1      -2.675   7.653 131.854  0.00  0.00    +0.000 A 
BRANCH  23  26
ATOM     26  O   UNL     1      -0.390   9.469 133.854  0.00  0.00    +0.000 OA
ATOM     27  C   UNL     1      -0.737  10.778 133.414  0.00  0.00    +0.000 C 
ENDBRANCH  23  26
ENDBRANCH  17  20
BRANCH  17  29
ATOM     28  C   UNL     1      -4.674   4.548 132.016  0.00  0.00    +0.000 C 
ATOM     29  C   UNL     1      -3.312   4.325 131.413  0.00  0.00    +0.000 C 
ENDBRANCH  17  29
ENDBRANCH   1  18
TORSDOF 6
ENDMDL
MODEL 8
REMARK VINA RESULT:      -7.0      6.903     11.241
REMARK  Name = CHEMBL1093709
REMARK  9 active torsions:
REMARK  status: ('A' for Active; 'I' for Inactive)
REMARK    1  A    between atoms: C_1  and  C_2
REMARK    2  A    between atoms: C_2  and  N_3
REMARK    3  A    between atoms: N_3  and  C_21
REMARK    4  A    between atoms: C_4  and  C_6
REMARK    5  A    between atoms: C_9  and  C_10
REMARK    6  A    between atoms: C_13  and  O_14
REMARK    7  A    between atoms: O_14  and  C_15
REMARK    8  A    between atoms: C_24  and  O_25
REMARK    9  A    between atoms: O_25  and  C_26
REMARK                            x       y       z     vdW  Elec       q    Type
REMARK                         _______ _______ _______ _____ _____    ______ ____
ROOT
ATOM      1  C   UNL     1      -6.661  -1.178 127.300  0.00  0.00    +0.000 A 
ATOM      2  C   UNL     1      -7.418  -0.078 127.497  0.00  0.00    +0.000 A 
ATOM      3  C   UNL     1      -7.830   0.775 126.393  0.00  0.00    +0.000 A 
ATOM      4  C   UNL     1      -7.351   0.542 125.159  0.00  0.00    +0.000 A 
ATOM      5  N   UNL     1      -6.585  -0.576 124.944  0.00  0.00    +0.000 N 
ATOM      6  C   UNL     1      -6.394  -1.577 125.882  0.00  0.00    +0.000 A 
ATOM      7  O   UNL     1      -5.903  -2.649 125.578  0.00  0.00    +0.000 OA
ATOM      8  H   UNL     1      -6.177  -0.730 124.029  0.00  0.00    +0.000 HD
ENDROOT
BRANCH   4   9
ATOM      9  C   UNL     1      -7.660   1.384 123.994  0.00  0.00    +0.000 A 
ATOM     10  C   UNL     1      -6.638   2.117 123.373  0.00  0.00    +0.000 A 
ATOM     11  C   UNL     1      -6.929   3.006 122.334  0.00  0.00    +0.000 A 
ATOM     12  C   UNL     1      -8.231   3.114 121.844  0.00  0.00    +0.000 A 
ATOM     13  C   UNL     1      -9.251   2.383 122.455  0.00  0.00    +0.000 A 
ATOM     14  C   UNL     1      -8.969   1.527 123.526  0.00  0.00    +0.000 A 
BRANCH  12  15
ATOM     15  O   UNL     1      -8.390   3.945 120.769  0.00  0.00    +0.000 OA
ATOM     16  C   UNL     1      -7.251   4.105 119.928  0.00  0.00    +0.000 C 
ENDBRANCH  12  15
ENDBRANCH   4   9
BRANCH   1  18
ATOM     17  N   UNL     1      -6.926  -2.781 129.273  0.00  0.00    +0.000 N 
ATOM     18  C   UNL     1      -6.124  -1.911 128.493  0.00  0.00    +0.000 C 
ATOM     19  O   UNL     1      -4.901  -1.819 128.667  0.00  0.00    +0.000 OA
BRANCH  17  20
ATOM     20  C   UNL     1      -6.330  -3.364 130.476  0.00  0.00    +0.000 A 
ATOM     21  C   UNL     1      -5.875  -4.686 130.510  0.00  0.00    +0.000 A 
ATOM     22  C   UNL     1      -5.270  -5.214 131.657  0.00  0.00    +0.000 A 
ATOM     23  C   UNL     1      -5.150  -4.423 132.786  0.00  0.00    +0.000 A 
ATOM     24  N   UNL     1      -5.617  -3.159 132.815  0.00  0.00    +0.000 NA
ATOM     25  C   UNL     1      -6.179  -2.660 131.672  0.00  0.00    +0.000 A 
BRANCH  23  26
ATOM     26  O   UNL     1      -4.557  -4.824 133.955  0.00  0.00    +0.000 OA
ATOM     27  C   UNL     1      -3.237  -5.347 133.852  0.00  0.00    +0.000 C 
ENDBRANCH  23  26
ENDBRANCH  17  20
BRANCH  17  29
ATOM     28  C   UNL     1      -8.748  -4.011 127.920  0.00  0.00    +0.000 C 
ATOM     29  C   UNL     1      -8.367  -3.147 129.093  0.00  0.00    +0.000 C 
ENDBRANCH  17  29
ENDBRANCH   1  18
TORSDOF 6
ENDMDL
MODEL 9
REMARK VINA RESULT:      -7.0      7.323     10.009
REMARK  Name = CHEMBL1093709
REMARK  9 active torsions:
REMARK  status: ('A' for Active; 'I' for Inactive)
REMARK    1  A    between atoms: C_1  and  C_2
REMARK    2  A    between atoms: C_2  and  N_3
REMARK    3  A    between atoms: N_3  and  C_21
REMARK    4  A    between atoms: C_4  and  C_6
REMARK    5  A    between atoms: C_9  and  C_10
REMARK    6  A    between atoms: C_13  and  O_14
REMARK    7  A    between atoms: O_14  and  C_15
REMARK    8  A    between atoms: C_24  and  O_25
REMARK    9  A    between atoms: O_25  and  C_26
REMARK                            x       y       z     vdW  Elec       q    Type
REMARK                         _______ _______ _______ _____ _____    ______ ____
ROOT
ATOM      1  C   UNL     1      -3.808   5.147 128.756  0.00  0.00    +0.000 A 
ATOM      2  C   UNL     1      -2.796   5.997 128.478  0.00  0.00    +0.000 A 
ATOM      3  C   UNL     1      -2.040   6.654 129.532  0.00  0.00    +0.000 A 
ATOM      4  C   UNL     1      -2.425   6.517 130.812  0.00  0.00    +0.000 A 
ATOM      5  N   UNL     1      -3.448   5.652 131.108  0.00  0.00    +0.000 N 
ATOM      6  C   UNL     1      -4.018   4.783 130.193  0.00  0.00    +0.000 A 
ATOM      7  O   UNL     1      -4.757   3.882 130.546  0.00  0.00    +0.000 OA
ATOM      8  H   UNL     1      -3.778   5.583 132.064  0.00  0.00    +0.000 HD
ENDROOT
BRANCH   4   9
ATOM      9  C   UNL     1      -1.762   7.192 131.938  0.00  0.00    +0.000 A 
ATOM     10  C   UNL     1      -0.576   6.662 132.466  0.00  0.00    +0.000 A 
ATOM     11  C   UNL     1       0.011   7.226 133.603  0.00  0.00    +0.000 A 
ATOM     12  C   UNL     1      -0.531   8.375 134.179  0.00  0.00    +0.000 A 
ATOM     13  C   UNL     1      -1.708   8.910 133.653  0.00  0.00    +0.000 A 
ATOM     14  C   UNL     1      -2.323   8.320 132.544  0.00  0.00    +0.000 A 
BRANCH  12  15
ATOM     15  O   UNL     1       0.172   8.895 135.232  0.00  0.00    +0.000 OA
ATOM     16  C   UNL     1      -0.076  10.265 135.535  0.00  0.00    +0.000 C 
ENDBRANCH  12  15
ENDBRANCH   4   9
BRANCH   1  18
ATOM     17  N   UNL     1      -4.274   3.547 126.818  0.00  0.00    +0.000 N 
ATOM     18  C   UNL     1      -4.660   4.643 127.630  0.00  0.00    +0.000 C 
ATOM     19  O   UNL     1      -5.787   5.151 127.546  0.00  0.00    +0.000 OA
BRANCH  17  20
ATOM     20  C   UNL     1      -5.130   3.203 125.681  0.00  0.00    +0.000 A 
ATOM     21  C   UNL     1      -5.895   2.032 125.659  0.00  0.00    +0.000 A 
ATOM     22  C   UNL     1      -6.739   1.742 124.581  0.00  0.00    +0.000 A 
ATOM     23  C   UNL     1      -6.794   2.611 123.507  0.00  0.00    +0.000 A 
ATOM     24  N   UNL     1      -6.039   3.727 123.464  0.00  0.00    +0.000 NA
ATOM     25  C   UNL     1      -5.244   4.001 124.541  0.00  0.00    +0.000 A 
BRANCH  23  26
ATOM     26  O   UNL     1      -7.600   2.442 122.411  0.00  0.00    +0.000 OA
ATOM     27  C   UNL     1      -8.998   2.345 122.657  0.00  0.00    +0.000 C 
ENDBRANCH  23  26
ENDBRANCH  17  20
BRANCH  17  29
ATOM     28  C   UNL     1      -1.764   3.240 126.296  0.00  0.00    +0.000 C 
ATOM     29  C   UNL     1      -3.037   2.706 126.898  0.00  0.00    +0.000 C 
ENDBRANCH  17  29
ENDBRANCH   1  18
TORSDOF 6
ENDMDL
