MODEL 1
REMARK VINA RESULT:     -10.0      0.000      0.000
REMARK  Name = CHEMBL69498
REMARK  6 active torsions:
REMARK  status: ('A' for Active; 'I' for Inactive)
REMARK    1  A    between atoms: C_1  and  O_2
REMARK    2  A    between atoms: O_2  and  C_3
REMARK    3  A    between atoms: C_5  and  O_6
REMARK    4  A    between atoms: O_6  and  C_7
REMARK    5  A    between atoms: C_15  and  C_16
REMARK    6  A    between atoms: C_21  and  N_22
REMARK                            x       y       z     vdW  Elec       q    Type
REMARK                         _______ _______ _______ _____ _____    ______ ____
ROOT
ATOM      1  C   UNL     1      -6.515   1.285 128.877  0.00  0.00    +0.000 C 
ATOM      2  O   UNL     1      -5.294   1.095 128.901  0.00  0.00    +0.000 OA
ATOM      3  N   UNL     1      -7.089   2.307 129.634  0.00  0.00    +0.000 N 
ATOM      4  C   UNL     1      -6.686   3.683 129.280  0.00  0.00    +0.000 C 
ATOM      5  C   UNL     1      -6.761   4.583 130.468  0.00  0.00    +0.000 C 
ATOM      6  C   UNL     1      -8.465   4.780 130.980  0.00  0.00    +0.000 C 
ATOM      7  C   UNL     1      -8.526   3.124 131.472  0.00  0.00    +0.000 C 
ATOM      8  C   UNL     1      -8.360   2.125 130.350  0.00  0.00    +0.000 C 
ENDROOT
BRANCH   6   9
ATOM      9  N   UNL     1      -9.400   6.106 130.106  0.00  0.00    +0.000 N 
ATOM     10  C   UNL     1     -10.229   6.076 131.269  0.00  0.00    +0.000 C 
ATOM     11  O   UNL     1      -9.916   6.160 132.500  0.00  0.00    +0.000 OA
ATOM     12  O   UNL     1     -11.458   5.669 131.076  0.00  0.00    +0.000 OA
ATOM     13  C   UNL     1     -12.018   6.919 131.027  0.00  0.00    +0.000 C 
ATOM     14  C   UNL     1     -12.039   6.918 129.570  0.00  0.00    +0.000 A 
ATOM     15  C   UNL     1     -13.417   7.316 129.115  0.00  0.00    +0.000 A 
ATOM     16  C   UNL     1     -13.730   7.717 127.860  0.00  0.00    +0.000 A 
ATOM     17  C   UNL     1     -12.559   8.002 127.194  0.00  0.00    +0.000 A 
ATOM     18  C   UNL     1     -11.072   7.554 127.734  0.00  0.00    +0.000 A 
ATOM     19  C   UNL     1     -10.740   6.691 128.962  0.00  0.00    +0.000 A 
ENDBRANCH   6   9
BRANCH   1  25
ATOM     20  C   UNL     1      -8.235   0.844 126.846  0.00  0.00    +0.000 A 
ATOM     21  C   UNL     1      -8.944  -0.096 126.052  0.00  0.00    +0.000 A 
ATOM     22  C   UNL     1      -8.847  -1.425 126.321  0.00  0.00    +0.000 A 
ATOM     23  C   UNL     1      -7.906  -1.694 127.268  0.00  0.00    +0.000 A 
ATOM     24  C   UNL     1      -7.182  -0.857 128.083  0.00  0.00    +0.000 A 
ATOM     25  C   UNL     1      -7.368   0.483 127.924  0.00  0.00    +0.000 A 
BRANCH  20  27
ATOM     26  C   UNL     1      -8.742   2.124 125.015  0.00  0.00    +0.000 C 
ATOM     27  O   UNL     1      -8.572   2.097 126.409  0.00  0.00    +0.000 OA
ENDBRANCH  20  27
BRANCH  22  28
ATOM     28  O   UNL     1      -9.626  -2.342 125.699  0.00  0.00    +0.000 OA
BRANCH  28  29
ATOM     29  C   UNL     1      -9.170  -3.180 124.599  0.00  0.00    +0.000 C 
ATOM     30  C   UNL     1      -7.733  -3.749 124.635  0.00  0.00    +0.000 C 
ATOM     31  C   UNL     1      -6.674  -2.794 124.108  0.00  0.00    +0.000 C 
ATOM     32  N   UNL     1      -7.089  -2.133 122.831  0.00  0.00    +0.000 NA
ATOM     33  C   UNL     1      -8.492  -1.622 122.699  0.00  0.00    +0.000 C 
ATOM     34  C   UNL     1      -9.523  -2.611 123.218  0.00  0.00    +0.000 C 
ATOM     35  H   UNL     1      -6.974  -2.831 122.101  0.00  0.00    +0.000 HD
ENDBRANCH  28  29
ENDBRANCH  22  28
ENDBRANCH   1  25
TORSDOF 5
ENDMDL
MODEL 2
REMARK VINA RESULT:      -9.9      1.835      2.272
REMARK  Name = CHEMBL69498
REMARK  6 active torsions:
REMARK  status: ('A' for Active; 'I' for Inactive)
REMARK    1  A    between atoms: C_1  and  O_2
REMARK    2  A    between atoms: O_2  and  C_3
REMARK    3  A    between atoms: C_5  and  O_6
REMARK    4  A    between atoms: O_6  and  C_7
REMARK    5  A    between atoms: C_15  and  C_16
REMARK    6  A    between atoms: C_21  and  N_22
REMARK                            x       y       z     vdW  Elec       q    Type
REMARK                         _______ _______ _______ _____ _____    ______ ____
ROOT
ATOM      1  C   UNL     1      -4.766   3.127 128.539  0.00  0.00    +0.000 C 
ATOM      2  O   UNL     1      -3.535   3.210 128.613  0.00  0.00    +0.000 OA
ATOM      3  N   UNL     1      -5.577   3.774 129.473  0.00  0.00    +0.000 N 
ATOM      4  C   UNL     1      -5.496   5.249 129.493  0.00  0.00    +0.000 C 
ATOM      5  C   UNL     1      -5.803   5.781 130.852  0.00  0.00    +0.000 C 
ATOM      6  C   UNL     1      -7.516   5.464 131.262  0.00  0.00    +0.000 C 
ATOM      7  C   UNL     1      -7.202   3.767 131.335  0.00  0.00    +0.000 C 
ATOM      8  C   UNL     1      -6.786   3.144 130.022  0.00  0.00    +0.000 C 
ENDROOT
BRANCH   6   9
ATOM      9  N   UNL     1      -8.714   6.730 130.663  0.00  0.00    +0.000 N 
ATOM     10  C   UNL     1      -9.507   6.278 131.761  0.00  0.00    +0.000 C 
ATOM     11  O   UNL     1      -9.206   6.153 132.991  0.00  0.00    +0.000 OA
ATOM     12  O   UNL     1     -10.627   5.681 131.441  0.00  0.00    +0.000 OA
ATOM     13  C   UNL     1     -11.435   6.770 131.643  0.00  0.00    +0.000 C 
ATOM     14  C   UNL     1     -11.470   7.083 130.221  0.00  0.00    +0.000 A 
ATOM     15  C   UNL     1     -12.905   7.281 129.814  0.00  0.00    +0.000 A 
ATOM     16  C   UNL     1     -13.307   7.873 128.665  0.00  0.00    +0.000 A 
ATOM     17  C   UNL     1     -12.227   8.529 128.118  0.00  0.00    +0.000 A 
ATOM     18  C   UNL     1     -10.674   8.288 128.601  0.00  0.00    +0.000 A 
ATOM     19  C   UNL     1     -10.158   7.264 129.625  0.00  0.00    +0.000 A 
ENDBRANCH   6   9
BRANCH   1  25
ATOM     20  C   UNL     1      -6.023   2.892 126.166  0.00  0.00    +0.000 A 
ATOM     21  C   UNL     1      -6.537   2.036 125.154  0.00  0.00    +0.000 A 
ATOM     22  C   UNL     1      -6.472   0.687 125.307  0.00  0.00    +0.000 A 
ATOM     23  C   UNL     1      -5.740   0.324 126.397  0.00  0.00    +0.000 A 
ATOM     24  C   UNL     1      -5.214   1.075 127.421  0.00  0.00    +0.000 A 
ATOM     25  C   UNL     1      -5.389   2.424 127.358  0.00  0.00    +0.000 A 
BRANCH  20  27
ATOM     26  C   UNL     1      -7.658   4.475 125.897  0.00  0.00    +0.000 C 
ATOM     27  O   UNL     1      -6.288   4.182 125.792  0.00  0.00    +0.000 OA
ENDBRANCH  20  27
BRANCH  22  28
ATOM     28  O   UNL     1      -7.088  -0.164 124.452  0.00  0.00    +0.000 OA
BRANCH  28  29
ATOM     29  C   UNL     1      -8.533  -0.329 124.374  0.00  0.00    +0.000 C 
ATOM     30  C   UNL     1      -9.302  -0.806 125.628  0.00  0.00    +0.000 C 
ATOM     31  C   UNL     1      -9.320  -2.315 125.809  0.00  0.00    +0.000 C 
ATOM     32  N   UNL     1      -9.625  -3.037 124.534  0.00  0.00    +0.000 NA
ATOM     33  C   UNL     1      -8.971  -2.583 123.264  0.00  0.00    +0.000 C 
ATOM     34  C   UNL     1      -8.989  -1.070 123.110  0.00  0.00    +0.000 C 
ATOM     35  H   UNL     1     -10.627  -2.938 124.385  0.00  0.00    +0.000 HD
ENDBRANCH  28  29
ENDBRANCH  22  28
ENDBRANCH   1  25
TORSDOF 5
ENDMDL
MODEL 3
REMARK VINA RESULT:      -9.6      2.475      9.223
REMARK  Name = CHEMBL69498
REMARK  6 active torsions:
REMARK  status: ('A' for Active; 'I' for Inactive)
REMARK    1  A    between atoms: C_1  and  O_2
REMARK    2  A    between atoms: O_2  and  C_3
REMARK    3  A    between atoms: C_5  and  O_6
REMARK    4  A    between atoms: O_6  and  C_7
REMARK    5  A    between atoms: C_15  and  C_16
REMARK    6  A    between atoms: C_21  and  N_22
REMARK                            x       y       z     vdW  Elec       q    Type
REMARK                         _______ _______ _______ _____ _____    ______ ____
ROOT
ATOM      1  C   UNL     1      -8.181   2.108 132.080  0.00  0.00    +0.000 C 
ATOM      2  O   UNL     1      -8.264   2.001 133.308  0.00  0.00    +0.000 OA
ATOM      3  N   UNL     1      -7.452   1.180 131.335  0.00  0.00    +0.000 N 
ATOM      4  C   UNL     1      -7.949  -0.211 131.361  0.00  0.00    +0.000 C 
ATOM      5  C   UNL     1      -6.833  -1.180 131.163  0.00  0.00    +0.000 C 
ATOM      6  C   UNL     1      -6.170  -1.019 129.507  0.00  0.00    +0.000 C 
ATOM      7  C   UNL     1      -5.548   0.547 129.891  0.00  0.00    +0.000 C 
ATOM      8  C   UNL     1      -6.601   1.585 130.207  0.00  0.00    +0.000 C 
ENDROOT
BRANCH   6   9
ATOM      9  N   UNL     1      -7.046  -1.995 128.212  0.00  0.00    +0.000 N 
ATOM     10  C   UNL     1      -5.735  -2.170 127.674  0.00  0.00    +0.000 C 
ATOM     11  O   UNL     1      -4.669  -2.583 128.234  0.00  0.00    +0.000 OA
ATOM     12  O   UNL     1      -5.523  -1.612 126.510  0.00  0.00    +0.000 OA
ATOM     13  C   UNL     1      -5.698  -2.751 125.769  0.00  0.00    +0.000 C 
ATOM     14  C   UNL     1      -7.068  -2.392 125.427  0.00  0.00    +0.000 A 
ATOM     15  C   UNL     1      -7.238  -2.531 123.939  0.00  0.00    +0.000 A 
ATOM     16  C   UNL     1      -8.430  -2.580 123.299  0.00  0.00    +0.000 A 
ATOM     17  C   UNL     1      -9.413  -2.805 124.238  0.00  0.00    +0.000 A 
ATOM     18  C   UNL     1      -9.179  -2.649 125.858  0.00  0.00    +0.000 A 
ATOM     19  C   UNL     1      -7.917  -2.149 126.580  0.00  0.00    +0.000 A 
ENDBRANCH   6   9
BRANCH   1  25
ATOM     20  C   UNL     1      -8.658   4.492 130.914  0.00  0.00    +0.000 A 
ATOM     21  C   UNL     1      -9.580   5.344 130.247  0.00  0.00    +0.000 A 
ATOM     22  C   UNL     1     -10.862   4.937 130.050  0.00  0.00    +0.000 A 
ATOM     23  C   UNL     1     -11.051   3.633 130.397  0.00  0.00    +0.000 A 
ATOM     24  C   UNL     1     -10.227   2.744 131.044  0.00  0.00    +0.000 A 
ATOM     25  C   UNL     1      -8.979   3.179 131.377  0.00  0.00    +0.000 A 
BRANCH  20  27
ATOM     26  C   UNL     1      -7.703   6.550 131.238  0.00  0.00    +0.000 C 
ATOM     27  O   UNL     1      -7.479   5.176 131.044  0.00  0.00    +0.000 OA
ENDBRANCH  20  27
BRANCH  22  28
ATOM     28  O   UNL     1     -11.814   5.771 129.568  0.00  0.00    +0.000 OA
BRANCH  28  29
ATOM     29  C   UNL     1     -11.538   6.884 128.670  0.00  0.00    +0.000 C 
ATOM     30  C   UNL     1     -11.306   8.290 129.268  0.00  0.00    +0.000 C 
ATOM     31  C   UNL     1     -12.583   9.066 129.546  0.00  0.00    +0.000 C 
ATOM     32  N   UNL     1     -13.556   8.985 128.411  0.00  0.00    +0.000 NA
ATOM     33  C   UNL     1     -13.777   7.666 127.735  0.00  0.00    +0.000 C 
ATOM     34  C   UNL     1     -12.477   6.929 127.457  0.00  0.00    +0.000 C 
ATOM     35  H   UNL     1     -13.205   9.614 127.693  0.00  0.00    +0.000 HD
ENDBRANCH  28  29
ENDBRANCH  22  28
ENDBRANCH   1  25
TORSDOF 5
ENDMDL
MODEL 4
REMARK VINA RESULT:      -9.5      2.397      9.228
REMARK  Name = CHEMBL69498
REMARK  6 active torsions:
REMARK  status: ('A' for Active; 'I' for Inactive)
REMARK    1  A    between atoms: C_1  and  O_2
REMARK    2  A    between atoms: O_2  and  C_3
REMARK    3  A    between atoms: C_5  and  O_6
REMARK    4  A    between atoms: O_6  and  C_7
REMARK    5  A    between atoms: C_15  and  C_16
REMARK    6  A    between atoms: C_21  and  N_22
REMARK                            x       y       z     vdW  Elec       q    Type
REMARK                         _______ _______ _______ _____ _____    ______ ____
ROOT
ATOM      1  C   UNL     1      -5.689   5.021 130.199  0.00  0.00    +0.000 C 
ATOM      2  O   UNL     1      -4.719   5.663 130.618  0.00  0.00    +0.000 OA
ATOM      3  N   UNL     1      -5.512   4.000 129.264  0.00  0.00    +0.000 N 
ATOM      4  C   UNL     1      -4.708   2.843 129.707  0.00  0.00    +0.000 C 
ATOM      5  C   UNL     1      -4.022   2.197 128.552  0.00  0.00    +0.000 C 
ATOM      6  C   UNL     1      -5.230   1.454 127.459  0.00  0.00    +0.000 C 
ATOM      7  C   UNL     1      -5.815   3.018 127.016  0.00  0.00    +0.000 C 
ATOM      8  C   UNL     1      -6.445   3.801 128.145  0.00  0.00    +0.000 C 
ENDROOT
BRANCH   6   9
ATOM      9  N   UNL     1      -5.751  -0.255 127.910  0.00  0.00    +0.000 N 
ATOM     10  C   UNL     1      -5.737  -0.468 126.498  0.00  0.00    +0.000 C 
ATOM     11  O   UNL     1      -4.821  -0.237 125.645  0.00  0.00    +0.000 OA
ATOM     12  O   UNL     1      -6.901  -0.712 125.952  0.00  0.00    +0.000 OA
ATOM     13  C   UNL     1      -6.752  -2.074 125.897  0.00  0.00    +0.000 C 
ATOM     14  C   UNL     1      -7.542  -2.270 127.106  0.00  0.00    +0.000 A 
ATOM     15  C   UNL     1      -8.582  -3.320 126.828  0.00  0.00    +0.000 A 
ATOM     16  C   UNL     1      -9.288  -3.978 127.777  0.00  0.00    +0.000 A 
ATOM     17  C   UNL     1      -8.678  -3.764 128.993  0.00  0.00    +0.000 A 
ATOM     18  C   UNL     1      -7.538  -2.607 129.249  0.00  0.00    +0.000 A 
ATOM     19  C   UNL     1      -7.045  -1.540 128.259  0.00  0.00    +0.000 A 
ENDBRANCH   6   9
BRANCH   1  25
ATOM     20  C   UNL     1      -7.985   4.421 131.480  0.00  0.00    +0.000 A 
ATOM     21  C   UNL     1      -9.231   4.872 131.992  0.00  0.00    +0.000 A 
ATOM     22  C   UNL     1      -9.612   6.165 131.815  0.00  0.00    +0.000 A 
ATOM     23  C   UNL     1      -8.617   6.929 131.282  0.00  0.00    +0.000 A 
ATOM     24  C   UNL     1      -7.395   6.582 130.761  0.00  0.00    +0.000 A 
ATOM     25  C   UNL     1      -7.051   5.264 130.802  0.00  0.00    +0.000 A 
BRANCH  20  27
ATOM     26  C   UNL     1      -8.677   2.337 130.826  0.00  0.00    +0.000 C 
ATOM     27  O   UNL     1      -7.895   3.078 131.728  0.00  0.00    +0.000 OA
ENDBRANCH  20  27
BRANCH  22  28
ATOM     28  O   UNL     1     -10.853   6.600 132.140  0.00  0.00    +0.000 OA
BRANCH  28  29
ATOM     29  C   UNL     1     -12.025   6.406 131.298  0.00  0.00    +0.000 C 
ATOM     30  C   UNL     1     -11.838   5.849 129.868  0.00  0.00    +0.000 C 
ATOM     31  C   UNL     1     -11.492   6.905 128.831  0.00  0.00    +0.000 C 
ATOM     32  N   UNL     1     -12.347   8.127 128.957  0.00  0.00    +0.000 NA
ATOM     33  C   UNL     1     -12.631   8.681 130.320  0.00  0.00    +0.000 C 
ATOM     34  C   UNL     1     -12.992   7.598 131.324  0.00  0.00    +0.000 C 
ATOM     35  H   UNL     1     -13.251   7.882 128.559  0.00  0.00    +0.000 HD
ENDBRANCH  28  29
ENDBRANCH  22  28
ENDBRANCH   1  25
TORSDOF 5
ENDMDL
MODEL 5
REMARK VINA RESULT:      -9.5      1.582      2.425
REMARK  Name = CHEMBL69498
REMARK  6 active torsions:
REMARK  status: ('A' for Active; 'I' for Inactive)
REMARK    1  A    between atoms: C_1  and  O_2
REMARK    2  A    between atoms: O_2  and  C_3
REMARK    3  A    between atoms: C_5  and  O_6
REMARK    4  A    between atoms: O_6  and  C_7
REMARK    5  A    between atoms: C_15  and  C_16
REMARK    6  A    between atoms: C_21  and  N_22
REMARK                            x       y       z     vdW  Elec       q    Type
REMARK                         _______ _______ _______ _____ _____    ______ ____
ROOT
ATOM      1  C   UNL     1      -6.587   0.808 131.021  0.00  0.00    +0.000 C 
ATOM      2  O   UNL     1      -5.449   0.619 131.464  0.00  0.00    +0.000 OA
ATOM      3  N   UNL     1      -7.342   1.901 131.451  0.00  0.00    +0.000 N 
ATOM      4  C   UNL     1      -6.799   3.235 131.127  0.00  0.00    +0.000 C 
ATOM      5  C   UNL     1      -7.229   4.245 132.137  0.00  0.00    +0.000 C 
ATOM      6  C   UNL     1      -8.999   4.495 132.038  0.00  0.00    +0.000 C 
ATOM      7  C   UNL     1      -9.274   2.895 132.630  0.00  0.00    +0.000 C 
ATOM      8  C   UNL     1      -8.783   1.791 131.721  0.00  0.00    +0.000 C 
ENDROOT
BRANCH   6   9
ATOM      9  N   UNL     1      -9.550   5.732 130.789  0.00  0.00    +0.000 N 
ATOM     10  C   UNL     1     -10.525   6.069 131.777  0.00  0.00    +0.000 C 
ATOM     11  O   UNL     1     -10.376   6.361 133.007  0.00  0.00    +0.000 OA
ATOM     12  O   UNL     1     -11.767   5.817 131.453  0.00  0.00    +0.000 OA
ATOM     13  C   UNL     1     -12.082   7.098 131.080  0.00  0.00    +0.000 C 
ATOM     14  C   UNL     1     -11.900   6.796 129.666  0.00  0.00    +0.000 A 
ATOM     15  C   UNL     1     -13.106   7.289 128.916  0.00  0.00    +0.000 A 
ATOM     16  C   UNL     1     -13.165   7.461 127.574  0.00  0.00    +0.000 A 
ATOM     17  C   UNL     1     -11.881   7.423 127.079  0.00  0.00    +0.000 A 
ATOM     18  C   UNL     1     -10.588   6.883 127.940  0.00  0.00    +0.000 A 
ATOM     19  C   UNL     1     -10.590   6.257 129.344  0.00  0.00    +0.000 A 
ENDBRANCH   6   9
BRANCH   1  25
ATOM     20  C   UNL     1      -7.467  -1.462 129.863  0.00  0.00    +0.000 A 
ATOM     21  C   UNL     1      -7.960  -2.105 128.696  0.00  0.00    +0.000 A 
ATOM     22  C   UNL     1      -8.078  -1.411 127.534  0.00  0.00    +0.000 A 
ATOM     23  C   UNL     1      -7.843  -0.079 127.700  0.00  0.00    +0.000 A 
ATOM     24  C   UNL     1      -7.363   0.623 128.779  0.00  0.00    +0.000 A 
ATOM     25  C   UNL     1      -7.106  -0.080 129.917  0.00  0.00    +0.000 A 
BRANCH  20  27
ATOM     26  C   UNL     1      -6.612  -3.507 130.442  0.00  0.00    +0.000 C 
ATOM     27  O   UNL     1      -7.380  -2.404 130.852  0.00  0.00    +0.000 OA
ENDBRANCH  20  27
BRANCH  22  28
ATOM     28  O   UNL     1      -8.387  -2.016 126.362  0.00  0.00    +0.000 OA
BRANCH  28  29
ATOM     29  C   UNL     1      -7.404  -2.642 125.488  0.00  0.00    +0.000 C 
ATOM     30  C   UNL     1      -6.259  -1.779 124.909  0.00  0.00    +0.000 C 
ATOM     31  C   UNL     1      -6.632  -1.019 123.647  0.00  0.00    +0.000 C 
ATOM     32  N   UNL     1      -7.374  -1.874 122.667  0.00  0.00    +0.000 NA
ATOM     33  C   UNL     1      -8.450  -2.790 123.168  0.00  0.00    +0.000 C 
ATOM     34  C   UNL     1      -8.034  -3.545 124.420  0.00  0.00    +0.000 C 
ATOM     35  H   UNL     1      -6.678  -2.471 122.228  0.00  0.00    +0.000 HD
ENDBRANCH  28  29
ENDBRANCH  22  28
ENDBRANCH   1  25
TORSDOF 5
ENDMDL
MODEL 6
REMARK VINA RESULT:      -9.4      3.131      9.343
REMARK  Name = CHEMBL69498
REMARK  6 active torsions:
REMARK  status: ('A' for Active; 'I' for Inactive)
REMARK    1  A    between atoms: C_1  and  O_2
REMARK    2  A    between atoms: O_2  and  C_3
REMARK    3  A    between atoms: C_5  and  O_6
REMARK    4  A    between atoms: O_6  and  C_7
REMARK    5  A    between atoms: C_15  and  C_16
REMARK    6  A    between atoms: C_21  and  N_22
REMARK                            x       y       z     vdW  Elec       q    Type
REMARK                         _______ _______ _______ _____ _____    ______ ____
ROOT
ATOM      1  C   UNL     1      -7.365   3.588 133.294  0.00  0.00    +0.000 C 
ATOM      2  O   UNL     1      -7.359   3.876 134.496  0.00  0.00    +0.000 OA
ATOM      3  N   UNL     1      -6.551   2.564 132.806  0.00  0.00    +0.000 N 
ATOM      4  C   UNL     1      -6.833   1.208 133.318  0.00  0.00    +0.000 C 
ATOM      5  C   UNL     1      -5.599   0.370 133.319  0.00  0.00    +0.000 C 
ATOM      6  C   UNL     1      -5.066   0.064 131.637  0.00  0.00    +0.000 C 
ATOM      7  C   UNL     1      -4.662   1.733 131.445  0.00  0.00    +0.000 C 
ATOM      8  C   UNL     1      -5.837   2.681 131.526  0.00  0.00    +0.000 C 
ENDROOT
BRANCH   6   9
ATOM      9  N   UNL     1      -5.862  -1.378 130.811  0.00  0.00    +0.000 N 
ATOM     10  C   UNL     1      -4.852  -1.173 129.821  0.00  0.00    +0.000 C 
ATOM     11  O   UNL     1      -3.590  -1.072 129.949  0.00  0.00    +0.000 OA
ATOM     12  O   UNL     1      -5.284  -0.799 128.644  0.00  0.00    +0.000 OA
ATOM     13  C   UNL     1      -5.229  -2.042 128.068  0.00  0.00    +0.000 C 
ATOM     14  C   UNL     1      -6.657  -2.260 128.260  0.00  0.00    +0.000 A 
ATOM     15  C   UNL     1      -7.246  -2.721 126.956  0.00  0.00    +0.000 A 
ATOM     16  C   UNL     1      -8.460  -3.306 126.820  0.00  0.00    +0.000 A 
ATOM     17  C   UNL     1      -8.896  -3.687 128.069  0.00  0.00    +0.000 A 
ATOM     18  C   UNL     1      -8.214  -3.164 129.471  0.00  0.00    +0.000 A 
ATOM     19  C   UNL     1      -7.092  -2.127 129.640  0.00  0.00    +0.000 A 
ENDBRANCH   6   9
BRANCH   1  25
ATOM     20  C   UNL     1      -9.256   3.781 131.381  0.00  0.00    +0.000 A 
ATOM     21  C   UNL     1     -10.128   4.613 130.630  0.00  0.00    +0.000 A 
ATOM     22  C   UNL     1     -10.110   5.960 130.815  0.00  0.00    +0.000 A 
ATOM     23  C   UNL     1      -9.326   6.328 131.867  0.00  0.00    +0.000 A 
ATOM     24  C   UNL     1      -8.454   5.599 132.639  0.00  0.00    +0.000 A 
ATOM     25  C   UNL     1      -8.353   4.266 132.377  0.00  0.00    +0.000 A 
BRANCH  20  27
ATOM     26  C   UNL     1     -10.134   1.723 131.880  0.00  0.00    +0.000 C 
ATOM     27  O   UNL     1      -9.428   2.495 130.942  0.00  0.00    +0.000 OA
ENDBRANCH  20  27
BRANCH  22  28
ATOM     28  O   UNL     1     -10.803   6.804 130.014  0.00  0.00    +0.000 OA
BRANCH  28  29
ATOM     29  C   UNL     1     -12.254   6.917 130.015  0.00  0.00    +0.000 C 
ATOM     30  C   UNL     1     -13.038   6.522 128.742  0.00  0.00    +0.000 C 
ATOM     31  C   UNL     1     -13.134   7.628 127.704  0.00  0.00    +0.000 C 
ATOM     32  N   UNL     1     -13.486   8.950 128.312  0.00  0.00    +0.000 NA
ATOM     33  C   UNL     1     -12.818   9.366 129.588  0.00  0.00    +0.000 C 
ATOM     34  C   UNL     1     -12.757   8.240 130.607  0.00  0.00    +0.000 C 
ATOM     35  H   UNL     1     -14.482   8.911 128.516  0.00  0.00    +0.000 HD
ENDBRANCH  28  29
ENDBRANCH  22  28
ENDBRANCH   1  25
TORSDOF 5
ENDMDL
MODEL 7
REMARK VINA RESULT:      -9.1      3.372      8.760
REMARK  Name = CHEMBL69498
REMARK  6 active torsions:
REMARK  status: ('A' for Active; 'I' for Inactive)
REMARK    1  A    between atoms: C_1  and  O_2
REMARK    2  A    between atoms: O_2  and  C_3
REMARK    3  A    between atoms: C_5  and  O_6
REMARK    4  A    between atoms: O_6  and  C_7
REMARK    5  A    between atoms: C_15  and  C_16
REMARK    6  A    between atoms: C_21  and  N_22
REMARK                            x       y       z     vdW  Elec       q    Type
REMARK                         _______ _______ _______ _____ _____    ______ ____
ROOT
ATOM      1  C   UNL     1      -5.357   4.825 127.734  0.00  0.00    +0.000 C 
ATOM      2  O   UNL     1      -4.507   5.720 127.673  0.00  0.00    +0.000 OA
ATOM      3  N   UNL     1      -5.984   4.363 126.575  0.00  0.00    +0.000 N 
ATOM      4  C   UNL     1      -5.110   3.713 125.577  0.00  0.00    +0.000 C 
ATOM      5  C   UNL     1      -5.658   3.880 124.200  0.00  0.00    +0.000 C 
ATOM      6  C   UNL     1      -7.196   2.976 124.040  0.00  0.00    +0.000 C 
ATOM      7  C   UNL     1      -7.970   4.067 125.134  0.00  0.00    +0.000 C 
ATOM      8  C   UNL     1      -7.420   4.047 126.541  0.00  0.00    +0.000 C 
ENDROOT
BRANCH   6   9
ATOM      9  N   UNL     1      -7.018   1.197 123.591  0.00  0.00    +0.000 N 
ATOM     10  C   UNL     1      -8.401   1.303 123.250  0.00  0.00    +0.000 C 
ATOM     11  O   UNL     1      -8.997   2.140 122.499  0.00  0.00    +0.000 OA
ATOM     12  O   UNL     1      -9.220   0.598 123.988  0.00  0.00    +0.000 OA
ATOM     13  C   UNL     1      -9.350  -0.443 123.106  0.00  0.00    +0.000 C 
ATOM     14  C   UNL     1      -8.378  -1.254 123.827  0.00  0.00    +0.000 A 
ATOM     15  C   UNL     1      -8.974  -2.616 124.057  0.00  0.00    +0.000 A 
ATOM     16  C   UNL     1      -8.271  -3.716 124.416  0.00  0.00    +0.000 A 
ATOM     17  C   UNL     1      -6.934  -3.456 124.216  0.00  0.00    +0.000 A 
ATOM     18  C   UNL     1      -6.327  -1.950 123.958  0.00  0.00    +0.000 A 
ATOM     19  C   UNL     1      -7.085  -0.613 123.995  0.00  0.00    +0.000 A 
ENDBRANCH   6   9
BRANCH   1  25
ATOM     20  C   UNL     1      -5.370   2.827 129.545  0.00  0.00    +0.000 A 
ATOM     21  C   UNL     1      -5.693   2.396 130.860  0.00  0.00    +0.000 A 
ATOM     22  C   UNL     1      -6.308   3.247 131.723  0.00  0.00    +0.000 A 
ATOM     23  C   UNL     1      -6.391   4.515 131.230  0.00  0.00    +0.000 A 
ATOM     24  C   UNL     1      -6.110   5.017 129.983  0.00  0.00    +0.000 A 
ATOM     25  C   UNL     1      -5.621   4.147 129.056  0.00  0.00    +0.000 A 
BRANCH  20  27
ATOM     26  C   UNL     1      -5.826   1.044 128.180  0.00  0.00    +0.000 C 
ATOM     27  O   UNL     1      -4.837   1.758 128.877  0.00  0.00    +0.000 OA
ENDBRANCH  20  27
BRANCH  22  28
ATOM     28  O   UNL     1      -6.779   2.836 132.925  0.00  0.00    +0.000 OA
BRANCH  28  29
ATOM     29  C   UNL     1      -8.186   2.578 133.199  0.00  0.00    +0.000 C 
ATOM     30  C   UNL     1      -9.071   1.980 132.081  0.00  0.00    +0.000 C 
ATOM     31  C   UNL     1      -9.634   3.011 131.117  0.00  0.00    +0.000 C 
ATOM     32  N   UNL     1     -10.185   4.210 131.824  0.00  0.00    +0.000 NA
ATOM     33  C   UNL     1      -9.415   4.799 132.967  0.00  0.00    +0.000 C 
ATOM     34  C   UNL     1      -8.884   3.739 133.919  0.00  0.00    +0.000 C 
ATOM     35  H   UNL     1     -11.083   3.924 132.208  0.00  0.00    +0.000 HD
ENDBRANCH  28  29
ENDBRANCH  22  28
ENDBRANCH   1  25
TORSDOF 5
ENDMDL
MODEL 8
REMARK VINA RESULT:      -9.1      6.114     10.074
REMARK  Name = CHEMBL69498
REMARK  6 active torsions:
REMARK  status: ('A' for Active; 'I' for Inactive)
REMARK    1  A    between atoms: C_1  and  O_2
REMARK    2  A    between atoms: O_2  and  C_3
REMARK    3  A    between atoms: C_5  and  O_6
REMARK    4  A    between atoms: O_6  and  C_7
REMARK    5  A    between atoms: C_15  and  C_16
REMARK    6  A    between atoms: C_21  and  N_22
REMARK                            x       y       z     vdW  Elec       q    Type
REMARK                         _______ _______ _______ _____ _____    ______ ____
ROOT
ATOM      1  C   UNL     1      -5.473   4.199 131.913  0.00  0.00    +0.000 C 
ATOM      2  O   UNL     1      -5.323   3.135 131.302  0.00  0.00    +0.000 OA
ATOM      3  N   UNL     1      -4.380   4.844 132.493  0.00  0.00    +0.000 N 
ATOM      4  C   UNL     1      -3.334   5.316 131.563  0.00  0.00    +0.000 C 
ATOM      5  C   UNL     1      -2.000   5.341 132.229  0.00  0.00    +0.000 C 
ATOM      6  C   UNL     1      -1.983   6.582 133.519  0.00  0.00    +0.000 C 
ATOM      7  C   UNL     1      -3.104   5.653 134.449  0.00  0.00    +0.000 C 
ATOM      8  C   UNL     1      -4.465   5.484 133.814  0.00  0.00    +0.000 C 
ENDROOT
BRANCH   6   9
ATOM      9  N   UNL     1      -1.569   8.289 132.962  0.00  0.00    +0.000 N 
ATOM     10  C   UNL     1      -0.429   8.124 133.808  0.00  0.00    +0.000 C 
ATOM     11  O   UNL     1       0.434   7.190 133.844  0.00  0.00    +0.000 OA
ATOM     12  O   UNL     1      -0.384   8.910 134.854  0.00  0.00    +0.000 OA
ATOM     13  C   UNL     1       0.478   9.826 134.309  0.00  0.00    +0.000 C 
ATOM     14  C   UNL     1      -0.609  10.735 133.967  0.00  0.00    +0.000 A 
ATOM     15  C   UNL     1      -0.254  12.108 134.468  0.00  0.00    +0.000 A 
ATOM     16  C   UNL     1      -0.861  13.254 134.078  0.00  0.00    +0.000 A 
ATOM     17  C   UNL     1      -1.601  12.985 132.948  0.00  0.00    +0.000 A 
ATOM     18  C   UNL     1      -1.958  11.465 132.433  0.00  0.00    +0.000 A 
ATOM     19  C   UNL     1      -1.638  10.136 133.136  0.00  0.00    +0.000 A 
ENDBRANCH   6   9
BRANCH   1  25
ATOM     20  C   UNL     1      -8.041   4.601 132.630  0.00  0.00    +0.000 A 
ATOM     21  C   UNL     1      -9.222   5.379 132.492  0.00  0.00    +0.000 A 
ATOM     22  C   UNL     1      -9.254   6.418 131.617  0.00  0.00    +0.000 A 
ATOM     23  C   UNL     1      -8.030   6.682 131.081  0.00  0.00    +0.000 A 
ATOM     24  C   UNL     1      -6.846   5.988 131.154  0.00  0.00    +0.000 A 
ATOM     25  C   UNL     1      -6.829   4.861 131.919  0.00  0.00    +0.000 A 
BRANCH  20  27
ATOM     26  C   UNL     1      -9.210   2.658 132.958  0.00  0.00    +0.000 C 
ATOM     27  O   UNL     1      -8.312   3.587 133.509  0.00  0.00    +0.000 OA
ENDBRANCH  20  27
BRANCH  22  28
ATOM     28  O   UNL     1     -10.400   7.084 131.333  0.00  0.00    +0.000 OA
BRANCH  28  29
ATOM     29  C   UNL     1     -11.230   6.808 130.169  0.00  0.00    +0.000 C 
ATOM     30  C   UNL     1     -10.610   6.938 128.758  0.00  0.00    +0.000 C 
ATOM     31  C   UNL     1     -10.618   8.354 128.204  0.00  0.00    +0.000 C 
ATOM     32  N   UNL     1     -11.933   9.038 128.413  0.00  0.00    +0.000 NA
ATOM     33  C   UNL     1     -12.627   8.896 129.733  0.00  0.00    +0.000 C 
ATOM     34  C   UNL     1     -12.615   7.464 130.245  0.00  0.00    +0.000 C 
ATOM     35  H   UNL     1     -12.567   8.651 127.718  0.00  0.00    +0.000 HD
ENDBRANCH  28  29
ENDBRANCH  22  28
ENDBRANCH   1  25
TORSDOF 5
ENDMDL
MODEL 9
REMARK VINA RESULT:      -9.0      2.238      8.485
REMARK  Name = CHEMBL69498
REMARK  6 active torsions:
REMARK  status: ('A' for Active; 'I' for Inactive)
REMARK    1  A    between atoms: C_1  and  O_2
REMARK    2  A    between atoms: O_2  and  C_3
REMARK    3  A    between atoms: C_5  and  O_6
REMARK    4  A    between atoms: O_6  and  C_7
REMARK    5  A    between atoms: C_15  and  C_16
REMARK    6  A    between atoms: C_21  and  N_22
REMARK                            x       y       z     vdW  Elec       q    Type
REMARK                         _______ _______ _______ _____ _____    ______ ____
ROOT
ATOM      1  C   UNL     1      -6.221   4.796 130.537  0.00  0.00    +0.000 C 
ATOM      2  O   UNL     1      -5.673   4.933 131.637  0.00  0.00    +0.000 OA
ATOM      3  N   UNL     1      -5.565   4.136 129.497  0.00  0.00    +0.000 N 
ATOM      4  C   UNL     1      -5.257   2.710 129.723  0.00  0.00    +0.000 C 
ATOM      5  C   UNL     1      -4.044   2.299 128.958  0.00  0.00    +0.000 C 
ATOM      6  C   UNL     1      -4.377   2.367 127.200  0.00  0.00    +0.000 C 
ATOM      7  C   UNL     1      -4.490   4.090 127.271  0.00  0.00    +0.000 C 
ATOM      8  C   UNL     1      -5.635   4.613 128.108  0.00  0.00    +0.000 C 
ENDROOT
BRANCH   6   9
ATOM      9  N   UNL     1      -5.152   0.854 126.488  0.00  0.00    +0.000 N 
ATOM     10  C   UNL     1      -5.960   1.790 125.773  0.00  0.00    +0.000 C 
ATOM     11  O   UNL     1      -5.620   2.785 125.056  0.00  0.00    +0.000 OA
ATOM     12  O   UNL     1      -7.233   1.785 126.078  0.00  0.00    +0.000 OA
ATOM     13  C   UNL     1      -7.634   1.022 125.013  0.00  0.00    +0.000 C 
ATOM     14  C   UNL     1      -7.678  -0.190 125.821  0.00  0.00    +0.000 A 
ATOM     15  C   UNL     1      -9.001  -0.866 125.591  0.00  0.00    +0.000 A 
ATOM     16  C   UNL     1      -9.282  -2.148 125.923  0.00  0.00    +0.000 A 
ATOM     17  C   UNL     1      -8.095  -2.793 126.190  0.00  0.00    +0.000 A 
ATOM     18  C   UNL     1      -6.667  -2.012 126.426  0.00  0.00    +0.000 A 
ATOM     19  C   UNL     1      -6.426  -0.496 126.492  0.00  0.00    +0.000 A 
ENDBRANCH   6   9
BRANCH   1  25
ATOM     20  C   UNL     1      -8.824   4.587 129.864  0.00  0.00    +0.000 A 
ATOM     21  C   UNL     1     -10.106   5.197 129.808  0.00  0.00    +0.000 A 
ATOM     22  C   UNL     1     -10.265   6.485 130.214  0.00  0.00    +0.000 A 
ATOM     23  C   UNL     1      -9.141   6.986 130.799  0.00  0.00    +0.000 A 
ATOM     24  C   UNL     1      -7.869   6.475 130.894  0.00  0.00    +0.000 A 
ATOM     25  C   UNL     1      -7.654   5.237 130.367  0.00  0.00    +0.000 A 
BRANCH  20  27
ATOM     26  C   UNL     1      -9.012   2.352 130.330  0.00  0.00    +0.000 C 
ATOM     27  O   UNL     1      -8.937   3.333 129.328  0.00  0.00    +0.000 OA
ENDBRANCH  20  27
BRANCH  22  28
ATOM     28  O   UNL     1     -11.425   7.158 130.029  0.00  0.00    +0.000 OA
BRANCH  28  29
ATOM     29  C   UNL     1     -11.664   8.076 128.924  0.00  0.00    +0.000 C 
ATOM     30  C   UNL     1     -13.020   8.022 128.184  0.00  0.00    +0.000 C 
ATOM     31  C   UNL     1     -13.089   6.970 127.089  0.00  0.00    +0.000 C 
ATOM     32  N   UNL     1     -11.867   6.967 126.225  0.00  0.00    +0.000 NA
ATOM     33  C   UNL     1     -10.519   7.089 126.870  0.00  0.00    +0.000 C 
ATOM     34  C   UNL     1     -10.484   8.163 127.946  0.00  0.00    +0.000 C 
ATOM     35  H   UNL     1     -11.956   7.769 125.606  0.00  0.00    +0.000 HD
ENDBRANCH  28  29
ENDBRANCH  22  28
ENDBRANCH   1  25
TORSDOF 5
ENDMDL
