MODEL 1
REMARK VINA RESULT:      -7.6      0.000      0.000
REMARK  Name = CHEMBL467186
REMARK  10 active torsions:
REMARK  status: ('A' for Active; 'I' for Inactive)
REMARK    1  A    between atoms: C_1  and  O_2
REMARK    2  A    between atoms: O_2  and  C_3
REMARK    3  A    between atoms: C_3  and  C_4
REMARK    4  A    between atoms: C_7  and  C_8
REMARK    5  A    between atoms: C_11  and  C_12
REMARK    6  A    between atoms: C_16  and  C_17
REMARK    7  A    between atoms: C_18  and  C_19
REMARK    8  A    between atoms: N_22  and  C_23
REMARK    9  A    between atoms: C_26  and  O_27
REMARK   10  A    between atoms: O_27  and  C_28
REMARK                            x       y       z     vdW  Elec       q    Type
REMARK                         _______ _______ _______ _____ _____    ______ ____
ROOT
ATOM      1  C   UNL     1      -6.332   3.788 123.324  0.00  0.00    +0.000 A 
ATOM      2  N   UNL     1      -5.664   4.904 123.560  0.00  0.00    +0.000 NA
ATOM      3  N   UNL     1      -5.904   5.289 124.866  0.00  0.00    +0.000 NA
ATOM      4  C   UNL     1      -6.700   4.394 125.431  0.00  0.00    +0.000 A 
ATOM      5  N   UNL     1      -7.016   3.451 124.472  0.00  0.00    +0.000 N 
ENDROOT
BRANCH   4   6
ATOM      6  C   UNL     1      -7.075   4.283 126.841  0.00  0.00    +0.000 A 
ATOM      7  C   UNL     1      -6.319   3.537 127.749  0.00  0.00    +0.000 A 
ATOM      8  N   UNL     1      -6.691   3.311 129.035  0.00  0.00    +0.000 NA
ATOM      9  C   UNL     1      -7.870   3.863 129.412  0.00  0.00    +0.000 A 
ATOM     10  C   UNL     1      -8.605   4.635 128.507  0.00  0.00    +0.000 A 
ATOM     11  N   UNL     1      -8.243   4.848 127.212  0.00  0.00    +0.000 NA
BRANCH   9  12
ATOM     12  C   UNL     1      -8.329   3.593 130.786  0.00  0.00    +0.000 A 
ATOM     13  C   UNL     1      -9.161   2.482 131.022  0.00  0.00    +0.000 A 
ATOM     14  C   UNL     1      -9.583   2.154 132.310  0.00  0.00    +0.000 A 
ATOM     15  C   UNL     1      -9.210   2.953 133.386  0.00  0.00    +0.000 A 
ATOM     16  C   UNL     1      -8.408   4.088 133.191  0.00  0.00    +0.000 A 
ATOM     17  C   UNL     1      -8.063   4.939 134.383  0.00  0.00    +0.000 C 
ATOM     18  C   UNL     1      -7.952   4.409 131.889  0.00  0.00    +0.000 A 
ATOM     19  C   UNL     1      -7.078   5.622 131.659  0.00  0.00    +0.000 C 
ENDBRANCH   9  12
ENDBRANCH   4   6
BRANCH   5  20
ATOM     20  C   UNL     1      -7.777   2.294 124.679  0.00  0.00    +0.000 A 
ATOM     21  C   UNL     1      -9.149   2.326 124.475  0.00  0.00    +0.000 A 
ATOM     22  C   UNL     1      -9.873   1.173 124.727  0.00  0.00    +0.000 A 
ATOM     23  C   UNL     1      -9.200   0.033 125.157  0.00  0.00    +0.000 A 
ATOM     24  N   UNL     1      -7.856  -0.007 125.314  0.00  0.00    +0.000 NA
ATOM     25  C   UNL     1      -7.158   1.120 125.064  0.00  0.00    +0.000 A 
BRANCH  23  26
ATOM     26  O   UNL     1      -9.810  -1.149 125.468  0.00  0.00    +0.000 OA
ATOM     27  C   UNL     1      -8.971  -2.159 126.010  0.00  0.00    +0.000 C 
ENDBRANCH  23  26
ENDBRANCH   5  20
BRANCH   1  28
ATOM     28  C   UNL     1      -6.358   2.981 122.063  0.00  0.00    +0.000 C 
BRANCH  28  30
ATOM     29  C   UNL     1      -6.765   4.066 120.017  0.00  0.00    +0.000 C 
ATOM     30  O   UNL     1      -7.359   3.499 121.185  0.00  0.00    +0.000 OA
ENDBRANCH  28  30
ENDBRANCH   1  28
TORSDOF 6
ENDMDL
MODEL 2
REMARK VINA RESULT:      -7.5      2.291      3.144
REMARK  Name = CHEMBL467186
REMARK  10 active torsions:
REMARK  status: ('A' for Active; 'I' for Inactive)
REMARK    1  A    between atoms: C_1  and  O_2
REMARK    2  A    between atoms: O_2  and  C_3
REMARK    3  A    between atoms: C_3  and  C_4
REMARK    4  A    between atoms: C_7  and  C_8
REMARK    5  A    between atoms: C_11  and  C_12
REMARK    6  A    between atoms: C_16  and  C_17
REMARK    7  A    between atoms: C_18  and  C_19
REMARK    8  A    between atoms: N_22  and  C_23
REMARK    9  A    between atoms: C_26  and  O_27
REMARK   10  A    between atoms: O_27  and  C_28
REMARK                            x       y       z     vdW  Elec       q    Type
REMARK                         _______ _______ _______ _____ _____    ______ ____
ROOT
ATOM      1  C   UNL     1      -6.301   3.620 122.502  0.00  0.00    +0.000 A 
ATOM      2  N   UNL     1      -5.584   4.567 123.083  0.00  0.00    +0.000 NA
ATOM      3  N   UNL     1      -5.760   4.471 124.450  0.00  0.00    +0.000 NA
ATOM      4  C   UNL     1      -6.565   3.451 124.703  0.00  0.00    +0.000 A 
ATOM      5  N   UNL     1      -6.953   2.914 123.490  0.00  0.00    +0.000 N 
ENDROOT
BRANCH   4   6
ATOM      6  C   UNL     1      -6.889   2.858 126.001  0.00  0.00    +0.000 A 
ATOM      7  C   UNL     1      -5.898   2.374 126.859  0.00  0.00    +0.000 A 
ATOM      8  N   UNL     1      -6.157   1.713 128.016  0.00  0.00    +0.000 NA
ATOM      9  C   UNL     1      -7.468   1.538 128.311  0.00  0.00    +0.000 A 
ATOM     10  C   UNL     1      -8.455   2.051 127.464  0.00  0.00    +0.000 A 
ATOM     11  N   UNL     1      -8.197   2.699 126.294  0.00  0.00    +0.000 NA
BRANCH   9  12
ATOM     12  C   UNL     1      -7.785   0.776 129.533  0.00  0.00    +0.000 A 
ATOM     13  C   UNL     1      -8.348   1.452 130.633  0.00  0.00    +0.000 A 
ATOM     14  C   UNL     1      -8.710   0.769 131.794  0.00  0.00    +0.000 A 
ATOM     15  C   UNL     1      -8.484  -0.600 131.891  0.00  0.00    +0.000 A 
ATOM     16  C   UNL     1      -7.896  -1.307 130.832  0.00  0.00    +0.000 A 
ATOM     17  C   UNL     1      -7.639  -2.780 131.002  0.00  0.00    +0.000 C 
ATOM     18  C   UNL     1      -7.552  -0.624 129.639  0.00  0.00    +0.000 A 
ATOM     19  C   UNL     1      -6.927  -1.369 128.480  0.00  0.00    +0.000 C 
ENDBRANCH   9  12
ENDBRANCH   4   6
BRANCH   5  20
ATOM     20  C   UNL     1      -7.747   1.775 123.314  0.00  0.00    +0.000 A 
ATOM     21  C   UNL     1      -9.095   1.915 123.015  0.00  0.00    +0.000 A 
ATOM     22  C   UNL     1      -9.857   0.765 122.886  0.00  0.00    +0.000 A 
ATOM     23  C   UNL     1      -9.243  -0.473 123.046  0.00  0.00    +0.000 A 
ATOM     24  N   UNL     1      -7.919  -0.607 123.297  0.00  0.00    +0.000 NA
ATOM     25  C   UNL     1      -7.184   0.517 123.418  0.00  0.00    +0.000 A 
BRANCH  23  26
ATOM     26  O   UNL     1      -9.897  -1.671 122.976  0.00  0.00    +0.000 OA
ATOM     27  C   UNL     1      -9.141  -2.816 123.345  0.00  0.00    +0.000 C 
ENDBRANCH  23  26
ENDBRANCH   5  20
BRANCH   1  28
ATOM     28  C   UNL     1      -6.406   3.311 121.040  0.00  0.00    +0.000 C 
BRANCH  28  30
ATOM     29  C   UNL     1      -7.277   4.422 119.160  0.00  0.00    +0.000 C 
ATOM     30  O   UNL     1      -7.543   3.979 120.491  0.00  0.00    +0.000 OA
ENDBRANCH  28  30
ENDBRANCH   1  28
TORSDOF 6
ENDMDL
MODEL 3
REMARK VINA RESULT:      -7.5      4.206      6.609
REMARK  Name = CHEMBL467186
REMARK  10 active torsions:
REMARK  status: ('A' for Active; 'I' for Inactive)
REMARK    1  A    between atoms: C_1  and  O_2
REMARK    2  A    between atoms: O_2  and  C_3
REMARK    3  A    between atoms: C_3  and  C_4
REMARK    4  A    between atoms: C_7  and  C_8
REMARK    5  A    between atoms: C_11  and  C_12
REMARK    6  A    between atoms: C_16  and  C_17
REMARK    7  A    between atoms: C_18  and  C_19
REMARK    8  A    between atoms: N_22  and  C_23
REMARK    9  A    between atoms: C_26  and  O_27
REMARK   10  A    between atoms: O_27  and  C_28
REMARK                            x       y       z     vdW  Elec       q    Type
REMARK                         _______ _______ _______ _____ _____    ______ ____
ROOT
ATOM      1  C   UNL     1      -8.479  -2.065 123.666  0.00  0.00    +0.000 A 
ATOM      2  N   UNL     1      -8.498  -3.387 123.661  0.00  0.00    +0.000 NA
ATOM      3  N   UNL     1      -8.148  -3.834 124.922  0.00  0.00    +0.000 NA
ATOM      4  C   UNL     1      -7.940  -2.783 125.700  0.00  0.00    +0.000 A 
ATOM      5  N   UNL     1      -8.107  -1.650 124.927  0.00  0.00    +0.000 N 
ENDROOT
BRANCH   4   6
ATOM      6  C   UNL     1      -7.730  -2.761 127.148  0.00  0.00    +0.000 A 
ATOM      7  C   UNL     1      -6.534  -2.311 127.713  0.00  0.00    +0.000 A 
ATOM      8  N   UNL     1      -6.251  -2.382 129.040  0.00  0.00    +0.000 NA
ATOM      9  C   UNL     1      -7.217  -2.928 129.817  0.00  0.00    +0.000 A 
ATOM     10  C   UNL     1      -8.424  -3.349 129.249  0.00  0.00    +0.000 A 
ATOM     11  N   UNL     1      -8.702  -3.295 127.918  0.00  0.00    +0.000 NA
BRANCH   9  12
ATOM     12  C   UNL     1      -6.921  -3.070 131.254  0.00  0.00    +0.000 A 
ATOM     13  C   UNL     1      -7.440  -2.121 132.156  0.00  0.00    +0.000 A 
ATOM     14  C   UNL     1      -7.230  -2.237 133.530  0.00  0.00    +0.000 A 
ATOM     15  C   UNL     1      -6.465  -3.287 134.027  0.00  0.00    +0.000 A 
ATOM     16  C   UNL     1      -5.902  -4.237 133.162  0.00  0.00    +0.000 A 
ATOM     17  C   UNL     1      -5.053  -5.332 133.748  0.00  0.00    +0.000 C 
ATOM     18  C   UNL     1      -6.137  -4.140 131.768  0.00  0.00    +0.000 A 
ATOM     19  C   UNL     1      -5.548  -5.160 130.818  0.00  0.00    +0.000 C 
ENDBRANCH   9  12
ENDBRANCH   4   6
BRANCH   5  20
ATOM     20  C   UNL     1      -8.047  -0.328 125.385  0.00  0.00    +0.000 A 
ATOM     21  C   UNL     1      -6.871   0.396 125.245  0.00  0.00    +0.000 A 
ATOM     22  C   UNL     1      -6.838   1.688 125.745  0.00  0.00    +0.000 A 
ATOM     23  C   UNL     1      -7.978   2.207 126.349  0.00  0.00    +0.000 A 
ATOM     24  N   UNL     1      -9.136   1.513 126.446  0.00  0.00    +0.000 NA
ATOM     25  C   UNL     1      -9.162   0.257 125.954  0.00  0.00    +0.000 A 
BRANCH  23  26
ATOM     26  O   UNL     1      -8.054   3.452 126.907  0.00  0.00    +0.000 OA
ATOM     27  C   UNL     1      -7.951   4.546 126.007  0.00  0.00    +0.000 C 
ENDBRANCH  23  26
ENDBRANCH   5  20
BRANCH   1  28
ATOM     28  C   UNL     1      -8.815  -1.136 122.541  0.00  0.00    +0.000 C 
BRANCH  28  30
ATOM     29  C   UNL     1     -10.284   0.700 122.533  0.00  0.00    +0.000 C 
ATOM     30  O   UNL     1     -10.176  -0.719 122.655  0.00  0.00    +0.000 OA
ENDBRANCH  28  30
ENDBRANCH   1  28
TORSDOF 6
ENDMDL
MODEL 4
REMARK VINA RESULT:      -7.4      3.655      7.979
REMARK  Name = CHEMBL467186
REMARK  10 active torsions:
REMARK  status: ('A' for Active; 'I' for Inactive)
REMARK    1  A    between atoms: C_1  and  O_2
REMARK    2  A    between atoms: O_2  and  C_3
REMARK    3  A    between atoms: C_3  and  C_4
REMARK    4  A    between atoms: C_7  and  C_8
REMARK    5  A    between atoms: C_11  and  C_12
REMARK    6  A    between atoms: C_16  and  C_17
REMARK    7  A    between atoms: C_18  and  C_19
REMARK    8  A    between atoms: N_22  and  C_23
REMARK    9  A    between atoms: C_26  and  O_27
REMARK   10  A    between atoms: O_27  and  C_28
REMARK                            x       y       z     vdW  Elec       q    Type
REMARK                         _______ _______ _______ _____ _____    ______ ____
ROOT
ATOM      1  C   UNL     1      -9.149   5.798 130.187  0.00  0.00    +0.000 A 
ATOM      2  N   UNL     1      -9.385   6.296 128.985  0.00  0.00    +0.000 NA
ATOM      3  N   UNL     1      -8.879   5.420 128.043  0.00  0.00    +0.000 NA
ATOM      4  C   UNL     1      -8.356   4.378 128.671  0.00  0.00    +0.000 A 
ATOM      5  N   UNL     1      -8.480   4.604 130.029  0.00  0.00    +0.000 N 
ENDROOT
BRANCH   4   6
ATOM      6  C   UNL     1      -7.873   3.125 128.090  0.00  0.00    +0.000 A 
ATOM      7  C   UNL     1      -6.548   2.966 127.678  0.00  0.00    +0.000 A 
ATOM      8  N   UNL     1      -6.085   1.866 127.029  0.00  0.00    +0.000 NA
ATOM      9  C   UNL     1      -7.001   0.895 126.793  0.00  0.00    +0.000 A 
ATOM     10  C   UNL     1      -8.318   1.048 127.236  0.00  0.00    +0.000 A 
ATOM     11  N   UNL     1      -8.788   2.157 127.871  0.00  0.00    +0.000 NA
BRANCH   9  12
ATOM     12  C   UNL     1      -6.545  -0.289 126.043  0.00  0.00    +0.000 A 
ATOM     13  C   UNL     1      -5.963  -1.361 126.747  0.00  0.00    +0.000 A 
ATOM     14  C   UNL     1      -5.560  -2.524 126.090  0.00  0.00    +0.000 A 
ATOM     15  C   UNL     1      -5.698  -2.623 124.709  0.00  0.00    +0.000 A 
ATOM     16  C   UNL     1      -6.242  -1.566 123.966  0.00  0.00    +0.000 A 
ATOM     17  C   UNL     1      -6.337  -1.710 122.471  0.00  0.00    +0.000 C 
ATOM     18  C   UNL     1      -6.681  -0.394 124.631  0.00  0.00    +0.000 A 
ATOM     19  C   UNL     1      -7.281   0.753 123.848  0.00  0.00    +0.000 C 
ENDBRANCH   9  12
ENDBRANCH   4   6
BRANCH   5  20
ATOM     20  C   UNL     1      -8.117   3.711 131.044  0.00  0.00    +0.000 A 
ATOM     21  C   UNL     1      -9.039   2.782 131.507  0.00  0.00    +0.000 A 
ATOM     22  C   UNL     1      -8.656   1.941 132.539  0.00  0.00    +0.000 A 
ATOM     23  C   UNL     1      -7.369   2.050 133.055  0.00  0.00    +0.000 A 
ATOM     24  N   UNL     1      -6.458   2.928 132.573  0.00  0.00    +0.000 NA
ATOM     25  C   UNL     1      -6.838   3.742 131.566  0.00  0.00    +0.000 A 
BRANCH  23  26
ATOM     26  O   UNL     1      -6.891   1.301 134.092  0.00  0.00    +0.000 OA
ATOM     27  C   UNL     1      -5.667   1.739 134.666  0.00  0.00    +0.000 C 
ENDBRANCH  23  26
ENDBRANCH   5  20
BRANCH   1  28
ATOM     28  C   UNL     1      -9.536   6.375 131.513  0.00  0.00    +0.000 C 
BRANCH  28  30
ATOM     29  C   UNL     1     -11.869   6.661 131.567  0.00  0.00    +0.000 C 
ATOM     30  O   UNL     1     -10.780   5.813 131.934  0.00  0.00    +0.000 OA
ENDBRANCH  28  30
ENDBRANCH   1  28
TORSDOF 6
ENDMDL
MODEL 5
REMARK VINA RESULT:      -7.4      1.561      2.433
REMARK  Name = CHEMBL467186
REMARK  10 active torsions:
REMARK  status: ('A' for Active; 'I' for Inactive)
REMARK    1  A    between atoms: C_1  and  O_2
REMARK    2  A    between atoms: O_2  and  C_3
REMARK    3  A    between atoms: C_3  and  C_4
REMARK    4  A    between atoms: C_7  and  C_8
REMARK    5  A    between atoms: C_11  and  C_12
REMARK    6  A    between atoms: C_16  and  C_17
REMARK    7  A    between atoms: C_18  and  C_19
REMARK    8  A    between atoms: N_22  and  C_23
REMARK    9  A    between atoms: C_26  and  O_27
REMARK   10  A    between atoms: O_27  and  C_28
REMARK                            x       y       z     vdW  Elec       q    Type
REMARK                         _______ _______ _______ _____ _____    ______ ____
ROOT
ATOM      1  C   UNL     1      -5.700   3.899 122.105  0.00  0.00    +0.000 A 
ATOM      2  N   UNL     1      -5.000   4.959 122.472  0.00  0.00    +0.000 NA
ATOM      3  N   UNL     1      -5.335   5.274 123.776  0.00  0.00    +0.000 NA
ATOM      4  C   UNL     1      -6.221   4.391 124.209  0.00  0.00    +0.000 A 
ATOM      5  N   UNL     1      -6.499   3.529 123.165  0.00  0.00    +0.000 N 
ENDROOT
BRANCH   4   6
ATOM      6  C   UNL     1      -6.724   4.213 125.573  0.00  0.00    +0.000 A 
ATOM      7  C   UNL     1      -7.980   4.682 125.963  0.00  0.00    +0.000 A 
ATOM      8  N   UNL     1      -8.438   4.644 127.241  0.00  0.00    +0.000 NA
ATOM      9  C   UNL     1      -7.589   4.109 128.152  0.00  0.00    +0.000 A 
ATOM     10  C   UNL     1      -6.346   3.613 127.749  0.00  0.00    +0.000 A 
ATOM     11  N   UNL     1      -5.878   3.667 126.472  0.00  0.00    +0.000 NA
BRANCH   9  12
ATOM     12  C   UNL     1      -8.033   4.101 129.558  0.00  0.00    +0.000 A 
ATOM     13  C   UNL     1      -7.914   5.280 130.319  0.00  0.00    +0.000 A 
ATOM     14  C   UNL     1      -8.363   5.339 131.638  0.00  0.00    +0.000 A 
ATOM     15  C   UNL     1      -8.910   4.207 132.234  0.00  0.00    +0.000 A 
ATOM     16  C   UNL     1      -9.018   3.003 131.523  0.00  0.00    +0.000 A 
ATOM     17  C   UNL     1      -9.584   1.799 132.226  0.00  0.00    +0.000 C 
ATOM     18  C   UNL     1      -8.590   2.946 130.174  0.00  0.00    +0.000 A 
ATOM     19  C   UNL     1      -8.708   1.660 129.385  0.00  0.00    +0.000 C 
ENDBRANCH   9  12
ENDBRANCH   4   6
BRANCH   5  20
ATOM     20  C   UNL     1      -7.333   2.406 123.229  0.00  0.00    +0.000 A 
ATOM     21  C   UNL     1      -6.821   1.192 123.665  0.00  0.00    +0.000 A 
ATOM     22  C   UNL     1      -7.666   0.095 123.678  0.00  0.00    +0.000 A 
ATOM     23  C   UNL     1      -8.987   0.255 123.270  0.00  0.00    +0.000 A 
ATOM     24  N   UNL     1      -9.494   1.450 122.886  0.00  0.00    +0.000 NA
ATOM     25  C   UNL     1      -8.665   2.514 122.878  0.00  0.00    +0.000 A 
BRANCH  23  26
ATOM     26  O   UNL     1      -9.901  -0.758 123.208  0.00  0.00    +0.000 OA
ATOM     27  C   UNL     1      -9.375  -2.076 123.258  0.00  0.00    +0.000 C 
ENDBRANCH  23  26
ENDBRANCH   5  20
BRANCH   1  28
ATOM     28  C   UNL     1      -5.656   3.176 120.794  0.00  0.00    +0.000 C 
BRANCH  28  30
ATOM     29  C   UNL     1      -6.228   4.877 119.275  0.00  0.00    +0.000 C 
ATOM     30  O   UNL     1      -6.672   3.689 119.931  0.00  0.00    +0.000 OA
ENDBRANCH  28  30
ENDBRANCH   1  28
TORSDOF 6
ENDMDL
MODEL 6
REMARK VINA RESULT:      -7.3      3.643      7.826
REMARK  Name = CHEMBL467186
REMARK  10 active torsions:
REMARK  status: ('A' for Active; 'I' for Inactive)
REMARK    1  A    between atoms: C_1  and  O_2
REMARK    2  A    between atoms: O_2  and  C_3
REMARK    3  A    between atoms: C_3  and  C_4
REMARK    4  A    between atoms: C_7  and  C_8
REMARK    5  A    between atoms: C_11  and  C_12
REMARK    6  A    between atoms: C_16  and  C_17
REMARK    7  A    between atoms: C_18  and  C_19
REMARK    8  A    between atoms: N_22  and  C_23
REMARK    9  A    between atoms: C_26  and  O_27
REMARK   10  A    between atoms: O_27  and  C_28
REMARK                            x       y       z     vdW  Elec       q    Type
REMARK                         _______ _______ _______ _____ _____    ______ ____
ROOT
ATOM      1  C   UNL     1      -7.838   4.982 130.267  0.00  0.00    +0.000 A 
ATOM      2  N   UNL     1      -9.140   4.831 130.439  0.00  0.00    +0.000 NA
ATOM      3  N   UNL     1      -9.561   3.762 129.669  0.00  0.00    +0.000 NA
ATOM      4  C   UNL     1      -8.510   3.249 129.048  0.00  0.00    +0.000 A 
ATOM      5  N   UNL     1      -7.412   4.020 129.378  0.00  0.00    +0.000 N 
ENDROOT
BRANCH   4   6
ATOM      6  C   UNL     1      -8.436   2.007 128.277  0.00  0.00    +0.000 A 
ATOM      7  C   UNL     1      -7.984   0.813 128.843  0.00  0.00    +0.000 A 
ATOM      8  N   UNL     1      -7.788  -0.331 128.138  0.00  0.00    +0.000 NA
ATOM      9  C   UNL     1      -8.063  -0.258 126.813  0.00  0.00    +0.000 A 
ATOM     10  C   UNL     1      -8.545   0.932 126.259  0.00  0.00    +0.000 A 
ATOM     11  N   UNL     1      -8.724   2.084 126.960  0.00  0.00    +0.000 NA
BRANCH   9  12
ATOM     12  C   UNL     1      -7.810  -1.467 126.008  0.00  0.00    +0.000 A 
ATOM     13  C   UNL     1      -8.847  -2.405 125.840  0.00  0.00    +0.000 A 
ATOM     14  C   UNL     1      -8.675  -3.541 125.049  0.00  0.00    +0.000 A 
ATOM     15  C   UNL     1      -7.448  -3.779 124.437  0.00  0.00    +0.000 A 
ATOM     16  C   UNL     1      -6.378  -2.887 124.605  0.00  0.00    +0.000 A 
ATOM     17  C   UNL     1      -5.062  -3.210 123.951  0.00  0.00    +0.000 C 
ATOM     18  C   UNL     1      -6.557  -1.717 125.383  0.00  0.00    +0.000 A 
ATOM     19  C   UNL     1      -5.419  -0.737 125.568  0.00  0.00    +0.000 C 
ENDBRANCH   9  12
ENDBRANCH   4   6
BRANCH   5  20
ATOM     20  C   UNL     1      -6.090   3.773 128.988  0.00  0.00    +0.000 A 
ATOM     21  C   UNL     1      -5.257   3.028 129.810  0.00  0.00    +0.000 A 
ATOM     22  C   UNL     1      -3.944   2.837 129.409  0.00  0.00    +0.000 A 
ATOM     23  C   UNL     1      -3.523   3.383 128.200  0.00  0.00    +0.000 A 
ATOM     24  N   UNL     1      -4.350   4.073 127.380  0.00  0.00    +0.000 NA
ATOM     25  C   UNL     1      -5.626   4.252 127.777  0.00  0.00    +0.000 A 
BRANCH  23  26
ATOM     26  O   UNL     1      -2.248   3.290 127.718  0.00  0.00    +0.000 OA
ATOM     27  C   UNL     1      -2.108   3.366 126.306  0.00  0.00    +0.000 C 
ENDBRANCH  23  26
ENDBRANCH   5  20
BRANCH   1  28
ATOM     28  C   UNL     1      -6.936   5.987 130.914  0.00  0.00    +0.000 C 
BRANCH  28  30
ATOM     29  C   UNL     1      -5.328   5.783 132.617  0.00  0.00    +0.000 C 
ATOM     30  O   UNL     1      -6.704   5.616 132.274  0.00  0.00    +0.000 OA
ENDBRANCH  28  30
ENDBRANCH   1  28
TORSDOF 6
ENDMDL
MODEL 7
REMARK VINA RESULT:      -7.2      4.380      5.888
REMARK  Name = CHEMBL467186
REMARK  10 active torsions:
REMARK  status: ('A' for Active; 'I' for Inactive)
REMARK    1  A    between atoms: C_1  and  O_2
REMARK    2  A    between atoms: O_2  and  C_3
REMARK    3  A    between atoms: C_3  and  C_4
REMARK    4  A    between atoms: C_7  and  C_8
REMARK    5  A    between atoms: C_11  and  C_12
REMARK    6  A    between atoms: C_16  and  C_17
REMARK    7  A    between atoms: C_18  and  C_19
REMARK    8  A    between atoms: N_22  and  C_23
REMARK    9  A    between atoms: C_26  and  O_27
REMARK   10  A    between atoms: O_27  and  C_28
REMARK                            x       y       z     vdW  Elec       q    Type
REMARK                         _______ _______ _______ _____ _____    ______ ____
ROOT
ATOM      1  C   UNL     1      -8.282   1.222 124.822  0.00  0.00    +0.000 A 
ATOM      2  N   UNL     1      -8.748   2.122 125.671  0.00  0.00    +0.000 NA
ATOM      3  N   UNL     1      -8.732   1.573 126.940  0.00  0.00    +0.000 NA
ATOM      4  C   UNL     1      -8.235   0.348 126.865  0.00  0.00    +0.000 A 
ATOM      5  N   UNL     1      -7.973   0.084 125.534  0.00  0.00    +0.000 N 
ENDROOT
BRANCH   4   6
ATOM      6  C   UNL     1      -7.860  -0.541 127.965  0.00  0.00    +0.000 A 
ATOM      7  C   UNL     1      -6.790  -0.252 128.816  0.00  0.00    +0.000 A 
ATOM      8  N   UNL     1      -6.334  -1.101 129.772  0.00  0.00    +0.000 NA
ATOM      9  C   UNL     1      -6.989  -2.283 129.868  0.00  0.00    +0.000 A 
ATOM     10  C   UNL     1      -8.078  -2.554 129.034  0.00  0.00    +0.000 A 
ATOM     11  N   UNL     1      -8.526  -1.712 128.063  0.00  0.00    +0.000 NA
BRANCH   9  12
ATOM     12  C   UNL     1      -6.486  -3.250 130.860  0.00  0.00    +0.000 A 
ATOM     13  C   UNL     1      -5.668  -4.312 130.426  0.00  0.00    +0.000 A 
ATOM     14  C   UNL     1      -5.127  -5.225 131.330  0.00  0.00    +0.000 A 
ATOM     15  C   UNL     1      -5.422  -5.115 132.686  0.00  0.00    +0.000 A 
ATOM     16  C   UNL     1      -6.258  -4.093 133.157  0.00  0.00    +0.000 A 
ATOM     17  C   UNL     1      -6.574  -4.040 134.627  0.00  0.00    +0.000 C 
ATOM     18  C   UNL     1      -6.787  -3.145 132.247  0.00  0.00    +0.000 A 
ATOM     19  C   UNL     1      -7.682  -2.027 132.735  0.00  0.00    +0.000 C 
ENDBRANCH   9  12
ENDBRANCH   4   6
BRANCH   5  20
ATOM     20  C   UNL     1      -7.372  -1.077 125.032  0.00  0.00    +0.000 A 
ATOM     21  C   UNL     1      -8.165  -2.132 124.604  0.00  0.00    +0.000 A 
ATOM     22  C   UNL     1      -7.534  -3.279 124.150  0.00  0.00    +0.000 A 
ATOM     23  C   UNL     1      -6.143  -3.320 124.126  0.00  0.00    +0.000 A 
ATOM     24  N   UNL     1      -5.374  -2.272 124.505  0.00  0.00    +0.000 NA
ATOM     25  C   UNL     1      -5.996  -1.159 124.944  0.00  0.00    +0.000 A 
BRANCH  23  26
ATOM     26  O   UNL     1      -5.412  -4.404 123.732  0.00  0.00    +0.000 OA
ATOM     27  C   UNL     1      -4.011  -4.202 123.613  0.00  0.00    +0.000 C 
ENDBRANCH  23  26
ENDBRANCH   5  20
BRANCH   1  28
ATOM     28  C   UNL     1      -8.083   1.368 123.344  0.00  0.00    +0.000 C 
BRANCH  28  30
ATOM     29  C   UNL     1     -10.121   0.536 122.517  0.00  0.00    +0.000 C 
ATOM     30  O   UNL     1      -9.326   1.704 122.726  0.00  0.00    +0.000 OA
ENDBRANCH  28  30
ENDBRANCH   1  28
TORSDOF 6
ENDMDL
MODEL 8
REMARK VINA RESULT:      -7.1      3.922      5.922
REMARK  Name = CHEMBL467186
REMARK  10 active torsions:
REMARK  status: ('A' for Active; 'I' for Inactive)
REMARK    1  A    between atoms: C_1  and  O_2
REMARK    2  A    between atoms: O_2  and  C_3
REMARK    3  A    between atoms: C_3  and  C_4
REMARK    4  A    between atoms: C_7  and  C_8
REMARK    5  A    between atoms: C_11  and  C_12
REMARK    6  A    between atoms: C_16  and  C_17
REMARK    7  A    between atoms: C_18  and  C_19
REMARK    8  A    between atoms: N_22  and  C_23
REMARK    9  A    between atoms: C_26  and  O_27
REMARK   10  A    between atoms: O_27  and  C_28
REMARK                            x       y       z     vdW  Elec       q    Type
REMARK                         _______ _______ _______ _____ _____    ______ ____
ROOT
ATOM      1  C   UNL     1      -7.232   0.540 123.766  0.00  0.00    +0.000 A 
ATOM      2  N   UNL     1      -6.898  -0.548 123.092  0.00  0.00    +0.000 NA
ATOM      3  N   UNL     1      -6.493  -1.513 123.995  0.00  0.00    +0.000 NA
ATOM      4  C   UNL     1      -6.602  -1.019 125.219  0.00  0.00    +0.000 A 
ATOM      5  N   UNL     1      -7.034   0.288 125.106  0.00  0.00    +0.000 N 
ENDROOT
BRANCH   4   6
ATOM      6  C   UNL     1      -6.463  -1.728 126.492  0.00  0.00    +0.000 A 
ATOM      7  C   UNL     1      -7.519  -2.450 127.054  0.00  0.00    +0.000 A 
ATOM      8  N   UNL     1      -7.473  -3.023 128.284  0.00  0.00    +0.000 NA
ATOM      9  C   UNL     1      -6.313  -2.857 128.965  0.00  0.00    +0.000 A 
ATOM     10  C   UNL     1      -5.250  -2.160 128.385  0.00  0.00    +0.000 A 
ATOM     11  N   UNL     1      -5.300  -1.569 127.159  0.00  0.00    +0.000 NA
BRANCH   9  12
ATOM     12  C   UNL     1      -6.248  -3.420 130.326  0.00  0.00    +0.000 A 
ATOM     13  C   UNL     1      -5.530  -4.613 130.538  0.00  0.00    +0.000 A 
ATOM     14  C   UNL     1      -5.398  -5.161 131.814  0.00  0.00    +0.000 A 
ATOM     15  C   UNL     1      -6.012  -4.545 132.900  0.00  0.00    +0.000 A 
ATOM     16  C   UNL     1      -6.764  -3.373 132.728  0.00  0.00    +0.000 A 
ATOM     17  C   UNL     1      -7.438  -2.767 133.929  0.00  0.00    +0.000 C 
ATOM     18  C   UNL     1      -6.878  -2.796 131.439  0.00  0.00    +0.000 A 
ATOM     19  C   UNL     1      -7.675  -1.527 131.234  0.00  0.00    +0.000 C 
ENDBRANCH   9  12
ENDBRANCH   4   6
BRANCH   5  20
ATOM     20  C   UNL     1      -7.345   1.144 126.170  0.00  0.00    +0.000 A 
ATOM     21  C   UNL     1      -6.361   1.964 126.704  0.00  0.00    +0.000 A 
ATOM     22  C   UNL     1      -6.697   2.769 127.781  0.00  0.00    +0.000 A 
ATOM     23  C   UNL     1      -7.999   2.733 128.269  0.00  0.00    +0.000 A 
ATOM     24  N   UNL     1      -8.967   1.963 127.719  0.00  0.00    +0.000 NA
ATOM     25  C   UNL     1      -8.633   1.184 126.669  0.00  0.00    +0.000 A 
BRANCH  23  26
ATOM     26  O   UNL     1      -8.437   3.454 129.344  0.00  0.00    +0.000 OA
ATOM     27  C   UNL     1      -9.200   2.738 130.305  0.00  0.00    +0.000 C 
ENDBRANCH  23  26
ENDBRANCH   5  20
BRANCH   1  28
ATOM     28  C   UNL     1      -7.757   1.833 123.223  0.00  0.00    +0.000 C 
BRANCH  28  30
ATOM     29  C   UNL     1      -6.250   3.636 123.303  0.00  0.00    +0.000 C 
ATOM     30  O   UNL     1      -6.712   2.523 122.536  0.00  0.00    +0.000 OA
ENDBRANCH  28  30
ENDBRANCH   1  28
TORSDOF 6
ENDMDL
MODEL 9
REMARK VINA RESULT:      -7.0      5.772      8.591
REMARK  Name = CHEMBL467186
REMARK  10 active torsions:
REMARK  status: ('A' for Active; 'I' for Inactive)
REMARK    1  A    between atoms: C_1  and  O_2
REMARK    2  A    between atoms: O_2  and  C_3
REMARK    3  A    between atoms: C_3  and  C_4
REMARK    4  A    between atoms: C_7  and  C_8
REMARK    5  A    between atoms: C_11  and  C_12
REMARK    6  A    between atoms: C_16  and  C_17
REMARK    7  A    between atoms: C_18  and  C_19
REMARK    8  A    between atoms: N_22  and  C_23
REMARK    9  A    between atoms: C_26  and  O_27
REMARK   10  A    between atoms: O_27  and  C_28
REMARK                            x       y       z     vdW  Elec       q    Type
REMARK                         _______ _______ _______ _____ _____    ______ ____
ROOT
ATOM      1  C   UNL     1     -10.709   5.077 131.092  0.00  0.00    +0.000 A 
ATOM      2  N   UNL     1     -11.401   4.483 130.134  0.00  0.00    +0.000 NA
ATOM      3  N   UNL     1     -10.808   3.266 129.857  0.00  0.00    +0.000 NA
ATOM      4  C   UNL     1      -9.768   3.109 130.661  0.00  0.00    +0.000 A 
ATOM      5  N   UNL     1      -9.658   4.252 131.430  0.00  0.00    +0.000 N 
ENDROOT
BRANCH   4   6
ATOM      6  C   UNL     1      -8.953   1.909 130.858  0.00  0.00    +0.000 A 
ATOM      7  C   UNL     1      -9.333   0.896 131.741  0.00  0.00    +0.000 A 
ATOM      8  N   UNL     1      -8.555  -0.175 132.042  0.00  0.00    +0.000 NA
ATOM      9  C   UNL     1      -7.350  -0.218 131.422  0.00  0.00    +0.000 A 
ATOM     10  C   UNL     1      -6.989   0.784 130.516  0.00  0.00    +0.000 A 
ATOM     11  N   UNL     1      -7.760   1.867 130.227  0.00  0.00    +0.000 NA
BRANCH   9  12
ATOM     12  C   UNL     1      -6.458  -1.339 131.767  0.00  0.00    +0.000 A 
ATOM     13  C   UNL     1      -5.515  -1.170 132.800  0.00  0.00    +0.000 A 
ATOM     14  C   UNL     1      -4.681  -2.215 133.197  0.00  0.00    +0.000 A 
ATOM     15  C   UNL     1      -4.749  -3.442 132.544  0.00  0.00    +0.000 A 
ATOM     16  C   UNL     1      -5.651  -3.644 131.489  0.00  0.00    +0.000 A 
ATOM     17  C   UNL     1      -5.660  -4.978 130.794  0.00  0.00    +0.000 C 
ATOM     18  C   UNL     1      -6.521  -2.595 131.101  0.00  0.00    +0.000 A 
ATOM     19  C   UNL     1      -7.509  -2.795 129.973  0.00  0.00    +0.000 C 
ENDBRANCH   9  12
ENDBRANCH   4   6
BRANCH   5  20
ATOM     20  C   UNL     1      -8.732   4.462 132.459  0.00  0.00    +0.000 A 
ATOM     21  C   UNL     1      -9.031   4.048 133.750  0.00  0.00    +0.000 A 
ATOM     22  C   UNL     1      -8.106   4.308 134.748  0.00  0.00    +0.000 A 
ATOM     23  C   UNL     1      -6.919   4.953 134.417  0.00  0.00    +0.000 A 
ATOM     24  N   UNL     1      -6.612   5.317 133.150  0.00  0.00    +0.000 NA
ATOM     25  C   UNL     1      -7.517   5.059 132.183  0.00  0.00    +0.000 A 
BRANCH  23  26
ATOM     26  O   UNL     1      -5.950   5.291 135.319  0.00  0.00    +0.000 OA
ATOM     27  C   UNL     1      -4.757   4.521 135.270  0.00  0.00    +0.000 C 
ENDBRANCH  23  26
ENDBRANCH   5  20
BRANCH   1  28
ATOM     28  C   UNL     1     -10.985   6.396 131.743  0.00  0.00    +0.000 C 
BRANCH  28  30
ATOM     29  C   UNL     1     -12.843   7.648 131.028  0.00  0.00    +0.000 C 
ATOM     30  O   UNL     1     -12.395   6.583 131.868  0.00  0.00    +0.000 OA
ENDBRANCH  28  30
ENDBRANCH   1  28
TORSDOF 6
ENDMDL
