MODEL 1
REMARK VINA RESULT:      -8.0      0.000      0.000
REMARK  Name = CHEMBL2037516
REMARK  13 active torsions:
REMARK  status: ('A' for Active; 'I' for Inactive)
REMARK    1  A    between atoms: C_1  and  C_2
REMARK    2  A    between atoms: C_2  and  C_3
REMARK    3  A    between atoms: C_3  and  C_4
REMARK    4  A    between atoms: C_3  and  C_6
REMARK    5  A    between atoms: C_4  and  C_5
REMARK    6  A    between atoms: C_10  and  C_11
REMARK    7  A    between atoms: N_22  and  C_23
REMARK    8  A    between atoms: C_23  and  C_24
REMARK    9  A    between atoms: C_23  and  C_29
REMARK   10  A    between atoms: N_26  and  C_27
REMARK   11  A    between atoms: N_26  and  C_28
REMARK   12  A    between atoms: C_32  and  C_33
REMARK   13  A    between atoms: C_35  and  C_36
REMARK                            x       y       z     vdW  Elec       q    Type
REMARK                         _______ _______ _______ _____ _____    ______ ____
ROOT
ATOM      1  C   UNK A   2      -7.912   5.293 129.929  0.00  0.00    +0.000 C 
ATOM      2  C   UNK A   2      -8.549   6.595 130.471  0.00  0.00    +0.000 C 
ATOM      3  O   UNK A   2      -8.004   7.657 130.732  0.00  0.00    +0.000 OA
ATOM      4  N   UNK A   1      -9.887   6.589 130.548  0.00  0.00    +0.000 N 
ATOM      5  C   UNK A   1     -10.650   5.627 129.823  0.00  0.00    +0.000 C 
ATOM      6  C   UNK A   1     -10.200   4.232 130.244  0.00  0.00    +0.000 C 
ATOM      7  O   UNK A   1     -11.068   3.372 130.320  0.00  0.00    +0.000 OA
ATOM      8  N   UNK A   2      -8.820   4.063 130.457  0.00  0.00    +0.000 N 
ATOM      9  H   UNK A   1     -10.264   7.484 130.840  0.00  0.00    +0.000 HD
ENDROOT
BRANCH   5  10
ATOM     10  C   UNK A   1     -12.138   5.742 130.163  0.00  0.00    +0.000 C 
ATOM     11  C   UNK A   1     -12.996   6.114 128.948  0.00  0.00    +0.000 C 
ATOM     12  C   UNK A   1     -13.139   7.598 129.103  0.00  0.00    +0.000 A 
ATOM     13  C   UNK A   1     -13.541   8.514 128.150  0.00  0.00    +0.000 A 
ATOM     14  C   UNK A   1     -13.568   9.866 128.500  0.00  0.00    +0.000 A 
ATOM     15  C   UNK A   1     -13.195  10.285 129.786  0.00  0.00    +0.000 A 
ATOM     16  C   UNK A   1     -12.791   9.355 130.744  0.00  0.00    +0.000 A 
ATOM     17  C   UNK A   1     -12.779   8.015 130.389  0.00  0.00    +0.000 A 
ATOM     18  C   UNK A   1     -12.384   6.848 131.236  0.00  0.00    +0.000 C 
ENDBRANCH   5  10
BRANCH   1  19
ATOM     19  C   UNK A   2      -6.413   5.317 130.377  0.00  0.00    +0.000 C 
BRANCH  19  21
ATOM     20  C   UNK A   2      -4.000   5.596 128.803  0.00  0.00    +0.000 C 
ATOM     21  C   UNK A   2      -5.341   4.826 129.219  0.00  0.00    +0.000 C 
ENDBRANCH  19  21
BRANCH  19  22
ATOM     22  C   UNK A   2      -5.869   6.305 131.543  0.00  0.00    +0.000 C 
ATOM     23  C   UNK A   2      -4.685   5.955 132.473  0.00  0.00    +0.000 C 
ENDBRANCH  19  22
ENDBRANCH   1  19
BRANCH   8  24
ATOM     24  C   UNK A   0      -8.322   2.783 131.253  0.00  0.00    +0.000 C 
BRANCH  24  25
ATOM     25  C   UNK A   0      -7.352   3.056 132.503  0.00  0.00    +0.000 A 
ATOM     26  C   UNK A   0      -6.064   2.461 132.604  0.00  0.00    +0.000 A 
ATOM     27  C   UNK A   0      -5.323   2.522 133.803  0.00  0.00    +0.000 A 
ATOM     28  C   UNK A   0      -5.819   3.273 134.846  0.00  0.00    +0.000 A 
ATOM     29  C   UNK A   0      -5.186   3.495 136.163  0.00  0.00    +0.000 C 
ATOM     30  N   UNK A   0      -6.946   3.953 134.737  0.00  0.00    +0.000 NA
ATOM     31  C   UNK A   0      -7.668   3.861 133.614  0.00  0.00    +0.000 A 
ATOM     32  C   UNK A   0      -8.842   4.723 133.804  0.00  0.00    +0.000 C 
ENDBRANCH  24  25
BRANCH  24  33
ATOM     33  C   UNK A   0      -7.662   1.605 130.231  0.00  0.00    +0.000 C 
ATOM     34  O   UNK A   0      -7.043   1.817 129.247  0.00  0.00    +0.000 OA
ATOM     35  N   UNK A   0      -7.864   0.252 130.387  0.00  0.00    +0.000 N 
ATOM     36  C   UNK A   0      -8.633  -0.295 131.385  0.00  0.00    +0.000 C 
ATOM     37  C   UNK A   0      -7.482  -0.676 129.326  0.00  0.00    +0.000 C 
ENDBRANCH  24  33
ENDBRANCH   8  24
TORSDOF 7
ENDMDL
MODEL 2
REMARK VINA RESULT:      -7.9      2.210      3.922
REMARK  Name = CHEMBL2037516
REMARK  13 active torsions:
REMARK  status: ('A' for Active; 'I' for Inactive)
REMARK    1  A    between atoms: C_1  and  C_2
REMARK    2  A    between atoms: C_2  and  C_3
REMARK    3  A    between atoms: C_3  and  C_4
REMARK    4  A    between atoms: C_3  and  C_6
REMARK    5  A    between atoms: C_4  and  C_5
REMARK    6  A    between atoms: C_10  and  C_11
REMARK    7  A    between atoms: N_22  and  C_23
REMARK    8  A    between atoms: C_23  and  C_24
REMARK    9  A    between atoms: C_23  and  C_29
REMARK   10  A    between atoms: N_26  and  C_27
REMARK   11  A    between atoms: N_26  and  C_28
REMARK   12  A    between atoms: C_32  and  C_33
REMARK   13  A    between atoms: C_35  and  C_36
REMARK                            x       y       z     vdW  Elec       q    Type
REMARK                         _______ _______ _______ _____ _____    ______ ____
ROOT
ATOM      1  C   UNK A   2      -7.335   3.231 130.095  0.00  0.00    +0.000 C 
ATOM      2  C   UNK A   2      -7.654   4.358 129.083  0.00  0.00    +0.000 C 
ATOM      3  O   UNK A   2      -7.327   4.439 127.908  0.00  0.00    +0.000 OA
ATOM      4  N   UNK A   1      -8.496   5.303 129.523  0.00  0.00    +0.000 N 
ATOM      5  C   UNK A   1      -9.320   5.065 130.662  0.00  0.00    +0.000 C 
ATOM      6  C   UNK A   1      -8.424   4.718 131.846  0.00  0.00    +0.000 C 
ATOM      7  O   UNK A   1      -8.770   5.138 132.943  0.00  0.00    +0.000 OA
ATOM      8  N   UNK A   2      -7.310   3.906 131.565  0.00  0.00    +0.000 N 
ATOM      9  H   UNK A   1      -8.731   5.979 128.805  0.00  0.00    +0.000 HD
ENDROOT
BRANCH   5  10
ATOM     10  C   UNK A   1     -10.102   6.324 131.043  0.00  0.00    +0.000 C 
ATOM     11  C   UNK A   1     -11.618   6.144 130.905  0.00  0.00    +0.000 C 
ATOM     12  C   UNK A   1     -11.885   6.733 129.553  0.00  0.00    +0.000 A 
ATOM     13  C   UNK A   1     -13.011   6.573 128.768  0.00  0.00    +0.000 A 
ATOM     14  C   UNK A   1     -13.037   7.187 127.513  0.00  0.00    +0.000 A 
ATOM     15  C   UNK A   1     -11.947   7.944 127.059  0.00  0.00    +0.000 A 
ATOM     16  C   UNK A   1     -10.814   8.103 127.858  0.00  0.00    +0.000 A 
ATOM     17  C   UNK A   1     -10.804   7.499 129.105  0.00  0.00    +0.000 A 
ATOM     18  C   UNK A   1      -9.712   7.525 130.125  0.00  0.00    +0.000 C 
ENDBRANCH   5  10
BRANCH   1  19
ATOM     19  C   UNK A   2      -6.016   2.553 129.598  0.00  0.00    +0.000 C 
BRANCH  19  21
ATOM     20  C   UNK A   2      -7.530   0.110 129.250  0.00  0.00    +0.000 C 
ATOM     21  C   UNK A   2      -6.169   0.954 129.208  0.00  0.00    +0.000 C 
ENDBRANCH  19  21
BRANCH  19  22
ATOM     22  C   UNK A   2      -4.816   3.392 128.900  0.00  0.00    +0.000 C 
ATOM     23  C   UNK A   2      -3.475   2.758 128.464  0.00  0.00    +0.000 C 
ENDBRANCH  19  22
ENDBRANCH   1  19
BRANCH   8  24
ATOM     24  C   UNK A   0      -6.139   3.819 132.634  0.00  0.00    +0.000 C 
BRANCH  24  25
ATOM     25  C   UNK A   0      -4.729   4.449 132.197  0.00  0.00    +0.000 A 
ATOM     26  C   UNK A   0      -3.511   3.722 132.302  0.00  0.00    +0.000 A 
ATOM     27  C   UNK A   0      -2.263   4.359 132.136  0.00  0.00    +0.000 A 
ATOM     28  C   UNK A   0      -2.245   5.682 131.752  0.00  0.00    +0.000 A 
ATOM     29  C   UNK A   0      -1.054   6.517 131.490  0.00  0.00    +0.000 C 
ATOM     30  N   UNK A   0      -3.359   6.349 131.509  0.00  0.00    +0.000 NA
ATOM     31  C   UNK A   0      -4.542   5.756 131.707  0.00  0.00    +0.000 A 
ATOM     32  C   UNK A   0      -5.567   6.746 131.351  0.00  0.00    +0.000 C 
ENDBRANCH  24  25
BRANCH  24  33
ATOM     33  C   UNK A   0      -5.931   2.249 133.235  0.00  0.00    +0.000 C 
ATOM     34  O   UNK A   0      -6.168   1.251 132.649  0.00  0.00    +0.000 OA
ATOM     35  N   UNK A   0      -5.550   1.966 134.528  0.00  0.00    +0.000 N 
ATOM     36  C   UNK A   0      -5.306   2.926 135.479  0.00  0.00    +0.000 C 
ATOM     37  C   UNK A   0      -5.644   0.602 135.040  0.00  0.00    +0.000 C 
ENDBRANCH  24  33
ENDBRANCH   8  24
TORSDOF 7
ENDMDL
MODEL 3
REMARK VINA RESULT:      -7.9      2.264      4.336
REMARK  Name = CHEMBL2037516
REMARK  13 active torsions:
REMARK  status: ('A' for Active; 'I' for Inactive)
REMARK    1  A    between atoms: C_1  and  C_2
REMARK    2  A    between atoms: C_2  and  C_3
REMARK    3  A    between atoms: C_3  and  C_4
REMARK    4  A    between atoms: C_3  and  C_6
REMARK    5  A    between atoms: C_4  and  C_5
REMARK    6  A    between atoms: C_10  and  C_11
REMARK    7  A    between atoms: N_22  and  C_23
REMARK    8  A    between atoms: C_23  and  C_24
REMARK    9  A    between atoms: C_23  and  C_29
REMARK   10  A    between atoms: N_26  and  C_27
REMARK   11  A    between atoms: N_26  and  C_28
REMARK   12  A    between atoms: C_32  and  C_33
REMARK   13  A    between atoms: C_35  and  C_36
REMARK                            x       y       z     vdW  Elec       q    Type
REMARK                         _______ _______ _______ _____ _____    ______ ____
ROOT
ATOM      1  C   UNK A   2      -6.451   5.865 132.449  0.00  0.00    +0.000 C 
ATOM      2  C   UNK A   2      -7.913   5.848 132.954  0.00  0.00    +0.000 C 
ATOM      3  O   UNK A   2      -8.334   6.095 134.075  0.00  0.00    +0.000 OA
ATOM      4  N   UNK A   1      -8.844   5.654 132.009  0.00  0.00    +0.000 N 
ATOM      5  C   UNK A   1      -8.529   5.849 130.632  0.00  0.00    +0.000 C 
ATOM      6  C   UNK A   1      -7.364   4.937 130.266  0.00  0.00    +0.000 C 
ATOM      7  O   UNK A   1      -7.384   4.437 129.148  0.00  0.00    +0.000 OA
ATOM      8  N   UNK A   2      -6.354   4.800 131.236  0.00  0.00    +0.000 N 
ATOM      9  H   UNK A   1      -9.788   5.722 132.373  0.00  0.00    +0.000 HD
ENDROOT
BRANCH   5  10
ATOM     10  C   UNK A   1      -9.708   5.453 129.741  0.00  0.00    +0.000 C 
ATOM     11  C   UNK A   1     -10.018   6.502 128.667  0.00  0.00    +0.000 C 
ATOM     12  C   UNK A   1     -11.128   7.285 129.299  0.00  0.00    +0.000 A 
ATOM     13  C   UNK A   1     -11.597   8.533 128.938  0.00  0.00    +0.000 A 
ATOM     14  C   UNK A   1     -12.626   9.100 129.693  0.00  0.00    +0.000 A 
ATOM     15  C   UNK A   1     -13.169   8.421 130.794  0.00  0.00    +0.000 A 
ATOM     16  C   UNK A   1     -12.693   7.160 131.153  0.00  0.00    +0.000 A 
ATOM     17  C   UNK A   1     -11.680   6.603 130.389  0.00  0.00    +0.000 A 
ATOM     18  C   UNK A   1     -11.012   5.279 130.581  0.00  0.00    +0.000 C 
ENDBRANCH   5  10
BRANCH   1  19
ATOM     19  C   UNK A   2      -5.550   5.605 133.701  0.00  0.00    +0.000 C 
BRANCH  19  21
ATOM     20  C   UNK A   2      -5.430   3.864 136.011  0.00  0.00    +0.000 C 
ATOM     21  C   UNK A   2      -5.894   4.210 134.517  0.00  0.00    +0.000 C 
ENDBRANCH  19  21
BRANCH  19  22
ATOM     22  C   UNK A   2      -4.052   6.213 133.838  0.00  0.00    +0.000 C 
ATOM     23  C   UNK A   2      -2.771   5.351 133.759  0.00  0.00    +0.000 C 
ENDBRANCH  19  22
ENDBRANCH   1  19
BRANCH   8  24
ATOM     24  C   UNK A   0      -5.325   3.598 131.102  0.00  0.00    +0.000 C 
BRANCH  24  25
ATOM     25  C   UNK A   0      -4.484   3.530 129.737  0.00  0.00    +0.000 A 
ATOM     26  C   UNK A   0      -4.685   2.502 128.775  0.00  0.00    +0.000 A 
ATOM     27  C   UNK A   0      -3.790   2.322 127.699  0.00  0.00    +0.000 A 
ATOM     28  C   UNK A   0      -2.774   3.237 127.528  0.00  0.00    +0.000 A 
ATOM     29  C   UNK A   0      -1.760   3.251 126.452  0.00  0.00    +0.000 C 
ATOM     30  N   UNK A   0      -2.642   4.285 128.322  0.00  0.00    +0.000 NA
ATOM     31  C   UNK A   0      -3.467   4.432 129.366  0.00  0.00    +0.000 A 
ATOM     32  C   UNK A   0      -3.067   5.675 130.038  0.00  0.00    +0.000 C 
ENDBRANCH  24  25
BRANCH  24  33
ATOM     33  C   UNK A   0      -6.038   2.099 131.439  0.00  0.00    +0.000 C 
ATOM     34  O   UNK A   0      -7.159   1.803 131.209  0.00  0.00    +0.000 OA
ATOM     35  N   UNK A   0      -5.404   1.082 132.118  0.00  0.00    +0.000 N 
ATOM     36  C   UNK A   0      -4.124   1.173 132.607  0.00  0.00    +0.000 C 
ATOM     37  C   UNK A   0      -6.165  -0.071 132.593  0.00  0.00    +0.000 C 
ENDBRANCH  24  33
ENDBRANCH   8  24
TORSDOF 7
ENDMDL
MODEL 4
REMARK VINA RESULT:      -7.9      2.029      4.047
REMARK  Name = CHEMBL2037516
REMARK  13 active torsions:
REMARK  status: ('A' for Active; 'I' for Inactive)
REMARK    1  A    between atoms: C_1  and  C_2
REMARK    2  A    between atoms: C_2  and  C_3
REMARK    3  A    between atoms: C_3  and  C_4
REMARK    4  A    between atoms: C_3  and  C_6
REMARK    5  A    between atoms: C_4  and  C_5
REMARK    6  A    between atoms: C_10  and  C_11
REMARK    7  A    between atoms: N_22  and  C_23
REMARK    8  A    between atoms: C_23  and  C_24
REMARK    9  A    between atoms: C_23  and  C_29
REMARK   10  A    between atoms: N_26  and  C_27
REMARK   11  A    between atoms: N_26  and  C_28
REMARK   12  A    between atoms: C_32  and  C_33
REMARK   13  A    between atoms: C_35  and  C_36
REMARK                            x       y       z     vdW  Elec       q    Type
REMARK                         _______ _______ _______ _____ _____    ______ ____
ROOT
ATOM      1  C   UNK A   2      -7.762   3.471 130.188  0.00  0.00    +0.000 C 
ATOM      2  C   UNK A   2      -8.383   4.159 128.949  0.00  0.00    +0.000 C 
ATOM      3  O   UNK A   2      -8.446   3.745 127.801  0.00  0.00    +0.000 OA
ATOM      4  N   UNK A   1      -9.041   5.301 129.195  0.00  0.00    +0.000 N 
ATOM      5  C   UNK A   1      -9.461   5.622 130.520  0.00  0.00    +0.000 C 
ATOM      6  C   UNK A   1      -8.236   5.640 131.428  0.00  0.00    +0.000 C 
ATOM      7  O   UNK A   1      -8.216   6.487 132.312  0.00  0.00    +0.000 OA
ATOM      8  N   UNK A   2      -7.271   4.645 131.187  0.00  0.00    +0.000 N 
ATOM      9  H   UNK A   1      -9.490   5.678 128.369  0.00  0.00    +0.000 HD
ENDROOT
BRANCH   5  10
ATOM     10  C   UNK A   1     -10.079   7.022 130.572  0.00  0.00    +0.000 C 
ATOM     11  C   UNK A   1     -11.591   6.992 130.826  0.00  0.00    +0.000 C 
ATOM     12  C   UNK A   1     -12.147   7.108 129.439  0.00  0.00    +0.000 A 
ATOM     13  C   UNK A   1     -13.432   6.827 129.016  0.00  0.00    +0.000 A 
ATOM     14  C   UNK A   1     -13.731   6.971 127.659  0.00  0.00    +0.000 A 
ATOM     15  C   UNK A   1     -12.750   7.388 126.746  0.00  0.00    +0.000 A 
ATOM     16  C   UNK A   1     -11.454   7.672 127.180  0.00  0.00    +0.000 A 
ATOM     17  C   UNK A   1     -11.174   7.536 128.530  0.00  0.00    +0.000 A 
ATOM     18  C   UNK A   1      -9.871   7.777 129.222  0.00  0.00    +0.000 C 
ENDBRANCH   5  10
BRANCH   1  19
ATOM     19  C   UNK A   2      -6.670   2.491 129.647  0.00  0.00    +0.000 C 
BRANCH  19  21
ATOM     20  C   UNK A   2      -7.751   0.313 128.076  0.00  0.00    +0.000 C 
ATOM     21  C   UNK A   2      -7.184   0.935 129.440  0.00  0.00    +0.000 C 
ENDBRANCH  19  21
BRANCH  19  22
ATOM     22  C   UNK A   2      -5.410   2.998 128.759  0.00  0.00    +0.000 C 
ATOM     23  C   UNK A   2      -4.036   2.288 128.747  0.00  0.00    +0.000 C 
ENDBRANCH  19  22
ENDBRANCH   1  19
BRANCH   8  24
ATOM     24  C   UNK A   0      -5.821   4.821 131.811  0.00  0.00    +0.000 C 
BRANCH  24  25
ATOM     25  C   UNK A   0      -5.750   5.009 133.403  0.00  0.00    +0.000 A 
ATOM     26  C   UNK A   0      -5.115   6.131 134.005  0.00  0.00    +0.000 A 
ATOM     27  C   UNK A   0      -4.858   6.168 135.391  0.00  0.00    +0.000 A 
ATOM     28  C   UNK A   0      -5.339   5.145 136.178  0.00  0.00    +0.000 A 
ATOM     29  C   UNK A   0      -5.211   5.013 137.645  0.00  0.00    +0.000 C 
ATOM     30  N   UNK A   0      -6.054   4.157 135.671  0.00  0.00    +0.000 NA
ATOM     31  C   UNK A   0      -6.263   4.101 134.350  0.00  0.00    +0.000 A 
ATOM     32  C   UNK A   0      -7.081   2.906 134.110  0.00  0.00    +0.000 C 
ENDBRANCH  24  25
BRANCH  24  33
ATOM     33  C   UNK A   0      -4.925   6.026 131.027  0.00  0.00    +0.000 C 
ATOM     34  O   UNK A   0      -5.368   7.007 130.539  0.00  0.00    +0.000 OA
ATOM     35  N   UNK A   0      -3.572   5.941 130.784  0.00  0.00    +0.000 N 
ATOM     36  C   UNK A   0      -2.798   4.864 131.141  0.00  0.00    +0.000 C 
ATOM     37  C   UNK A   0      -2.926   6.891 129.883  0.00  0.00    +0.000 C 
ENDBRANCH  24  33
ENDBRANCH   8  24
TORSDOF 7
ENDMDL
MODEL 5
REMARK VINA RESULT:      -7.9      2.766      7.457
REMARK  Name = CHEMBL2037516
REMARK  13 active torsions:
REMARK  status: ('A' for Active; 'I' for Inactive)
REMARK    1  A    between atoms: C_1  and  C_2
REMARK    2  A    between atoms: C_2  and  C_3
REMARK    3  A    between atoms: C_3  and  C_4
REMARK    4  A    between atoms: C_3  and  C_6
REMARK    5  A    between atoms: C_4  and  C_5
REMARK    6  A    between atoms: C_10  and  C_11
REMARK    7  A    between atoms: N_22  and  C_23
REMARK    8  A    between atoms: C_23  and  C_24
REMARK    9  A    between atoms: C_23  and  C_29
REMARK   10  A    between atoms: N_26  and  C_27
REMARK   11  A    between atoms: N_26  and  C_28
REMARK   12  A    between atoms: C_32  and  C_33
REMARK   13  A    between atoms: C_35  and  C_36
REMARK                            x       y       z     vdW  Elec       q    Type
REMARK                         _______ _______ _______ _____ _____    ______ ____
ROOT
ATOM      1  C   UNK A   2      -5.558   3.650 132.017  0.00  0.00    +0.000 C 
ATOM      2  C   UNK A   2      -5.093   4.790 132.953  0.00  0.00    +0.000 C 
ATOM      3  O   UNK A   2      -5.314   4.932 134.147  0.00  0.00    +0.000 OA
ATOM      4  N   UNK A   1      -4.239   5.668 132.409  0.00  0.00    +0.000 N 
ATOM      5  C   UNK A   1      -3.529   5.342 131.216  0.00  0.00    +0.000 C 
ATOM      6  C   UNK A   1      -4.540   5.008 130.124  0.00  0.00    +0.000 C 
ATOM      7  O   UNK A   1      -4.263   5.369 128.987  0.00  0.00    +0.000 OA
ATOM      8  N   UNK A   2      -5.669   4.273 130.528  0.00  0.00    +0.000 N 
ATOM      9  H   UNK A   1      -3.906   6.354 133.077  0.00  0.00    +0.000 HD
ENDROOT
BRANCH   5  10
ATOM     10  C   UNK A   1      -2.712   6.539 130.722  0.00  0.00    +0.000 C 
ATOM     11  C   UNK A   1      -1.219   6.413 131.049  0.00  0.00    +0.000 C 
ATOM     12  C   UNK A   1      -1.102   7.215 132.309  0.00  0.00    +0.000 A 
ATOM     13  C   UNK A   1      -0.068   7.205 133.225  0.00  0.00    +0.000 A 
ATOM     14  C   UNK A   1      -0.179   8.013 134.360  0.00  0.00    +0.000 A 
ATOM     15  C   UNK A   1      -1.314   8.812 134.566  0.00  0.00    +0.000 A 
ATOM     16  C   UNK A   1      -2.354   8.819 133.636  0.00  0.00    +0.000 A 
ATOM     17  C   UNK A   1      -2.226   8.023 132.509  0.00  0.00    +0.000 A 
ATOM     18  C   UNK A   1      -3.201   7.864 131.387  0.00  0.00    +0.000 C 
ENDBRANCH   5  10
BRANCH   1  19
ATOM     19  C   UNK A   2      -6.866   3.069 132.646  0.00  0.00    +0.000 C 
BRANCH  19  21
ATOM     20  C   UNK A   2      -8.170   0.507 132.300  0.00  0.00    +0.000 C 
ATOM     21  C   UNK A   2      -6.921   1.419 132.719  0.00  0.00    +0.000 C 
ENDBRANCH  19  21
BRANCH  19  22
ATOM     22  C   UNK A   2      -7.768   3.904 133.706  0.00  0.00    +0.000 C 
ATOM     23  C   UNK A   2      -9.300   3.740 133.837  0.00  0.00    +0.000 C 
ENDBRANCH  19  22
ENDBRANCH   1  19
BRANCH   8  24
ATOM     24  C   UNK A   0      -6.929   4.219 129.563  0.00  0.00    +0.000 C 
BRANCH  24  25
ATOM     25  C   UNK A   0      -8.321   4.724 130.183  0.00  0.00    +0.000 A 
ATOM     26  C   UNK A   0      -9.500   3.929 130.141  0.00  0.00    +0.000 A 
ATOM     27  C   UNK A   0     -10.759   4.470 130.476  0.00  0.00    +0.000 A 
ATOM     28  C   UNK A   0     -10.814   5.759 130.960  0.00  0.00    +0.000 A 
ATOM     29  C   UNK A   0     -12.018   6.495 131.400  0.00  0.00    +0.000 C 
ATOM     30  N   UNK A   0      -9.721   6.478 131.144  0.00  0.00    +0.000 NA
ATOM     31  C   UNK A   0      -8.532   5.978 130.787  0.00  0.00    +0.000 A 
ATOM     32  C   UNK A   0      -7.535   7.005 131.116  0.00  0.00    +0.000 C 
ENDBRANCH  24  25
BRANCH  24  33
ATOM     33  C   UNK A   0      -7.116   2.703 128.833  0.00  0.00    +0.000 C 
ATOM     34  O   UNK A   0      -6.881   1.661 129.339  0.00  0.00    +0.000 OA
ATOM     35  N   UNK A   0      -7.474   2.523 127.515  0.00  0.00    +0.000 N 
ATOM     36  C   UNK A   0      -7.710   3.557 126.641  0.00  0.00    +0.000 C 
ATOM     37  C   UNK A   0      -7.362   1.206 126.895  0.00  0.00    +0.000 C 
ENDBRANCH  24  33
ENDBRANCH   8  24
TORSDOF 7
ENDMDL
MODEL 6
REMARK VINA RESULT:      -7.9      4.124      8.186
REMARK  Name = CHEMBL2037516
REMARK  13 active torsions:
REMARK  status: ('A' for Active; 'I' for Inactive)
REMARK    1  A    between atoms: C_1  and  C_2
REMARK    2  A    between atoms: C_2  and  C_3
REMARK    3  A    between atoms: C_3  and  C_4
REMARK    4  A    between atoms: C_3  and  C_6
REMARK    5  A    between atoms: C_4  and  C_5
REMARK    6  A    between atoms: C_10  and  C_11
REMARK    7  A    between atoms: N_22  and  C_23
REMARK    8  A    between atoms: C_23  and  C_24
REMARK    9  A    between atoms: C_23  and  C_29
REMARK   10  A    between atoms: N_26  and  C_27
REMARK   11  A    between atoms: N_26  and  C_28
REMARK   12  A    between atoms: C_32  and  C_33
REMARK   13  A    between atoms: C_35  and  C_36
REMARK                            x       y       z     vdW  Elec       q    Type
REMARK                         _______ _______ _______ _____ _____    ______ ____
ROOT
ATOM      1  C   UNK A   2      -7.181  -0.794 129.196  0.00  0.00    +0.000 C 
ATOM      2  C   UNK A   2      -7.974  -0.525 130.498  0.00  0.00    +0.000 C 
ATOM      3  O   UNK A   2      -8.051  -1.222 131.499  0.00  0.00    +0.000 OA
ATOM      4  N   UNK A   1      -8.552   0.682 130.580  0.00  0.00    +0.000 N 
ATOM      5  C   UNK A   1      -8.132   1.744 129.725  0.00  0.00    +0.000 C 
ATOM      6  C   UNK A   1      -8.298   1.297 128.277  0.00  0.00    +0.000 C 
ATOM      7  O   UNK A   1      -8.663   2.147 127.475  0.00  0.00    +0.000 OA
ATOM      8  N   UNK A   2      -7.966  -0.041 127.998  0.00  0.00    +0.000 N 
ATOM      9  H   UNK A   1      -8.999   0.839 131.476  0.00  0.00    +0.000 HD
ENDROOT
BRANCH   5  10
ATOM     10  C   UNK A   1      -9.014   2.980 129.918  0.00  0.00    +0.000 C 
ATOM     11  C   UNK A   1      -8.199   4.262 130.125  0.00  0.00    +0.000 C 
ATOM     12  C   UNK A   1      -8.185   4.391 131.617  0.00  0.00    +0.000 A 
ATOM     13  C   UNK A   1      -7.349   5.173 132.391  0.00  0.00    +0.000 A 
ATOM     14  C   UNK A   1      -7.484   5.115 133.780  0.00  0.00    +0.000 A 
ATOM     15  C   UNK A   1      -8.442   4.282 134.377  0.00  0.00    +0.000 A 
ATOM     16  C   UNK A   1      -9.284   3.495 133.590  0.00  0.00    +0.000 A 
ATOM     17  C   UNK A   1      -9.148   3.570 132.212  0.00  0.00    +0.000 A 
ATOM     18  C   UNK A   1      -9.927   2.827 131.175  0.00  0.00    +0.000 C 
ENDBRANCH   5  10
BRANCH   1  19
ATOM     19  C   UNK A   2      -7.030  -2.347 129.086  0.00  0.00    +0.000 C 
BRANCH  19  21
ATOM     20  C   UNK A   2      -5.268  -4.256 130.364  0.00  0.00    +0.000 C 
ATOM     21  C   UNK A   2      -5.543  -2.925 129.516  0.00  0.00    +0.000 C 
ENDBRANCH  19  21
BRANCH  19  22
ATOM     22  C   UNK A   2      -8.296  -3.355 129.197  0.00  0.00    +0.000 C 
ATOM     23  C   UNK A   2      -8.929  -4.066 127.978  0.00  0.00    +0.000 C 
ENDBRANCH  19  22
ENDBRANCH   1  19
BRANCH   8  24
ATOM     24  C   UNK A   0      -8.465  -0.684 126.634  0.00  0.00    +0.000 C 
BRANCH  24  25
ATOM     25  C   UNK A   0      -7.374  -1.514 125.798  0.00  0.00    +0.000 A 
ATOM     26  C   UNK A   0      -5.977  -1.309 125.967  0.00  0.00    +0.000 A 
ATOM     27  C   UNK A   0      -5.043  -1.871 125.071  0.00  0.00    +0.000 A 
ATOM     28  C   UNK A   0      -5.501  -2.724 124.091  0.00  0.00    +0.000 A 
ATOM     29  C   UNK A   0      -4.691  -3.441 123.083  0.00  0.00    +0.000 C 
ATOM     30  N   UNK A   0      -6.778  -3.046 123.993  0.00  0.00    +0.000 NA
ATOM     31  C   UNK A   0      -7.669  -2.481 124.818  0.00  0.00    +0.000 A 
ATOM     32  C   UNK A   0      -8.978  -3.040 124.460  0.00  0.00    +0.000 C 
ENDBRANCH  24  25
BRANCH  24  33
ATOM     33  C   UNK A   0      -9.249   0.441 125.641  0.00  0.00    +0.000 C 
ATOM     34  O   UNK A   0     -10.419   0.565 125.531  0.00  0.00    +0.000 OA
ATOM     35  N   UNK A   0      -8.595   1.281 124.766  0.00  0.00    +0.000 N 
ATOM     36  C   UNK A   0      -7.233   1.292 124.593  0.00  0.00    +0.000 C 
ATOM     37  C   UNK A   0      -9.349   2.032 123.766  0.00  0.00    +0.000 C 
ENDBRANCH  24  33
ENDBRANCH   8  24
TORSDOF 7
ENDMDL
MODEL 7
REMARK VINA RESULT:      -7.8      2.842      7.611
REMARK  Name = CHEMBL2037516
REMARK  13 active torsions:
REMARK  status: ('A' for Active; 'I' for Inactive)
REMARK    1  A    between atoms: C_1  and  C_2
REMARK    2  A    between atoms: C_2  and  C_3
REMARK    3  A    between atoms: C_3  and  C_4
REMARK    4  A    between atoms: C_3  and  C_6
REMARK    5  A    between atoms: C_4  and  C_5
REMARK    6  A    between atoms: C_10  and  C_11
REMARK    7  A    between atoms: N_22  and  C_23
REMARK    8  A    between atoms: C_23  and  C_24
REMARK    9  A    between atoms: C_23  and  C_29
REMARK   10  A    between atoms: N_26  and  C_27
REMARK   11  A    between atoms: N_26  and  C_28
REMARK   12  A    between atoms: C_32  and  C_33
REMARK   13  A    between atoms: C_35  and  C_36
REMARK                            x       y       z     vdW  Elec       q    Type
REMARK                         _______ _______ _______ _____ _____    ______ ____
ROOT
ATOM      1  C   UNK A   2      -8.443   2.616 130.914  0.00  0.00    +0.000 C 
ATOM      2  C   UNK A   2      -8.911   1.192 131.301  0.00  0.00    +0.000 C 
ATOM      3  O   UNK A   2      -9.951   0.857 131.849  0.00  0.00    +0.000 OA
ATOM      4  N   UNK A   1      -8.127   0.193 130.872  0.00  0.00    +0.000 N 
ATOM      5  C   UNK A   1      -7.184   0.413 129.824  0.00  0.00    +0.000 C 
ATOM      6  C   UNK A   1      -6.241   1.534 130.246  0.00  0.00    +0.000 C 
ATOM      7  O   UNK A   1      -5.069   1.426 129.908  0.00  0.00    +0.000 OA
ATOM      8  N   UNK A   2      -6.825   2.607 130.942  0.00  0.00    +0.000 N 
ATOM      9  H   UNK A   1      -8.509  -0.721 131.086  0.00  0.00    +0.000 HD
ENDROOT
BRANCH   5  10
ATOM     10  C   UNK A   1      -6.327  -0.834 129.592  0.00  0.00    +0.000 C 
ATOM     11  C   UNK A   1      -6.103  -1.130 128.104  0.00  0.00    +0.000 C 
ATOM     12  C   UNK A   1      -7.160  -2.153 127.822  0.00  0.00    +0.000 A 
ATOM     13  C   UNK A   1      -7.639  -2.559 126.592  0.00  0.00    +0.000 A 
ATOM     14  C   UNK A   1      -8.662  -3.509 126.558  0.00  0.00    +0.000 A 
ATOM     15  C   UNK A   1      -9.193  -4.038 127.744  0.00  0.00    +0.000 A 
ATOM     16  C   UNK A   1      -8.703  -3.626 128.984  0.00  0.00    +0.000 A 
ATOM     17  C   UNK A   1      -7.681  -2.692 129.004  0.00  0.00    +0.000 A 
ATOM     18  C   UNK A   1      -7.005  -2.101 130.200  0.00  0.00    +0.000 C 
ENDBRANCH   5  10
BRANCH   1  19
ATOM     19  C   UNK A   2      -9.169   3.599 131.890  0.00  0.00    +0.000 C 
BRANCH  19  21
ATOM     20  C   UNK A   2     -10.810   5.958 131.537  0.00  0.00    +0.000 C 
ATOM     21  C   UNK A   2     -10.423   4.437 131.215  0.00  0.00    +0.000 C 
ENDBRANCH  19  21
BRANCH  19  22
ATOM     22  C   UNK A   2      -9.183   3.377 133.497  0.00  0.00    +0.000 C 
ATOM     23  C   UNK A   2      -8.430   4.291 134.491  0.00  0.00    +0.000 C 
ENDBRANCH  19  22
ENDBRANCH   1  19
BRANCH   8  24
ATOM     24  C   UNK A   0      -5.881   3.605 131.740  0.00  0.00    +0.000 C 
BRANCH  24  25
ATOM     25  C   UNK A   0      -5.313   4.859 130.915  0.00  0.00    +0.000 A 
ATOM     26  C   UNK A   0      -4.144   4.768 130.110  0.00  0.00    +0.000 A 
ATOM     27  C   UNK A   0      -3.529   5.922 129.581  0.00  0.00    +0.000 A 
ATOM     28  C   UNK A   0      -4.149   7.139 129.760  0.00  0.00    +0.000 A 
ATOM     29  C   UNK A   0      -3.694   8.454 129.259  0.00  0.00    +0.000 C 
ATOM     30  N   UNK A   0      -5.309   7.242 130.383  0.00  0.00    +0.000 NA
ATOM     31  C   UNK A   0      -5.871   6.152 130.920  0.00  0.00    +0.000 A 
ATOM     32  C   UNK A   0      -7.132   6.594 131.529  0.00  0.00    +0.000 C 
ENDBRANCH  24  25
BRANCH  24  33
ATOM     33  C   UNK A   0      -4.626   2.800 132.542  0.00  0.00    +0.000 C 
ATOM     34  O   UNK A   0      -3.476   2.882 132.278  0.00  0.00    +0.000 OA
ATOM     35  N   UNK A   0      -4.822   1.872 133.540  0.00  0.00    +0.000 N 
ATOM     36  C   UNK A   0      -6.061   1.487 133.991  0.00  0.00    +0.000 C 
ATOM     37  C   UNK A   0      -3.714   1.038 133.998  0.00  0.00    +0.000 C 
ENDBRANCH  24  33
ENDBRANCH   8  24
TORSDOF 7
ENDMDL
MODEL 8
REMARK VINA RESULT:      -7.8      2.496      3.880
REMARK  Name = CHEMBL2037516
REMARK  13 active torsions:
REMARK  status: ('A' for Active; 'I' for Inactive)
REMARK    1  A    between atoms: C_1  and  C_2
REMARK    2  A    between atoms: C_2  and  C_3
REMARK    3  A    between atoms: C_3  and  C_4
REMARK    4  A    between atoms: C_3  and  C_6
REMARK    5  A    between atoms: C_4  and  C_5
REMARK    6  A    between atoms: C_10  and  C_11
REMARK    7  A    between atoms: N_22  and  C_23
REMARK    8  A    between atoms: C_23  and  C_24
REMARK    9  A    between atoms: C_23  and  C_29
REMARK   10  A    between atoms: N_26  and  C_27
REMARK   11  A    between atoms: N_26  and  C_28
REMARK   12  A    between atoms: C_32  and  C_33
REMARK   13  A    between atoms: C_35  and  C_36
REMARK                            x       y       z     vdW  Elec       q    Type
REMARK                         _______ _______ _______ _____ _____    ______ ____
ROOT
ATOM      1  C   UNK A   2      -7.208   2.840 128.514  0.00  0.00    +0.000 C 
ATOM      2  C   UNK A   2      -7.647   4.230 127.993  0.00  0.00    +0.000 C 
ATOM      3  O   UNK A   2      -7.486   4.711 126.881  0.00  0.00    +0.000 OA
ATOM      4  N   UNK A   1      -8.406   4.945 128.835  0.00  0.00    +0.000 N 
ATOM      5  C   UNK A   1      -9.066   4.311 129.929  0.00  0.00    +0.000 C 
ATOM      6  C   UNK A   1      -8.019   3.618 130.794  0.00  0.00    +0.000 C 
ATOM      7  O   UNK A   1      -8.203   3.635 132.005  0.00  0.00    +0.000 OA
ATOM      8  N   UNK A   2      -6.968   2.984 130.107  0.00  0.00    +0.000 N 
ATOM      9  H   UNK A   1      -8.728   5.814 128.426  0.00  0.00    +0.000 HD
ENDROOT
BRANCH   5  10
ATOM     10  C   UNK A   1      -9.768   5.344 130.814  0.00  0.00    +0.000 C 
ATOM     11  C   UNK A   1     -11.297   5.268 130.715  0.00  0.00    +0.000 C 
ATOM     12  C   UNK A   1     -11.603   6.339 129.714  0.00  0.00    +0.000 A 
ATOM     13  C   UNK A   1     -12.773   6.522 129.001  0.00  0.00    +0.000 A 
ATOM     14  C   UNK A   1     -12.833   7.573 128.083  0.00  0.00    +0.000 A 
ATOM     15  C   UNK A   1     -11.733   8.421 127.886  0.00  0.00    +0.000 A 
ATOM     16  C   UNK A   1     -10.555   8.232 128.610  0.00  0.00    +0.000 A 
ATOM     17  C   UNK A   1     -10.512   7.193 129.526  0.00  0.00    +0.000 A 
ATOM     18  C   UNK A   1      -9.370   6.797 130.406  0.00  0.00    +0.000 C 
ENDBRANCH   5  10
BRANCH   1  19
ATOM     19  C   UNK A   2      -5.981   2.412 127.643  0.00  0.00    +0.000 C 
BRANCH  19  21
ATOM     20  C   UNK A   2      -5.212   0.056 126.146  0.00  0.00    +0.000 C 
ATOM     21  C   UNK A   2      -6.278   1.161 126.606  0.00  0.00    +0.000 C 
ENDBRANCH  19  21
BRANCH  19  22
ATOM     22  C   UNK A   2      -4.777   3.434 127.273  0.00  0.00    +0.000 C 
ATOM     23  C   UNK A   2      -3.295   3.005 127.172  0.00  0.00    +0.000 C 
ENDBRANCH  19  22
ENDBRANCH   1  19
BRANCH   8  24
ATOM     24  C   UNK A   0      -5.661   2.583 130.914  0.00  0.00    +0.000 C 
BRANCH  24  25
ATOM     25  C   UNK A   0      -4.542   3.724 131.069  0.00  0.00    +0.000 A 
ATOM     26  C   UNK A   0      -4.554   4.907 130.279  0.00  0.00    +0.000 A 
ATOM     27  C   UNK A   0      -3.450   5.784 130.260  0.00  0.00    +0.000 A 
ATOM     28  C   UNK A   0      -2.397   5.537 131.114  0.00  0.00    +0.000 A 
ATOM     29  C   UNK A   0      -1.171   6.347 131.276  0.00  0.00    +0.000 C 
ATOM     30  N   UNK A   0      -2.415   4.524 131.963  0.00  0.00    +0.000 NA
ATOM     31  C   UNK A   0      -3.445   3.669 131.951  0.00  0.00    +0.000 A 
ATOM     32  C   UNK A   0      -3.170   2.675 132.995  0.00  0.00    +0.000 C 
ENDBRANCH  24  25
BRANCH  24  33
ATOM     33  C   UNK A   0      -4.971   1.143 130.349  0.00  0.00    +0.000 C 
ATOM     34  O   UNK A   0      -3.919   1.046 129.820  0.00  0.00    +0.000 OA
ATOM     35  N   UNK A   0      -5.616  -0.073 130.358  0.00  0.00    +0.000 N 
ATOM     36  C   UNK A   0      -6.898  -0.254 130.818  0.00  0.00    +0.000 C 
ATOM     37  C   UNK A   0      -5.061  -1.206 129.623  0.00  0.00    +0.000 C 
ENDBRANCH  24  33
ENDBRANCH   8  24
TORSDOF 7
ENDMDL
MODEL 9
REMARK VINA RESULT:      -7.8      2.965      4.723
REMARK  Name = CHEMBL2037516
REMARK  13 active torsions:
REMARK  status: ('A' for Active; 'I' for Inactive)
REMARK    1  A    between atoms: C_1  and  C_2
REMARK    2  A    between atoms: C_2  and  C_3
REMARK    3  A    between atoms: C_3  and  C_4
REMARK    4  A    between atoms: C_3  and  C_6
REMARK    5  A    between atoms: C_4  and  C_5
REMARK    6  A    between atoms: C_10  and  C_11
REMARK    7  A    between atoms: N_22  and  C_23
REMARK    8  A    between atoms: C_23  and  C_24
REMARK    9  A    between atoms: C_23  and  C_29
REMARK   10  A    between atoms: N_26  and  C_27
REMARK   11  A    between atoms: N_26  and  C_28
REMARK   12  A    between atoms: C_32  and  C_33
REMARK   13  A    between atoms: C_35  and  C_36
REMARK                            x       y       z     vdW  Elec       q    Type
REMARK                         _______ _______ _______ _____ _____    ______ ____
ROOT
ATOM      1  C   UNK A   2      -7.459   3.406 127.488  0.00  0.00    +0.000 C 
ATOM      2  C   UNK A   2      -8.329   4.626 127.099  0.00  0.00    +0.000 C 
ATOM      3  O   UNK A   2      -8.692   4.977 125.986  0.00  0.00    +0.000 OA
ATOM      4  N   UNK A   1      -8.847   5.313 128.128  0.00  0.00    +0.000 N 
ATOM      5  C   UNK A   1      -8.912   4.729 129.427  0.00  0.00    +0.000 C 
ATOM      6  C   UNK A   1      -7.503   4.334 129.855  0.00  0.00    +0.000 C 
ATOM      7  O   UNK A   1      -7.224   4.479 131.038  0.00  0.00    +0.000 OA
ATOM      8  N   UNK A   2      -6.679   3.794 128.851  0.00  0.00    +0.000 N 
ATOM      9  H   UNK A   1      -9.465   6.057 127.826  0.00  0.00    +0.000 HD
ENDROOT
BRANCH   5  10
ATOM     10  C   UNK A   1      -9.427   5.741 130.454  0.00  0.00    +0.000 C 
ATOM     11  C   UNK A   1     -10.920   5.568 130.760  0.00  0.00    +0.000 C 
ATOM     12  C   UNK A   1     -11.548   6.589 129.862  0.00  0.00    +0.000 A 
ATOM     13  C   UNK A   1     -12.872   6.680 129.479  0.00  0.00    +0.000 A 
ATOM     14  C   UNK A   1     -13.240   7.699 128.598  0.00  0.00    +0.000 A 
ATOM     15  C   UNK A   1     -12.288   8.608 128.110  0.00  0.00    +0.000 A 
ATOM     16  C   UNK A   1     -10.952   8.512 128.502  0.00  0.00    +0.000 A 
ATOM     17  C   UNK A   1     -10.602   7.504 129.386  0.00  0.00    +0.000 A 
ATOM     18  C   UNK A   1      -9.246   7.203 129.939  0.00  0.00    +0.000 C 
ENDBRANCH   5  10
BRANCH   1  19
ATOM     19  C   UNK A   2      -6.585   3.072 126.235  0.00  0.00    +0.000 C 
BRANCH  19  21
ATOM     20  C   UNK A   2      -8.416   1.936 124.302  0.00  0.00    +0.000 C 
ATOM     21  C   UNK A   2      -7.166   1.840 125.299  0.00  0.00    +0.000 C 
ENDBRANCH  19  21
BRANCH  19  22
ATOM     22  C   UNK A   2      -5.619   4.169 125.530  0.00  0.00    +0.000 C 
ATOM     23  C   UNK A   2      -5.651   4.485 124.017  0.00  0.00    +0.000 C 
ENDBRANCH  19  22
ENDBRANCH   1  19
BRANCH   8  24
ATOM     24  C   UNK A   0      -5.113   3.719 129.107  0.00  0.00    +0.000 C 
BRANCH  24  25
ATOM     25  C   UNK A   0      -4.646   2.934 130.427  0.00  0.00    +0.000 A 
ATOM     26  C   UNK A   0      -3.927   3.575 131.473  0.00  0.00    +0.000 A 
ATOM     27  C   UNK A   0      -3.325   2.830 132.510  0.00  0.00    +0.000 A 
ATOM     28  C   UNK A   0      -3.545   1.471 132.557  0.00  0.00    +0.000 A 
ATOM     29  C   UNK A   0      -3.041   0.521 133.572  0.00  0.00    +0.000 C 
ATOM     30  N   UNK A   0      -4.323   0.863 131.680  0.00  0.00    +0.000 NA
ATOM     31  C   UNK A   0      -4.860   1.564 130.673  0.00  0.00    +0.000 A 
ATOM     32  C   UNK A   0      -5.660   0.615 129.888  0.00  0.00    +0.000 C 
ENDBRANCH  24  25
BRANCH  24  33
ATOM     33  C   UNK A   0      -4.374   5.240 129.024  0.00  0.00    +0.000 C 
ATOM     34  O   UNK A   0      -4.833   6.252 129.426  0.00  0.00    +0.000 OA
ATOM     35  N   UNK A   0      -3.180   5.480 128.380  0.00  0.00    +0.000 N 
ATOM     36  C   UNK A   0      -2.460   4.513 127.722  0.00  0.00    +0.000 C 
ATOM     37  C   UNK A   0      -2.742   6.850 128.130  0.00  0.00    +0.000 C 
ENDBRANCH  24  33
ENDBRANCH   8  24
TORSDOF 7
ENDMDL
