MODEL 1
REMARK VINA RESULT:      -9.4      0.000      0.000
REMARK  Name = CHEMBL200403
REMARK  11 active torsions:
REMARK  status: ('A' for Active; 'I' for Inactive)
REMARK    1  A    between atoms: C_1  and  C_2
REMARK    2  A    between atoms: C_2  and  O_3
REMARK    3  A    between atoms: O_3  and  C_4
REMARK    4  A    between atoms: C_7  and  S_8
REMARK    5  A    between atoms: S_8  and  N_11
REMARK    6  A    between atoms: N_11  and  C_12
REMARK    7  A    between atoms: N_11  and  C_27
REMARK    8  A    between atoms: C_12  and  C_13
REMARK    9  A    between atoms: C_13  and  N_15
REMARK   10  A    between atoms: N_16  and  C_17
REMARK   11  A    between atoms: C_18  and  O_19
REMARK                            x       y       z     vdW  Elec       q    Type
REMARK                         _______ _______ _______ _____ _____    ______ ____
ROOT
ATOM      1  N   UNL     1      -8.619   2.583 123.570  0.00  0.00    +0.000 N 
ENDROOT
BRANCH   1   2
ATOM      2  C   UNL     1      -7.973   3.066 122.247  0.00  0.00    +0.000 A 
ATOM      3  C   UNL     1      -6.571   3.122 122.145  0.00  0.00    +0.000 A 
ATOM      4  C   UNL     1      -5.898   3.698 121.038  0.00  0.00    +0.000 A 
ATOM      5  C   UNL     1      -6.606   4.151 119.932  0.00  0.00    +0.000 A 
ATOM      6  C   UNL     1      -7.994   4.079 119.964  0.00  0.00    +0.000 A 
ATOM      7  C   UNL     1      -8.668   3.557 121.109  0.00  0.00    +0.000 A 
ENDBRANCH   1   2
BRANCH   1   8
ATOM      8  S   UNL     1      -9.486   1.041 123.459  0.00  0.00    +0.000 S 
ATOM      9  O   UNL     1     -10.308   1.121 122.285  0.00  0.00    +0.000 OA
ATOM     10  O   UNL     1     -10.150   0.842 124.759  0.00  0.00    +0.000 OA
BRANCH   8  14
ATOM     11  C   UNL     1      -6.862  -2.719 123.923  0.00  0.00    +0.000 A 
ATOM     12  C   UNL     1      -8.184  -2.882 123.552  0.00  0.00    +0.000 A 
ATOM     13  C   UNL     1      -9.025  -1.748 123.326  0.00  0.00    +0.000 A 
ATOM     14  C   UNL     1      -8.483  -0.465 123.234  0.00  0.00    +0.000 A 
ATOM     15  C   UNL     1      -7.130  -0.462 123.122  0.00  0.00    +0.000 A 
ATOM     16  C   UNL     1      -6.404  -1.443 123.830  0.00  0.00    +0.000 A 
BRANCH  11  17
ATOM     17  O   UNL     1      -6.062  -3.806 124.128  0.00  0.00    +0.000 OA
BRANCH  17  19
ATOM     18  C   UNL     1      -4.157  -5.134 123.366  0.00  0.00    +0.000 C 
ATOM     19  C   UNL     1      -4.636  -3.742 123.890  0.00  0.00    +0.000 C 
ENDBRANCH  17  19
ENDBRANCH  11  17
ENDBRANCH   8  14
ENDBRANCH   1   8
BRANCH   1  20
ATOM     20  C   UNL     1      -8.587   3.615 124.842  0.00  0.00    +0.000 C 
BRANCH  20  21
ATOM     21  C   UNL     1      -7.622   3.375 126.206  0.00  0.00    +0.000 C 
ATOM     22  O   UNL     1      -7.063   4.486 126.421  0.00  0.00    +0.000 OA
BRANCH  21  23
ATOM     23  N   UNL     1      -7.237   2.021 127.104  0.00  0.00    +0.000 NA
ATOM     24  N   UNL     1      -6.032   1.156 126.975  0.00  0.00    +0.000 NA
BRANCH  24  25
ATOM     25  C   UNL     1      -5.953  -0.565 127.345  0.00  0.00    +0.000 A 
ATOM     26  C   UNL     1      -5.410  -0.299 128.581  0.00  0.00    +0.000 A 
ATOM     27  N   UNL     1      -4.456  -1.347 128.482  0.00  0.00    +0.000 N 
ATOM     28  C   UNL     1      -5.115  -2.473 128.885  0.00  0.00    +0.000 A 
ATOM     29  C   UNL     1      -4.587  -3.556 129.675  0.00  0.00    +0.000 A 
ATOM     30  C   UNL     1      -5.379  -4.383 130.436  0.00  0.00    +0.000 A 
ATOM     31  C   UNL     1      -6.681  -3.943 130.532  0.00  0.00    +0.000 A 
ATOM     32  C   UNL     1      -7.214  -2.788 129.625  0.00  0.00    +0.000 A 
ATOM     33  C   UNL     1      -6.397  -2.060 128.438  0.00  0.00    +0.000 A 
ATOM     34  H   UNL     1      -4.002  -1.543 127.613  0.00  0.00    +0.000 HD
BRANCH  26  35
ATOM     35  O   UNL     1      -6.327   0.036 129.453  0.00  0.00    +0.000 OA
ATOM     36  H   UNL     1      -6.584  -0.720 130.034  0.00  0.00    +0.000 HD
ENDBRANCH  26  35
ENDBRANCH  24  25
ENDBRANCH  21  23
ENDBRANCH  20  21
ENDBRANCH   1  20
TORSDOF 10
ENDMDL
MODEL 2
REMARK VINA RESULT:      -9.2      4.208      7.989
REMARK  Name = CHEMBL200403
REMARK  11 active torsions:
REMARK  status: ('A' for Active; 'I' for Inactive)
REMARK    1  A    between atoms: C_1  and  C_2
REMARK    2  A    between atoms: C_2  and  O_3
REMARK    3  A    between atoms: O_3  and  C_4
REMARK    4  A    between atoms: C_7  and  S_8
REMARK    5  A    between atoms: S_8  and  N_11
REMARK    6  A    between atoms: N_11  and  C_12
REMARK    7  A    between atoms: N_11  and  C_27
REMARK    8  A    between atoms: C_12  and  C_13
REMARK    9  A    between atoms: C_13  and  N_15
REMARK   10  A    between atoms: N_16  and  C_17
REMARK   11  A    between atoms: C_18  and  O_19
REMARK                            x       y       z     vdW  Elec       q    Type
REMARK                         _______ _______ _______ _____ _____    ______ ____
ROOT
ATOM      1  N   UNL     1      -7.752   1.030 125.847  0.00  0.00    +0.000 N 
ENDROOT
BRANCH   1   2
ATOM      2  C   UNL     1      -7.828  -0.138 124.832  0.00  0.00    +0.000 A 
ATOM      3  C   UNL     1      -6.638  -0.750 124.394  0.00  0.00    +0.000 A 
ATOM      4  C   UNL     1      -6.600  -1.712 123.354  0.00  0.00    +0.000 A 
ATOM      5  C   UNL     1      -7.773  -2.181 122.775  0.00  0.00    +0.000 A 
ATOM      6  C   UNL     1      -8.980  -1.640 123.202  0.00  0.00    +0.000 A 
ATOM      7  C   UNL     1      -9.007  -0.624 124.205  0.00  0.00    +0.000 A 
ENDBRANCH   1   2
BRANCH   1   8
ATOM      8  S   UNL     1      -7.817   2.649 125.127  0.00  0.00    +0.000 S 
ATOM      9  O   UNL     1      -6.860   3.448 125.838  0.00  0.00    +0.000 OA
ATOM     10  O   UNL     1      -9.231   3.064 125.163  0.00  0.00    +0.000 OA
BRANCH   8  14
ATOM     11  C   UNL     1      -6.950   4.016 120.812  0.00  0.00    +0.000 A 
ATOM     12  C   UNL     1      -5.879   3.734 121.640  0.00  0.00    +0.000 A 
ATOM     13  C   UNL     1      -6.090   3.240 122.966  0.00  0.00    +0.000 A 
ATOM     14  C   UNL     1      -7.351   2.801 123.371  0.00  0.00    +0.000 A 
ATOM     15  C   UNL     1      -8.225   2.658 122.342  0.00  0.00    +0.000 A 
ATOM     16  C   UNL     1      -8.151   3.580 121.276  0.00  0.00    +0.000 A 
BRANCH  11  17
ATOM     17  O   UNL     1      -6.742   4.478 119.545  0.00  0.00    +0.000 OA
BRANCH  17  19
ATOM     18  C   UNL     1      -5.994   6.163 117.940  0.00  0.00    +0.000 C 
ATOM     19  C   UNL     1      -5.648   5.377 119.245  0.00  0.00    +0.000 C 
ENDBRANCH  17  19
ENDBRANCH  11  17
ENDBRANCH   8  14
ENDBRANCH   1   8
BRANCH   1  20
ATOM     20  C   UNL     1      -7.443   0.649 127.409  0.00  0.00    +0.000 C 
BRANCH  20  21
ATOM     21  C   UNL     1      -8.246   1.359 128.713  0.00  0.00    +0.000 C 
ATOM     22  O   UNL     1      -8.285   0.468 129.607  0.00  0.00    +0.000 OA
BRANCH  21  23
ATOM     23  N   UNL     1      -9.022   2.823 128.911  0.00  0.00    +0.000 NA
ATOM     24  N   UNL     1      -9.758   3.307 130.112  0.00  0.00    +0.000 NA
BRANCH  24  25
ATOM     25  C   UNL     1     -11.121   4.424 130.104  0.00  0.00    +0.000 A 
ATOM     26  C   UNL     1     -10.372   5.380 130.754  0.00  0.00    +0.000 A 
ATOM     27  N   UNL     1     -11.434   5.740 131.627  0.00  0.00    +0.000 N 
ATOM     28  C   UNL     1     -12.187   6.639 130.927  0.00  0.00    +0.000 A 
ATOM     29  C   UNL     1     -12.834   7.819 131.440  0.00  0.00    +0.000 A 
ATOM     30  C   UNL     1     -13.147   8.904 130.654  0.00  0.00    +0.000 A 
ATOM     31  C   UNL     1     -12.594   8.832 129.394  0.00  0.00    +0.000 A 
ATOM     32  C   UNL     1     -11.934   7.515 128.872  0.00  0.00    +0.000 A 
ATOM     33  C   UNL     1     -11.906   6.098 129.646  0.00  0.00    +0.000 A 
ATOM     34  H   UNL     1     -12.044   5.043 132.002  0.00  0.00    +0.000 HD
BRANCH  26  35
ATOM     35  O   UNL     1      -9.595   6.032 129.928  0.00  0.00    +0.000 OA
ATOM     36  H   UNL     1      -9.074   6.738 130.382  0.00  0.00    +0.000 HD
ENDBRANCH  26  35
ENDBRANCH  24  25
ENDBRANCH  21  23
ENDBRANCH  20  21
ENDBRANCH   1  20
TORSDOF 10
ENDMDL
MODEL 3
REMARK VINA RESULT:      -9.2      2.542      4.801
REMARK  Name = CHEMBL200403
REMARK  11 active torsions:
REMARK  status: ('A' for Active; 'I' for Inactive)
REMARK    1  A    between atoms: C_1  and  C_2
REMARK    2  A    between atoms: C_2  and  O_3
REMARK    3  A    between atoms: O_3  and  C_4
REMARK    4  A    between atoms: C_7  and  S_8
REMARK    5  A    between atoms: S_8  and  N_11
REMARK    6  A    between atoms: N_11  and  C_12
REMARK    7  A    between atoms: N_11  and  C_27
REMARK    8  A    between atoms: C_12  and  C_13
REMARK    9  A    between atoms: C_13  and  N_15
REMARK   10  A    between atoms: N_16  and  C_17
REMARK   11  A    between atoms: C_18  and  O_19
REMARK                            x       y       z     vdW  Elec       q    Type
REMARK                         _______ _______ _______ _____ _____    ______ ____
ROOT
ATOM      1  N   UNL     1      -8.820   2.530 123.267  0.00  0.00    +0.000 N 
ENDROOT
BRANCH   1   2
ATOM      2  C   UNL     1      -7.997   3.203 122.139  0.00  0.00    +0.000 A 
ATOM      3  C   UNL     1      -8.659   3.670 120.989  0.00  0.00    +0.000 A 
ATOM      4  C   UNL     1      -7.974   4.152 119.844  0.00  0.00    +0.000 A 
ATOM      5  C   UNL     1      -6.591   4.282 119.845  0.00  0.00    +0.000 A 
ATOM      6  C   UNL     1      -5.891   3.873 120.975  0.00  0.00    +0.000 A 
ATOM      7  C   UNL     1      -6.583   3.329 122.100  0.00  0.00    +0.000 A 
ENDBRANCH   1   2
BRANCH   1   8
ATOM      8  S   UNL     1      -8.383   3.030 124.911  0.00  0.00    +0.000 S 
ATOM      9  O   UNL     1      -8.975   2.070 125.798  0.00  0.00    +0.000 OA
ATOM     10  O   UNL     1      -8.793   4.440 125.039  0.00  0.00    +0.000 OA
BRANCH   8  14
ATOM     11  C   UNL     1      -4.256   3.109 126.961  0.00  0.00    +0.000 A 
ATOM     12  C   UNL     1      -4.667   1.935 126.356  0.00  0.00    +0.000 A 
ATOM     13  C   UNL     1      -5.907   1.874 125.646  0.00  0.00    +0.000 A 
ATOM     14  C   UNL     1      -6.610   3.039 125.336  0.00  0.00    +0.000 A 
ATOM     15  C   UNL     1      -5.888   4.170 125.540  0.00  0.00    +0.000 A 
ATOM     16  C   UNL     1      -4.996   4.200 126.633  0.00  0.00    +0.000 A 
BRANCH  11  17
ATOM     17  O   UNL     1      -3.067   3.163 127.628  0.00  0.00    +0.000 OA
BRANCH  17  19
ATOM     18  C   UNL     1      -2.770   4.841 129.381  0.00  0.00    +0.000 C 
ATOM     19  C   UNL     1      -2.424   4.428 127.914  0.00  0.00    +0.000 C 
ENDBRANCH  17  19
ENDBRANCH  11  17
ENDBRANCH   8  14
ENDBRANCH   1   8
BRANCH   1  20
ATOM     20  C   UNL     1      -9.845   1.329 122.834  0.00  0.00    +0.000 C 
BRANCH  20  21
ATOM     21  C   UNL     1      -9.559  -0.301 123.168  0.00  0.00    +0.000 C 
ATOM     22  O   UNL     1     -10.225  -0.942 122.309  0.00  0.00    +0.000 OA
BRANCH  21  23
ATOM     23  N   UNL     1      -8.747  -1.085 124.399  0.00  0.00    +0.000 NA
ATOM     24  N   UNL     1      -9.240  -1.372 125.774  0.00  0.00    +0.000 NA
BRANCH  24  25
ATOM     25  C   UNL     1      -8.241  -1.503 127.220  0.00  0.00    +0.000 A 
ATOM     26  C   UNL     1      -8.102  -2.860 127.030  0.00  0.00    +0.000 A 
ATOM     27  N   UNL     1      -8.290  -3.157 128.408  0.00  0.00    +0.000 N 
ATOM     28  C   UNL     1      -7.062  -2.994 128.981  0.00  0.00    +0.000 A 
ATOM     29  C   UNL     1      -6.473  -3.799 130.021  0.00  0.00    +0.000 A 
ATOM     30  C   UNL     1      -5.114  -3.901 130.211  0.00  0.00    +0.000 A 
ATOM     31  C   UNL     1      -4.385  -3.335 129.188  0.00  0.00    +0.000 A 
ATOM     32  C   UNL     1      -5.068  -2.440 128.104  0.00  0.00    +0.000 A 
ATOM     33  C   UNL     1      -6.616  -1.984 128.090  0.00  0.00    +0.000 A 
ATOM     34  H   UNL     1      -8.960  -2.654 128.951  0.00  0.00    +0.000 HD
BRANCH  26  35
ATOM     35  O   UNL     1      -7.180  -3.134 126.144  0.00  0.00    +0.000 OA
ATOM     36  H   UNL     1      -6.450  -3.682 126.521  0.00  0.00    +0.000 HD
ENDBRANCH  26  35
ENDBRANCH  24  25
ENDBRANCH  21  23
ENDBRANCH  20  21
ENDBRANCH   1  20
TORSDOF 10
ENDMDL
MODEL 4
REMARK VINA RESULT:      -9.0      5.179      9.601
REMARK  Name = CHEMBL200403
REMARK  11 active torsions:
REMARK  status: ('A' for Active; 'I' for Inactive)
REMARK    1  A    between atoms: C_1  and  C_2
REMARK    2  A    between atoms: C_2  and  O_3
REMARK    3  A    between atoms: O_3  and  C_4
REMARK    4  A    between atoms: C_7  and  S_8
REMARK    5  A    between atoms: S_8  and  N_11
REMARK    6  A    between atoms: N_11  and  C_12
REMARK    7  A    between atoms: N_11  and  C_27
REMARK    8  A    between atoms: C_12  and  C_13
REMARK    9  A    between atoms: C_13  and  N_15
REMARK   10  A    between atoms: N_16  and  C_17
REMARK   11  A    between atoms: C_18  and  O_19
REMARK                            x       y       z     vdW  Elec       q    Type
REMARK                         _______ _______ _______ _____ _____    ______ ____
ROOT
ATOM      1  N   UNL     1     -10.026   4.970 131.216  0.00  0.00    +0.000 N 
ENDROOT
BRANCH   1   2
ATOM      2  C   UNL     1     -10.736   6.236 130.673  0.00  0.00    +0.000 A 
ATOM      3  C   UNL     1     -12.022   6.560 131.145  0.00  0.00    +0.000 A 
ATOM      4  C   UNL     1     -12.809   7.601 130.592  0.00  0.00    +0.000 A 
ATOM      5  C   UNL     1     -12.296   8.434 129.605  0.00  0.00    +0.000 A 
ATOM      6  C   UNL     1     -11.013   8.182 129.132  0.00  0.00    +0.000 A 
ATOM      7  C   UNL     1     -10.249   7.092 129.649  0.00  0.00    +0.000 A 
ENDBRANCH   1   2
BRANCH   1   8
ATOM      8  S   UNL     1      -8.925   5.258 132.576  0.00  0.00    +0.000 S 
ATOM      9  O   UNL     1      -8.828   4.016 133.290  0.00  0.00    +0.000 OA
ATOM     10  O   UNL     1      -9.450   6.432 133.295  0.00  0.00    +0.000 OA
BRANCH   8  14
ATOM     11  C   UNL     1      -4.746   5.825 130.717  0.00  0.00    +0.000 A 
ATOM     12  C   UNL     1      -5.603   6.910 130.750  0.00  0.00    +0.000 A 
ATOM     13  C   UNL     1      -6.885   6.810 131.377  0.00  0.00    +0.000 A 
ATOM     14  C   UNL     1      -7.205   5.710 132.176  0.00  0.00    +0.000 A 
ATOM     15  C   UNL     1      -6.130   4.939 132.480  0.00  0.00    +0.000 A 
ATOM     16  C   UNL     1      -5.127   4.782 131.500  0.00  0.00    +0.000 A 
BRANCH  11  17
ATOM     17  O   UNL     1      -3.521   5.930 130.126  0.00  0.00    +0.000 OA
BRANCH  17  19
ATOM     18  C   UNL     1      -2.617   5.271 127.952  0.00  0.00    +0.000 C 
ATOM     19  C   UNL     1      -3.386   6.370 128.754  0.00  0.00    +0.000 C 
ENDBRANCH  17  19
ENDBRANCH  11  17
ENDBRANCH   8  14
ENDBRANCH   1   8
BRANCH   1  20
ATOM     20  C   UNL     1     -10.225   3.578 130.378  0.00  0.00    +0.000 C 
BRANCH  20  21
ATOM     21  C   UNL     1      -9.004   2.870 129.452  0.00  0.00    +0.000 C 
ATOM     22  O   UNL     1      -8.516   1.961 130.180  0.00  0.00    +0.000 OA
BRANCH  21  23
ATOM     23  N   UNL     1      -8.339   3.244 127.967  0.00  0.00    +0.000 NA
ATOM     24  N   UNL     1      -8.655   2.630 126.649  0.00  0.00    +0.000 NA
BRANCH  24  25
ATOM     25  C   UNL     1      -7.540   2.467 125.293  0.00  0.00    +0.000 A 
ATOM     26  C   UNL     1      -8.224   3.429 124.585  0.00  0.00    +0.000 A 
ATOM     27  N   UNL     1      -8.158   2.699 123.366  0.00  0.00    +0.000 N 
ATOM     28  C   UNL     1      -6.940   3.005 122.830  0.00  0.00    +0.000 A 
ATOM     29  C   UNL     1      -6.629   3.216 121.440  0.00  0.00    +0.000 A 
ATOM     30  C   UNL     1      -5.558   3.969 121.017  0.00  0.00    +0.000 A 
ATOM     31  C   UNL     1      -4.952   4.664 122.041  0.00  0.00    +0.000 A 
ATOM     32  C   UNL     1      -5.300   4.371 123.536  0.00  0.00    +0.000 A 
ATOM     33  C   UNL     1      -6.280   3.205 124.070  0.00  0.00    +0.000 A 
ATOM     34  H   UNL     1      -8.264   1.706 123.361  0.00  0.00    +0.000 HD
BRANCH  26  35
ATOM     35  O   UNL     1      -7.889   4.638 124.956  0.00  0.00    +0.000 OA
ATOM     36  H   UNL     1      -7.295   5.079 124.302  0.00  0.00    +0.000 HD
ENDBRANCH  26  35
ENDBRANCH  24  25
ENDBRANCH  21  23
ENDBRANCH  20  21
ENDBRANCH   1  20
TORSDOF 10
ENDMDL
MODEL 5
REMARK VINA RESULT:      -9.0      5.324     10.702
REMARK  Name = CHEMBL200403
REMARK  11 active torsions:
REMARK  status: ('A' for Active; 'I' for Inactive)
REMARK    1  A    between atoms: C_1  and  C_2
REMARK    2  A    between atoms: C_2  and  O_3
REMARK    3  A    between atoms: O_3  and  C_4
REMARK    4  A    between atoms: C_7  and  S_8
REMARK    5  A    between atoms: S_8  and  N_11
REMARK    6  A    between atoms: N_11  and  C_12
REMARK    7  A    between atoms: N_11  and  C_27
REMARK    8  A    between atoms: C_12  and  C_13
REMARK    9  A    between atoms: C_13  and  N_15
REMARK   10  A    between atoms: N_16  and  C_17
REMARK   11  A    between atoms: C_18  and  O_19
REMARK                            x       y       z     vdW  Elec       q    Type
REMARK                         _______ _______ _______ _____ _____    ______ ____
ROOT
ATOM      1  N   UNL     1      -7.372   4.402 130.395  0.00  0.00    +0.000 N 
ENDROOT
BRANCH   1   2
ATOM      2  C   UNL     1      -7.534   4.459 131.935  0.00  0.00    +0.000 A 
ATOM      3  C   UNL     1      -6.499   5.002 132.717  0.00  0.00    +0.000 A 
ATOM      4  C   UNL     1      -6.490   4.951 134.134  0.00  0.00    +0.000 A 
ATOM      5  C   UNL     1      -7.576   4.440 134.834  0.00  0.00    +0.000 A 
ATOM      6  C   UNL     1      -8.645   3.927 134.108  0.00  0.00    +0.000 A 
ATOM      7  C   UNL     1      -8.620   3.925 132.681  0.00  0.00    +0.000 A 
ENDBRANCH   1   2
BRANCH   1   8
ATOM      8  S   UNL     1      -8.870   4.642 129.478  0.00  0.00    +0.000 S 
ATOM      9  O   UNL     1      -9.610   3.416 129.579  0.00  0.00    +0.000 OA
ATOM     10  O   UNL     1      -8.468   5.101 128.137  0.00  0.00    +0.000 OA
BRANCH   8  14
ATOM     11  C   UNL     1     -12.154   7.831 130.015  0.00  0.00    +0.000 A 
ATOM     12  C   UNL     1     -12.281   6.635 130.698  0.00  0.00    +0.000 A 
ATOM     13  C   UNL     1     -11.259   5.638 130.623  0.00  0.00    +0.000 A 
ATOM     14  C   UNL     1     -10.012   5.935 130.069  0.00  0.00    +0.000 A 
ATOM     15  C   UNL     1      -9.816   7.263 129.873  0.00  0.00    +0.000 A 
ATOM     16  C   UNL     1     -10.922   8.047 129.482  0.00  0.00    +0.000 A 
BRANCH  11  17
ATOM     17  O   UNL     1     -13.129   8.782 130.099  0.00  0.00    +0.000 OA
BRANCH  17  19
ATOM     18  C   UNL     1     -13.502  11.176 129.773  0.00  0.00    +0.000 C 
ATOM     19  C   UNL     1     -13.278   9.795 129.076  0.00  0.00    +0.000 C 
ENDBRANCH  17  19
ENDBRANCH  11  17
ENDBRANCH   8  14
ENDBRANCH   1   8
BRANCH   1  20
ATOM     20  C   UNL     1      -5.910   3.955 129.809  0.00  0.00    +0.000 C 
BRANCH  20  21
ATOM     21  C   UNL     1      -5.491   4.064 128.178  0.00  0.00    +0.000 C 
ATOM     22  O   UNL     1      -4.875   5.160 128.062  0.00  0.00    +0.000 OA
BRANCH  21  23
ATOM     23  N   UNL     1      -5.855   3.128 126.845  0.00  0.00    +0.000 NA
ATOM     24  N   UNL     1      -5.235   3.190 125.493  0.00  0.00    +0.000 NA
BRANCH  24  25
ATOM     25  C   UNL     1      -6.031   2.787 123.973  0.00  0.00    +0.000 A 
ATOM     26  C   UNL     1      -6.562   4.055 123.889  0.00  0.00    +0.000 A 
ATOM     27  N   UNL     1      -7.836   3.585 123.468  0.00  0.00    +0.000 N 
ATOM     28  C   UNL     1      -7.728   3.414 122.117  0.00  0.00    +0.000 A 
ATOM     29  C   UNL     1      -8.729   3.698 121.121  0.00  0.00    +0.000 A 
ATOM     30  C   UNL     1      -8.424   3.968 119.808  0.00  0.00    +0.000 A 
ATOM     31  C   UNL     1      -7.074   4.146 119.596  0.00  0.00    +0.000 A 
ATOM     32  C   UNL     1      -6.026   3.789 120.698  0.00  0.00    +0.000 A 
ATOM     33  C   UNL     1      -6.346   3.095 122.120  0.00  0.00    +0.000 A 
ATOM     34  H   UNL     1      -8.228   2.753 123.860  0.00  0.00    +0.000 HD
BRANCH  26  35
ATOM     35  O   UNL     1      -5.695   4.915 123.420  0.00  0.00    +0.000 OA
ATOM     36  H   UNL     1      -5.446   4.724 122.484  0.00  0.00    +0.000 HD
ENDBRANCH  26  35
ENDBRANCH  24  25
ENDBRANCH  21  23
ENDBRANCH  20  21
ENDBRANCH   1  20
TORSDOF 10
ENDMDL
MODEL 6
REMARK VINA RESULT:      -8.9      4.215      8.174
REMARK  Name = CHEMBL200403
REMARK  11 active torsions:
REMARK  status: ('A' for Active; 'I' for Inactive)
REMARK    1  A    between atoms: C_1  and  C_2
REMARK    2  A    between atoms: C_2  and  O_3
REMARK    3  A    between atoms: O_3  and  C_4
REMARK    4  A    between atoms: C_7  and  S_8
REMARK    5  A    between atoms: S_8  and  N_11
REMARK    6  A    between atoms: N_11  and  C_12
REMARK    7  A    between atoms: N_11  and  C_27
REMARK    8  A    between atoms: C_12  and  C_13
REMARK    9  A    between atoms: C_13  and  N_15
REMARK   10  A    between atoms: N_16  and  C_17
REMARK   11  A    between atoms: C_18  and  O_19
REMARK                            x       y       z     vdW  Elec       q    Type
REMARK                         _______ _______ _______ _____ _____    ______ ____
ROOT
ATOM      1  N   UNL     1      -9.137   5.067 130.658  0.00  0.00    +0.000 N 
ENDROOT
BRANCH   1   2
ATOM      2  C   UNL     1     -10.243   6.103 130.335  0.00  0.00    +0.000 A 
ATOM      3  C   UNL     1     -10.132   6.890 129.174  0.00  0.00    +0.000 A 
ATOM      4  C   UNL     1     -11.006   7.967 128.882  0.00  0.00    +0.000 A 
ATOM      5  C   UNL     1     -12.099   8.237 129.697  0.00  0.00    +0.000 A 
ATOM      6  C   UNL     1     -12.278   7.461 130.837  0.00  0.00    +0.000 A 
ATOM      7  C   UNL     1     -11.357   6.418 131.158  0.00  0.00    +0.000 A 
ENDBRANCH   1   2
BRANCH   1   8
ATOM      8  S   UNL     1      -9.718   3.413 130.926  0.00  0.00    +0.000 S 
ATOM      9  O   UNL     1     -10.927   3.280 130.165  0.00  0.00    +0.000 OA
ATOM     10  O   UNL     1      -9.793   3.231 132.386  0.00  0.00    +0.000 OA
BRANCH   8  14
ATOM     11  C   UNL     1      -7.912  -0.545 129.405  0.00  0.00    +0.000 A 
ATOM     12  C   UNL     1      -7.890   0.554 128.565  0.00  0.00    +0.000 A 
ATOM     13  C   UNL     1      -8.374   1.824 129.009  0.00  0.00    +0.000 A 
ATOM     14  C   UNL     1      -8.648   2.050 130.359  0.00  0.00    +0.000 A 
ATOM     15  C   UNL     1      -8.176   1.072 131.173  0.00  0.00    +0.000 A 
ATOM     16  C   UNL     1      -8.207  -0.257 130.700  0.00  0.00    +0.000 A 
BRANCH  11  17
ATOM     17  O   UNL     1      -7.441  -1.751 128.977  0.00  0.00    +0.000 OA
BRANCH  17  19
ATOM     18  C   UNL     1      -8.662  -3.635 128.009  0.00  0.00    +0.000 C 
ATOM     19  C   UNL     1      -8.116  -2.985 129.321  0.00  0.00    +0.000 C 
ENDBRANCH  17  19
ENDBRANCH  11  17
ENDBRANCH   8  14
ENDBRANCH   1   8
BRANCH   1  20
ATOM     20  C   UNL     1      -7.619   5.635 130.890  0.00  0.00    +0.000 C 
BRANCH  20  21
ATOM     21  C   UNL     1      -6.270   5.042 130.067  0.00  0.00    +0.000 C 
ATOM     22  O   UNL     1      -5.437   4.735 130.965  0.00  0.00    +0.000 OA
BRANCH  21  23
ATOM     23  N   UNL     1      -5.874   4.952 128.448  0.00  0.00    +0.000 NA
ATOM     24  N   UNL     1      -6.783   4.668 127.304  0.00  0.00    +0.000 NA
BRANCH  24  25
ATOM     25  C   UNL     1      -6.327   3.878 125.796  0.00  0.00    +0.000 A 
ATOM     26  C   UNL     1      -7.119   4.743 125.075  0.00  0.00    +0.000 A 
ATOM     27  N   UNL     1      -7.629   3.713 124.239  0.00  0.00    +0.000 N 
ATOM     28  C   UNL     1      -6.698   3.558 123.251  0.00  0.00    +0.000 A 
ATOM     29  C   UNL     1      -6.944   3.297 121.856  0.00  0.00    +0.000 A 
ATOM     30  C   UNL     1      -6.050   3.626 120.864  0.00  0.00    +0.000 A 
ATOM     31  C   UNL     1      -5.010   4.408 121.315  0.00  0.00    +0.000 A 
ATOM     32  C   UNL     1      -4.765   4.630 122.842  0.00  0.00    +0.000 A 
ATOM     33  C   UNL     1      -5.581   3.925 124.045  0.00  0.00    +0.000 A 
ATOM     34  H   UNL     1      -7.844   2.812 124.613  0.00  0.00    +0.000 HD
BRANCH  26  35
ATOM     35  O   UNL     1      -6.524   5.889 124.869  0.00  0.00    +0.000 OA
ATOM     36  H   UNL     1      -6.346   6.052 123.912  0.00  0.00    +0.000 HD
ENDBRANCH  26  35
ENDBRANCH  24  25
ENDBRANCH  21  23
ENDBRANCH  20  21
ENDBRANCH   1  20
TORSDOF 10
ENDMDL
MODEL 7
REMARK VINA RESULT:      -8.7      5.159      9.697
REMARK  Name = CHEMBL200403
REMARK  11 active torsions:
REMARK  status: ('A' for Active; 'I' for Inactive)
REMARK    1  A    between atoms: C_1  and  C_2
REMARK    2  A    between atoms: C_2  and  O_3
REMARK    3  A    between atoms: O_3  and  C_4
REMARK    4  A    between atoms: C_7  and  S_8
REMARK    5  A    between atoms: S_8  and  N_11
REMARK    6  A    between atoms: N_11  and  C_12
REMARK    7  A    between atoms: N_11  and  C_27
REMARK    8  A    between atoms: C_12  and  C_13
REMARK    9  A    between atoms: C_13  and  N_15
REMARK   10  A    between atoms: N_16  and  C_17
REMARK   11  A    between atoms: C_18  and  O_19
REMARK                            x       y       z     vdW  Elec       q    Type
REMARK                         _______ _______ _______ _____ _____    ______ ____
ROOT
ATOM      1  N   UNL     1      -7.967   4.174 131.240  0.00  0.00    +0.000 N 
ENDROOT
BRANCH   1   2
ATOM      2  C   UNL     1      -8.089   2.678 131.625  0.00  0.00    +0.000 A 
ATOM      3  C   UNL     1      -7.104   2.095 132.444  0.00  0.00    +0.000 A 
ATOM      4  C   UNL     1      -7.047   0.704 132.715  0.00  0.00    +0.000 A 
ATOM      5  C   UNL     1      -8.040  -0.151 132.256  0.00  0.00    +0.000 A 
ATOM      6  C   UNL     1      -9.060   0.382 131.476  0.00  0.00    +0.000 A 
ATOM      7  C   UNL     1      -9.077   1.772 131.154  0.00  0.00    +0.000 A 
ENDBRANCH   1   2
BRANCH   1   8
ATOM      8  S   UNL     1      -8.787   5.296 132.341  0.00  0.00    +0.000 S 
ATOM      9  O   UNL     1      -7.774   6.173 132.855  0.00  0.00    +0.000 OA
ATOM     10  O   UNL     1      -9.539   4.466 133.298  0.00  0.00    +0.000 OA
BRANCH   8  14
ATOM     11  C   UNL     1     -12.187   7.259 129.925  0.00  0.00    +0.000 A 
ATOM     12  C   UNL     1     -12.409   6.974 131.261  0.00  0.00    +0.000 A 
ATOM     13  C   UNL     1     -11.367   6.429 132.075  0.00  0.00    +0.000 A 
ATOM     14  C   UNL     1     -10.048   6.400 131.620  0.00  0.00    +0.000 A 
ATOM     15  C   UNL     1      -9.850   7.145 130.503  0.00  0.00    +0.000 A 
ATOM     16  C   UNL     1     -10.885   7.192 129.544  0.00  0.00    +0.000 A 
BRANCH  11  17
ATOM     17  O   UNL     1     -13.183   7.788 129.157  0.00  0.00    +0.000 OA
BRANCH  17  19
ATOM     18  C   UNL     1     -13.199  10.183 129.648  0.00  0.00    +0.000 C 
ATOM     19  C   UNL     1     -13.043   9.090 128.541  0.00  0.00    +0.000 C 
ENDBRANCH  17  19
ENDBRANCH  11  17
ENDBRANCH   8  14
ENDBRANCH   1   8
BRANCH   1  20
ATOM     20  C   UNL     1      -7.271   4.526 129.801  0.00  0.00    +0.000 C 
BRANCH  20  21
ATOM     21  C   UNL     1      -7.949   4.101 128.314  0.00  0.00    +0.000 C 
ATOM     22  O   UNL     1      -8.619   5.108 127.951  0.00  0.00    +0.000 OA
BRANCH  21  23
ATOM     23  N   UNL     1      -7.977   2.678 127.442  0.00  0.00    +0.000 NA
ATOM     24  N   UNL     1      -8.741   2.391 126.196  0.00  0.00    +0.000 NA
BRANCH  24  25
ATOM     25  C   UNL     1      -9.352   0.813 125.703  0.00  0.00    +0.000 A 
ATOM     26  C   UNL     1      -8.200   0.563 124.992  0.00  0.00    +0.000 A 
ATOM     27  N   UNL     1      -8.903   0.013 123.885  0.00  0.00    +0.000 N 
ATOM     28  C   UNL     1      -9.122  -1.295 124.213  0.00  0.00    +0.000 A 
ATOM     29  C   UNL     1      -9.066  -2.435 123.333  0.00  0.00    +0.000 A 
ATOM     30  C   UNL     1      -8.816  -3.712 123.777  0.00  0.00    +0.000 A 
ATOM     31  C   UNL     1      -8.421  -3.755 125.096  0.00  0.00    +0.000 A 
ATOM     32  C   UNL     1      -8.536  -2.499 126.018  0.00  0.00    +0.000 A 
ATOM     33  C   UNL     1      -9.200  -1.084 125.613  0.00  0.00    +0.000 A 
ATOM     34  H   UNL     1      -9.767   0.410 123.581  0.00  0.00    +0.000 HD
BRANCH  26  35
ATOM     35  O   UNL     1      -7.230   0.151 125.766  0.00  0.00    +0.000 OA
ATOM     36  H   UNL     1      -7.525   0.023 126.700  0.00  0.00    +0.000 HD
ENDBRANCH  26  35
ENDBRANCH  24  25
ENDBRANCH  21  23
ENDBRANCH  20  21
ENDBRANCH   1  20
TORSDOF 10
ENDMDL
MODEL 8
REMARK VINA RESULT:      -8.6      4.245      8.312
REMARK  Name = CHEMBL200403
REMARK  11 active torsions:
REMARK  status: ('A' for Active; 'I' for Inactive)
REMARK    1  A    between atoms: C_1  and  C_2
REMARK    2  A    between atoms: C_2  and  O_3
REMARK    3  A    between atoms: O_3  and  C_4
REMARK    4  A    between atoms: C_7  and  S_8
REMARK    5  A    between atoms: S_8  and  N_11
REMARK    6  A    between atoms: N_11  and  C_12
REMARK    7  A    between atoms: N_11  and  C_27
REMARK    8  A    between atoms: C_12  and  C_13
REMARK    9  A    between atoms: C_13  and  N_15
REMARK   10  A    between atoms: N_16  and  C_17
REMARK   11  A    between atoms: C_18  and  O_19
REMARK                            x       y       z     vdW  Elec       q    Type
REMARK                         _______ _______ _______ _____ _____    ______ ____
ROOT
ATOM      1  N   UNL     1      -6.805   0.547 130.065  0.00  0.00    +0.000 N 
ENDROOT
BRANCH   1   2
ATOM      2  C   UNL     1      -6.778  -1.002 130.064  0.00  0.00    +0.000 A 
ATOM      3  C   UNL     1      -5.539  -1.670 130.065  0.00  0.00    +0.000 A 
ATOM      4  C   UNL     1      -5.415  -3.073 129.904  0.00  0.00    +0.000 A 
ATOM      5  C   UNL     1      -6.542  -3.883 129.839  0.00  0.00    +0.000 A 
ATOM      6  C   UNL     1      -7.793  -3.277 129.876  0.00  0.00    +0.000 A 
ATOM      7  C   UNL     1      -7.909  -1.857 129.974  0.00  0.00    +0.000 A 
ENDBRANCH   1   2
BRANCH   1   8
ATOM      8  S   UNL     1      -7.179   1.288 128.498  0.00  0.00    +0.000 S 
ATOM      9  O   UNL     1      -6.239   2.358 128.320  0.00  0.00    +0.000 OA
ATOM     10  O   UNL     1      -8.614   1.622 128.528  0.00  0.00    +0.000 OA
BRANCH   8  14
ATOM     11  C   UNL     1      -6.556  -2.110 125.447  0.00  0.00    +0.000 A 
ATOM     12  C   UNL     1      -7.823  -1.572 125.582  0.00  0.00    +0.000 A 
ATOM     13  C   UNL     1      -8.059  -0.469 126.463  0.00  0.00    +0.000 A 
ATOM     14  C   UNL     1      -6.994   0.243 127.016  0.00  0.00    +0.000 A 
ATOM     15  C   UNL     1      -5.799  -0.049 126.441  0.00  0.00    +0.000 A 
ATOM     16  C   UNL     1      -5.569  -1.378 126.027  0.00  0.00    +0.000 A 
BRANCH  11  17
ATOM     17  O   UNL     1      -6.336  -3.155 124.598  0.00  0.00    +0.000 OA
BRANCH  17  19
ATOM     18  C   UNL     1      -4.375  -4.362 123.779  0.00  0.00    +0.000 C 
ATOM     19  C   UNL     1      -5.285  -3.104 123.604  0.00  0.00    +0.000 C 
ENDBRANCH  17  19
ENDBRANCH  11  17
ENDBRANCH   8  14
ENDBRANCH   1   8
BRANCH   1  20
ATOM     20  C   UNL     1      -6.317   1.306 131.431  0.00  0.00    +0.000 C 
BRANCH  20  21
ATOM     21  C   UNL     1      -7.387   1.903 132.593  0.00  0.00    +0.000 C 
ATOM     22  O   UNL     1      -7.523   0.971 133.433  0.00  0.00    +0.000 OA
BRANCH  21  23
ATOM     23  N   UNL     1      -8.285   3.306 132.698  0.00  0.00    +0.000 NA
ATOM     24  N   UNL     1      -9.435   3.716 131.846  0.00  0.00    +0.000 NA
BRANCH  24  25
ATOM     25  C   UNL     1      -9.890   5.373 131.455  0.00  0.00    +0.000 A 
ATOM     26  C   UNL     1     -10.157   5.018 130.153  0.00  0.00    +0.000 A 
ATOM     27  N   UNL     1      -9.529   6.176 129.619  0.00  0.00    +0.000 N 
ATOM     28  C   UNL     1     -10.480   7.155 129.669  0.00  0.00    +0.000 A 
ATOM     29  C   UNL     1     -10.724   8.183 128.689  0.00  0.00    +0.000 A 
ATOM     30  C   UNL     1     -11.941   8.807 128.545  0.00  0.00    +0.000 A 
ATOM     31  C   UNL     1     -12.943   8.208 129.277  0.00  0.00    +0.000 A 
ATOM     32  C   UNL     1     -12.621   7.122 130.354  0.00  0.00    +0.000 A 
ATOM     33  C   UNL     1     -11.147   6.654 130.816  0.00  0.00    +0.000 A 
ATOM     34  H   UNL     1      -8.689   6.533 130.023  0.00  0.00    +0.000 HD
BRANCH  26  35
ATOM     35  O   UNL     1     -11.338   4.469 130.031  0.00  0.00    +0.000 OA
ATOM     36  H   UNL     1     -11.979   4.806 130.703  0.00  0.00    +0.000 HD
ENDBRANCH  26  35
ENDBRANCH  24  25
ENDBRANCH  21  23
ENDBRANCH  20  21
ENDBRANCH   1  20
TORSDOF 10
ENDMDL
MODEL 9
REMARK VINA RESULT:      -8.6      5.001      9.568
REMARK  Name = CHEMBL200403
REMARK  11 active torsions:
REMARK  status: ('A' for Active; 'I' for Inactive)
REMARK    1  A    between atoms: C_1  and  C_2
REMARK    2  A    between atoms: C_2  and  O_3
REMARK    3  A    between atoms: O_3  and  C_4
REMARK    4  A    between atoms: C_7  and  S_8
REMARK    5  A    between atoms: S_8  and  N_11
REMARK    6  A    between atoms: N_11  and  C_12
REMARK    7  A    between atoms: N_11  and  C_27
REMARK    8  A    between atoms: C_12  and  C_13
REMARK    9  A    between atoms: C_13  and  N_15
REMARK   10  A    between atoms: N_16  and  C_17
REMARK   11  A    between atoms: C_18  and  O_19
REMARK                            x       y       z     vdW  Elec       q    Type
REMARK                         _______ _______ _______ _____ _____    ______ ____
ROOT
ATOM      1  N   UNL     1      -9.926   5.519 130.298  0.00  0.00    +0.000 N 
ENDROOT
BRANCH   1   2
ATOM      2  C   UNL     1     -10.839   6.566 129.613  0.00  0.00    +0.000 A 
ATOM      3  C   UNL     1     -12.236   6.394 129.653  0.00  0.00    +0.000 A 
ATOM      4  C   UNL     1     -13.137   7.209 128.923  0.00  0.00    +0.000 A 
ATOM      5  C   UNL     1     -12.680   8.303 128.198  0.00  0.00    +0.000 A 
ATOM      6  C   UNL     1     -11.311   8.542 128.159  0.00  0.00    +0.000 A 
ATOM      7  C   UNL     1     -10.403   7.680 128.845  0.00  0.00    +0.000 A 
ENDBRANCH   1   2
BRANCH   1   8
ATOM      8  S   UNL     1      -9.238   6.030 131.850  0.00  0.00    +0.000 S 
ATOM      9  O   UNL     1     -10.314   6.618 132.596  0.00  0.00    +0.000 OA
ATOM     10  O   UNL     1      -8.072   6.871 131.532  0.00  0.00    +0.000 OA
BRANCH   8  14
ATOM     11  C   UNL     1      -7.148   2.364 133.704  0.00  0.00    +0.000 A 
ATOM     12  C   UNL     1      -6.638   3.620 133.978  0.00  0.00    +0.000 A 
ATOM     13  C   UNL     1      -7.287   4.796 133.486  0.00  0.00    +0.000 A 
ATOM     14  C   UNL     1      -8.567   4.726 132.935  0.00  0.00    +0.000 A 
ATOM     15  C   UNL     1      -9.182   3.536 133.155  0.00  0.00    +0.000 A 
ATOM     16  C   UNL     1      -8.389   2.369 133.149  0.00  0.00    +0.000 A 
BRANCH  11  17
ATOM     17  O   UNL     1      -6.530   1.246 134.184  0.00  0.00    +0.000 OA
BRANCH  17  19
ATOM     18  C   UNL     1      -5.608  -1.018 134.189  0.00  0.00    +0.000 C 
ATOM     19  C   UNL     1      -6.400   0.054 133.373  0.00  0.00    +0.000 C 
ENDBRANCH  17  19
ENDBRANCH  11  17
ENDBRANCH   8  14
ENDBRANCH   1   8
BRANCH   1  20
ATOM     20  C   UNL     1      -9.561   4.169 129.447  0.00  0.00    +0.000 C 
BRANCH  20  21
ATOM     21  C   UNL     1      -8.266   4.074 128.368  0.00  0.00    +0.000 C 
ATOM     22  O   UNL     1      -7.455   4.968 128.738  0.00  0.00    +0.000 OA
BRANCH  21  23
ATOM     23  N   UNL     1      -8.005   3.186 126.979  0.00  0.00    +0.000 NA
ATOM     24  N   UNL     1      -6.743   3.070 126.197  0.00  0.00    +0.000 NA
BRANCH  24  25
ATOM     25  C   UNL     1      -6.627   2.788 124.461  0.00  0.00    +0.000 A 
ATOM     26  C   UNL     1      -7.234   3.996 124.200  0.00  0.00    +0.000 A 
ATOM     27  N   UNL     1      -8.054   3.458 123.172  0.00  0.00    +0.000 N 
ATOM     28  C   UNL     1      -7.278   3.473 122.048  0.00  0.00    +0.000 A 
ATOM     29  C   UNL     1      -7.696   3.780 120.704  0.00  0.00    +0.000 A 
ATOM     30  C   UNL     1      -6.834   4.245 119.739  0.00  0.00    +0.000 A 
ATOM     31  C   UNL     1      -5.597   4.584 120.241  0.00  0.00    +0.000 A 
ATOM     32  C   UNL     1      -5.178   4.195 121.695  0.00  0.00    +0.000 A 
ATOM     33  C   UNL     1      -6.042   3.296 122.722  0.00  0.00    +0.000 A 
ATOM     34  H   UNL     1      -8.457   2.548 123.264  0.00  0.00    +0.000 HD
BRANCH  26  35
ATOM     35  O   UNL     1      -6.389   4.991 124.282  0.00  0.00    +0.000 OA
ATOM     36  H   UNL     1      -6.364   5.389 125.185  0.00  0.00    +0.000 HD
ENDBRANCH  26  35
ENDBRANCH  24  25
ENDBRANCH  21  23
ENDBRANCH  20  21
ENDBRANCH   1  20
TORSDOF 10
ENDMDL
