MODEL 1
REMARK VINA RESULT:     -10.0      0.000      0.000
REMARK  Name = CHEMBL456464
REMARK  13 active torsions:
REMARK  status: ('A' for Active; 'I' for Inactive)
REMARK    1  A    between atoms: C_1  and  O_2
REMARK    2  A    between atoms: O_2  and  C_3
REMARK    3  A    between atoms: C_6  and  S_7
REMARK    4  A    between atoms: S_7  and  N_10
REMARK    5  A    between atoms: N_10  and  C_11
REMARK    6  A    between atoms: N_10  and  C_25
REMARK    7  A    between atoms: C_11  and  C_12
REMARK    8  A    between atoms: C_15  and  C_16
REMARK    9  A    between atoms: C_21  and  C_22
REMARK   10  A    between atoms: C_28  and  O_29
REMARK   11  A    between atoms: O_29  and  C_30
REMARK   12  A    between atoms: C_33  and  O_34
REMARK   13  A    between atoms: O_34  and  C_35
REMARK                            x       y       z     vdW  Elec       q    Type
REMARK                         _______ _______ _______ _____ _____    ______ ____
ROOT
ATOM      1  N   UNL     1      -8.138   2.206 123.983  0.00  0.00    +0.000 N 
ENDROOT
BRANCH   1   2
ATOM      2  C   UNL     1      -7.830   2.738 122.672  0.00  0.00    +0.000 A 
ATOM      3  C   UNL     1      -8.816   3.170 121.804  0.00  0.00    +0.000 A 
ATOM      4  C   UNL     1      -8.449   3.824 120.630  0.00  0.00    +0.000 A 
ATOM      5  C   UNL     1      -7.107   4.060 120.352  0.00  0.00    +0.000 A 
ATOM      6  N   UNL     1      -6.122   3.661 121.182  0.00  0.00    +0.000 NA
ATOM      7  C   UNL     1      -6.507   3.003 122.305  0.00  0.00    +0.000 A 
BRANCH   5   8
ATOM      8  O   UNL     1      -6.669   4.715 119.231  0.00  0.00    +0.000 OA
ATOM      9  C   UNL     1      -5.454   5.447 119.379  0.00  0.00    +0.000 C 
ENDBRANCH   5   8
ENDBRANCH   1   2
BRANCH   1  10
ATOM     10  S   UNL     1      -8.242   0.509 124.141  0.00  0.00    +0.000 S 
ATOM     11  O   UNL     1      -6.961  -0.093 123.834  0.00  0.00    +0.000 OA
ATOM     12  O   UNL     1      -9.411   0.062 123.399  0.00  0.00    +0.000 OA
BRANCH  10  16
ATOM     13  C   UNL     1      -5.775  -1.944 127.879  0.00  0.00    +0.000 A 
ATOM     14  C   UNL     1      -5.835  -0.164 127.848  0.00  0.00    +0.000 A 
ATOM     15  C   UNL     1      -7.029   0.751 126.892  0.00  0.00    +0.000 A 
ATOM     16  C   UNL     1      -8.332   0.073 125.941  0.00  0.00    +0.000 A 
ATOM     17  C   UNL     1      -8.540  -1.548 126.088  0.00  0.00    +0.000 A 
ATOM     18  C   UNL     1      -7.127  -2.825 126.945  0.00  0.00    +0.000 A 
BRANCH  13  20
ATOM     19  C   UNL     1      -5.719  -2.906 129.859  0.00  0.00    +0.000 C 
ATOM     20  O   UNL     1      -4.929  -2.321 128.901  0.00  0.00    +0.000 OA
ENDBRANCH  13  20
BRANCH  17  21
ATOM     21  O   UNL     1      -9.941  -2.391 125.260  0.00  0.00    +0.000 OA
ATOM     22  C   UNL     1      -9.459  -3.371 123.661  0.00  0.00    +0.000 C 
ENDBRANCH  17  21
ENDBRANCH  10  16
ENDBRANCH   1  10
BRANCH   1  23
ATOM     23  C   UNL     1      -8.578   3.283 124.996  0.00  0.00    +0.000 C 
BRANCH  23  24
ATOM     24  C   UNL     1      -7.350   4.467 125.794  0.00  0.00    +0.000 A 
ATOM     25  C   UNL     1      -5.426   3.923 125.854  0.00  0.00    +0.000 A 
ATOM     26  C   UNL     1      -4.625   3.382 127.041  0.00  0.00    +0.000 A 
ATOM     27  C   UNL     1      -5.525   3.577 128.468  0.00  0.00    +0.000 A 
ATOM     28  C   UNL     1      -7.436   4.340 128.376  0.00  0.00    +0.000 A 
ATOM     29  N   UNL     1      -8.214   4.782 127.036  0.00  0.00    +0.000 NA
BRANCH  27  30
ATOM     30  C   UNL     1      -4.081   4.080 129.162  0.00  0.00    +0.000 A 
ATOM     31  C   UNL     1      -3.949   3.215 130.226  0.00  0.00    +0.000 A 
ATOM     32  C   UNL     1      -3.468   3.700 131.405  0.00  0.00    +0.000 A 
ATOM     33  C   UNL     1      -2.695   4.848 131.412  0.00  0.00    +0.000 A 
ATOM     34  C   UNL     1      -2.537   5.654 130.249  0.00  0.00    +0.000 A 
ATOM     35  C   UNL     1      -3.248   5.358 129.030  0.00  0.00    +0.000 A 
ATOM     36  C   UNL     1      -3.462   6.695 127.936  0.00  0.00    +0.000 C 
ENDBRANCH  27  30
ENDBRANCH  23  24
ENDBRANCH   1  23
TORSDOF 9
ENDMDL
MODEL 2
REMARK VINA RESULT:      -9.8      3.174      7.277
REMARK  Name = CHEMBL456464
REMARK  13 active torsions:
REMARK  status: ('A' for Active; 'I' for Inactive)
REMARK    1  A    between atoms: C_1  and  O_2
REMARK    2  A    between atoms: O_2  and  C_3
REMARK    3  A    between atoms: C_6  and  S_7
REMARK    4  A    between atoms: S_7  and  N_10
REMARK    5  A    between atoms: N_10  and  C_11
REMARK    6  A    between atoms: N_10  and  C_25
REMARK    7  A    between atoms: C_11  and  C_12
REMARK    8  A    between atoms: C_15  and  C_16
REMARK    9  A    between atoms: C_21  and  C_22
REMARK   10  A    between atoms: C_28  and  O_29
REMARK   11  A    between atoms: O_29  and  C_30
REMARK   12  A    between atoms: C_33  and  O_34
REMARK   13  A    between atoms: O_34  and  C_35
REMARK                            x       y       z     vdW  Elec       q    Type
REMARK                         _______ _______ _______ _____ _____    ______ ____
ROOT
ATOM      1  N   UNL     1      -7.640   1.809 127.586  0.00  0.00    +0.000 N 
ENDROOT
BRANCH   1   2
ATOM      2  C   UNL     1      -8.067   2.840 128.509  0.00  0.00    +0.000 A 
ATOM      3  C   UNL     1      -8.840   2.557 129.620  0.00  0.00    +0.000 A 
ATOM      4  C   UNL     1      -9.077   3.559 130.557  0.00  0.00    +0.000 A 
ATOM      5  C   UNL     1      -8.518   4.821 130.386  0.00  0.00    +0.000 A 
ATOM      6  N   UNL     1      -7.752   5.128 129.320  0.00  0.00    +0.000 NA
ATOM      7  C   UNL     1      -7.560   4.140 128.409  0.00  0.00    +0.000 A 
BRANCH   5   8
ATOM      8  O   UNL     1      -8.687   5.852 131.273  0.00  0.00    +0.000 OA
ATOM      9  C   UNL     1      -8.639   5.493 132.652  0.00  0.00    +0.000 C 
ENDBRANCH   5   8
ENDBRANCH   1   2
BRANCH   1  10
ATOM     10  S   UNL     1      -5.964   1.499 127.472  0.00  0.00    +0.000 S 
ATOM     11  O   UNL     1      -5.353   1.608 128.780  0.00  0.00    +0.000 OA
ATOM     12  O   UNL     1      -5.432   2.314 126.391  0.00  0.00    +0.000 OA
BRANCH  10  16
ATOM     13  C   UNL     1      -7.793  -2.551 124.954  0.00  0.00    +0.000 A 
ATOM     14  C   UNL     1      -6.254  -1.797 124.465  0.00  0.00    +0.000 A 
ATOM     15  C   UNL     1      -5.318  -0.719 125.532  0.00  0.00    +0.000 A 
ATOM     16  C   UNL     1      -5.703  -0.315 127.190  0.00  0.00    +0.000 A 
ATOM     17  C   UNL     1      -6.961  -1.144 127.841  0.00  0.00    +0.000 A 
ATOM     18  C   UNL     1      -8.326  -2.252 126.716  0.00  0.00    +0.000 A 
BRANCH  13  20
ATOM     19  C   UNL     1      -9.450  -3.371 123.757  0.00  0.00    +0.000 C 
ATOM     20  O   UNL     1      -8.109  -3.513 124.019  0.00  0.00    +0.000 OA
ENDBRANCH  13  20
BRANCH  17  21
ATOM     21  O   UNL     1      -7.407  -0.932 129.606  0.00  0.00    +0.000 OA
ATOM     22  C   UNL     1      -6.008  -1.418 130.853  0.00  0.00    +0.000 C 
ENDBRANCH  17  21
ENDBRANCH  10  16
ENDBRANCH   1  10
BRANCH   1  23
ATOM     23  C   UNL     1      -8.764   1.315 126.652  0.00  0.00    +0.000 C 
BRANCH  23  24
ATOM     24  C   UNL     1      -9.052   2.067 124.949  0.00  0.00    +0.000 A 
ATOM     25  C   UNL     1      -8.072   1.274 123.396  0.00  0.00    +0.000 A 
ATOM     26  C   UNL     1      -6.839   1.815 122.668  0.00  0.00    +0.000 A 
ATOM     27  C   UNL     1      -6.544   3.412 123.168  0.00  0.00    +0.000 A 
ATOM     28  C   UNL     1      -7.719   4.260 124.632  0.00  0.00    +0.000 A 
ATOM     29  N   UNL     1      -8.937   3.539 125.401  0.00  0.00    +0.000 NA
BRANCH  27  30
ATOM     30  C   UNL     1      -6.257   3.734 121.545  0.00  0.00    +0.000 A 
ATOM     31  C   UNL     1      -4.938   4.129 121.552  0.00  0.00    +0.000 A 
ATOM     32  C   UNL     1      -4.560   5.156 120.740  0.00  0.00    +0.000 A 
ATOM     33  C   UNL     1      -5.314   5.461 119.620  0.00  0.00    +0.000 A 
ATOM     34  C   UNL     1      -6.583   4.860 119.384  0.00  0.00    +0.000 A 
ATOM     35  C   UNL     1      -7.181   3.969 120.347  0.00  0.00    +0.000 A 
ATOM     36  C   UNL     1      -8.912   3.806 120.253  0.00  0.00    +0.000 C 
ENDBRANCH  27  30
ENDBRANCH  23  24
ENDBRANCH   1  23
TORSDOF 9
ENDMDL
MODEL 3
REMARK VINA RESULT:      -9.4      2.963      6.571
REMARK  Name = CHEMBL456464
REMARK  13 active torsions:
REMARK  status: ('A' for Active; 'I' for Inactive)
REMARK    1  A    between atoms: C_1  and  O_2
REMARK    2  A    between atoms: O_2  and  C_3
REMARK    3  A    between atoms: C_6  and  S_7
REMARK    4  A    between atoms: S_7  and  N_10
REMARK    5  A    between atoms: N_10  and  C_11
REMARK    6  A    between atoms: N_10  and  C_25
REMARK    7  A    between atoms: C_11  and  C_12
REMARK    8  A    between atoms: C_15  and  C_16
REMARK    9  A    between atoms: C_21  and  C_22
REMARK   10  A    between atoms: C_28  and  O_29
REMARK   11  A    between atoms: O_29  and  C_30
REMARK   12  A    between atoms: C_33  and  O_34
REMARK   13  A    between atoms: O_34  and  C_35
REMARK                            x       y       z     vdW  Elec       q    Type
REMARK                         _______ _______ _______ _____ _____    ______ ____
ROOT
ATOM      1  N   UNL     1      -7.147   1.400 127.851  0.00  0.00    +0.000 N 
ENDROOT
BRANCH   1   2
ATOM      2  C   UNL     1      -5.875   2.089 127.804  0.00  0.00    +0.000 A 
ATOM      3  C   UNL     1      -5.300   2.648 128.931  0.00  0.00    +0.000 A 
ATOM      4  C   UNL     1      -4.002   3.148 128.854  0.00  0.00    +0.000 A 
ATOM      5  C   UNL     1      -3.289   3.061 127.663  0.00  0.00    +0.000 A 
ATOM      6  N   UNL     1      -3.817   2.515 126.550  0.00  0.00    +0.000 NA
ATOM      7  C   UNL     1      -5.092   2.060 126.645  0.00  0.00    +0.000 A 
BRANCH   5   8
ATOM      8  O   UNL     1      -2.002   3.510 127.516  0.00  0.00    +0.000 OA
ATOM      9  C   UNL     1      -1.281   2.965 126.413  0.00  0.00    +0.000 C 
ENDBRANCH   5   8
ENDBRANCH   1   2
BRANCH   1  10
ATOM     10  S   UNL     1      -7.117  -0.301 127.996  0.00  0.00    +0.000 S 
ATOM     11  O   UNL     1      -5.811  -0.734 128.448  0.00  0.00    +0.000 OA
ATOM     12  O   UNL     1      -7.641  -0.864 126.761  0.00  0.00    +0.000 OA
BRANCH  10  16
ATOM     13  C   UNL     1      -6.843  -0.971 133.051  0.00  0.00    +0.000 A 
ATOM     14  C   UNL     1      -7.733   0.412 132.366  0.00  0.00    +0.000 A 
ATOM     15  C   UNL     1      -8.277   0.473 130.670  0.00  0.00    +0.000 A 
ATOM     16  C   UNL     1      -8.107  -0.800 129.482  0.00  0.00    +0.000 A 
ATOM     17  C   UNL     1      -7.528  -2.224 130.056  0.00  0.00    +0.000 A 
ATOM     18  C   UNL     1      -6.613  -2.437 131.921  0.00  0.00    +0.000 A 
BRANCH  13  20
ATOM     19  C   UNL     1      -5.502  -1.000 134.798  0.00  0.00    +0.000 C 
ATOM     20  O   UNL     1      -6.810  -0.818 134.421  0.00  0.00    +0.000 OA
ENDBRANCH  13  20
BRANCH  17  21
ATOM     21  O   UNL     1      -7.415  -3.695 128.968  0.00  0.00    +0.000 OA
ATOM     22  C   UNL     1      -9.048  -4.123 128.021  0.00  0.00    +0.000 C 
ENDBRANCH  17  21
ENDBRANCH  10  16
ENDBRANCH   1  10
BRANCH   1  23
ATOM     23  C   UNL     1      -8.350   2.303 127.508  0.00  0.00    +0.000 C 
BRANCH  23  24
ATOM     24  C   UNL     1      -8.737   2.826 125.740  0.00  0.00    +0.000 A 
ATOM     25  C   UNL     1      -7.935   1.759 124.250  0.00  0.00    +0.000 A 
ATOM     26  C   UNL     1      -6.739   2.110 123.362  0.00  0.00    +0.000 A 
ATOM     27  C   UNL     1      -6.314   3.737 123.601  0.00  0.00    +0.000 A 
ATOM     28  C   UNL     1      -7.314   4.859 125.010  0.00  0.00    +0.000 A 
ATOM     29  N   UNL     1      -8.502   4.336 125.964  0.00  0.00    +0.000 NA
BRANCH  27  30
ATOM     30  C   UNL     1      -6.146   3.808 121.932  0.00  0.00    +0.000 A 
ATOM     31  C   UNL     1      -4.853   4.260 121.785  0.00  0.00    +0.000 A 
ATOM     32  C   UNL     1      -4.584   5.161 120.799  0.00  0.00    +0.000 A 
ATOM     33  C   UNL     1      -5.422   5.247 119.700  0.00  0.00    +0.000 A 
ATOM     34  C   UNL     1      -6.667   4.558 119.649  0.00  0.00    +0.000 A 
ATOM     35  C   UNL     1      -7.153   3.806 120.779  0.00  0.00    +0.000 A 
ATOM     36  C   UNL     1      -8.875   3.550 120.832  0.00  0.00    +0.000 C 
ENDBRANCH  27  30
ENDBRANCH  23  24
ENDBRANCH   1  23
TORSDOF 9
ENDMDL
MODEL 4
REMARK VINA RESULT:      -9.4      3.544      6.970
REMARK  Name = CHEMBL456464
REMARK  13 active torsions:
REMARK  status: ('A' for Active; 'I' for Inactive)
REMARK    1  A    between atoms: C_1  and  O_2
REMARK    2  A    between atoms: O_2  and  C_3
REMARK    3  A    between atoms: C_6  and  S_7
REMARK    4  A    between atoms: S_7  and  N_10
REMARK    5  A    between atoms: N_10  and  C_11
REMARK    6  A    between atoms: N_10  and  C_25
REMARK    7  A    between atoms: C_11  and  C_12
REMARK    8  A    between atoms: C_15  and  C_16
REMARK    9  A    between atoms: C_21  and  C_22
REMARK   10  A    between atoms: C_28  and  O_29
REMARK   11  A    between atoms: O_29  and  C_30
REMARK   12  A    between atoms: C_33  and  O_34
REMARK   13  A    between atoms: O_34  and  C_35
REMARK                            x       y       z     vdW  Elec       q    Type
REMARK                         _______ _______ _______ _____ _____    ______ ____
ROOT
ATOM      1  N   UNL     1      -7.271   0.543 126.997  0.00  0.00    +0.000 N 
ENDROOT
BRANCH   1   2
ATOM      2  C   UNL     1      -6.934  -0.546 126.105  0.00  0.00    +0.000 A 
ATOM      3  C   UNL     1      -5.740  -0.582 125.408  0.00  0.00    +0.000 A 
ATOM      4  C   UNL     1      -5.401  -1.732 124.698  0.00  0.00    +0.000 A 
ATOM      5  C   UNL     1      -6.246  -2.837 124.715  0.00  0.00    +0.000 A 
ATOM      6  N   UNL     1      -7.412  -2.838 125.392  0.00  0.00    +0.000 NA
ATOM      7  C   UNL     1      -7.729  -1.696 126.052  0.00  0.00    +0.000 A 
BRANCH   5   8
ATOM      8  O   UNL     1      -5.972  -4.010 124.062  0.00  0.00    +0.000 OA
ATOM      9  C   UNL     1      -4.590  -4.294 123.856  0.00  0.00    +0.000 C 
ENDBRANCH   5   8
ENDBRANCH   1   2
BRANCH   1  10
ATOM     10  S   UNL     1      -6.301   0.752 128.387  0.00  0.00    +0.000 S 
ATOM     11  O   UNL     1      -5.714   2.077 128.383  0.00  0.00    +0.000 OA
ATOM     12  O   UNL     1      -5.413  -0.396 128.489  0.00  0.00    +0.000 OA
BRANCH  10  16
ATOM     13  C   UNL     1      -6.380   0.410 133.482  0.00  0.00    +0.000 A 
ATOM     14  C   UNL     1      -6.443   1.999 132.678  0.00  0.00    +0.000 A 
ATOM     15  C   UNL     1      -6.890   2.204 130.965  0.00  0.00    +0.000 A 
ATOM     16  C   UNL     1      -7.399   0.938 129.870  0.00  0.00    +0.000 A 
ATOM     17  C   UNL     1      -7.624  -0.536 130.556  0.00  0.00    +0.000 A 
ATOM     18  C   UNL     1      -6.935  -1.047 132.459  0.00  0.00    +0.000 A 
BRANCH  13  20
ATOM     19  C   UNL     1      -5.159  -0.075 135.249  0.00  0.00    +0.000 C 
ATOM     20  O   UNL     1      -6.266   0.626 134.839  0.00  0.00    +0.000 OA
ENDBRANCH  13  20
BRANCH  17  21
ATOM     21  O   UNL     1      -8.282  -1.935 129.571  0.00  0.00    +0.000 OA
ATOM     22  C   UNL     1      -7.032  -3.391 129.308  0.00  0.00    +0.000 C 
ENDBRANCH  17  21
ENDBRANCH  10  16
ENDBRANCH   1  10
BRANCH   1  23
ATOM     23  C   UNL     1      -8.629   1.203 126.678  0.00  0.00    +0.000 C 
BRANCH  23  24
ATOM     24  C   UNL     1      -8.972   2.035 125.024  0.00  0.00    +0.000 A 
ATOM     25  C   UNL     1      -8.146   1.241 123.384  0.00  0.00    +0.000 A 
ATOM     26  C   UNL     1      -6.928   1.730 122.597  0.00  0.00    +0.000 A 
ATOM     27  C   UNL     1      -6.497   3.284 123.130  0.00  0.00    +0.000 A 
ATOM     28  C   UNL     1      -7.520   4.149 124.695  0.00  0.00    +0.000 A 
ATOM     29  N   UNL     1      -8.732   3.479 125.517  0.00  0.00    +0.000 NA
BRANCH  27  30
ATOM     30  C   UNL     1      -6.292   3.649 121.504  0.00  0.00    +0.000 A 
ATOM     31  C   UNL     1      -4.968   4.027 121.452  0.00  0.00    +0.000 A 
ATOM     32  C   UNL     1      -4.619   5.072 120.650  0.00  0.00    +0.000 A 
ATOM     33  C   UNL     1      -5.428   5.417 119.581  0.00  0.00    +0.000 A 
ATOM     34  C   UNL     1      -6.715   4.839 119.395  0.00  0.00    +0.000 A 
ATOM     35  C   UNL     1      -7.274   3.930 120.364  0.00  0.00    +0.000 A 
ATOM     36  C   UNL     1      -9.010   3.791 120.357  0.00  0.00    +0.000 C 
ENDBRANCH  27  30
ENDBRANCH  23  24
ENDBRANCH   1  23
TORSDOF 9
ENDMDL
MODEL 5
REMARK VINA RESULT:      -9.3      4.995      9.169
REMARK  Name = CHEMBL456464
REMARK  13 active torsions:
REMARK  status: ('A' for Active; 'I' for Inactive)
REMARK    1  A    between atoms: C_1  and  O_2
REMARK    2  A    between atoms: O_2  and  C_3
REMARK    3  A    between atoms: C_6  and  S_7
REMARK    4  A    between atoms: S_7  and  N_10
REMARK    5  A    between atoms: N_10  and  C_11
REMARK    6  A    between atoms: N_10  and  C_25
REMARK    7  A    between atoms: C_11  and  C_12
REMARK    8  A    between atoms: C_15  and  C_16
REMARK    9  A    between atoms: C_21  and  C_22
REMARK   10  A    between atoms: C_28  and  O_29
REMARK   11  A    between atoms: O_29  and  C_30
REMARK   12  A    between atoms: C_33  and  O_34
REMARK   13  A    between atoms: O_34  and  C_35
REMARK                            x       y       z     vdW  Elec       q    Type
REMARK                         _______ _______ _______ _____ _____    ______ ____
ROOT
ATOM      1  N   UNL     1      -8.682   4.719 130.318  0.00  0.00    +0.000 N 
ENDROOT
BRANCH   1   2
ATOM      2  C   UNL     1      -9.811   5.598 130.103  0.00  0.00    +0.000 A 
ATOM      3  C   UNL     1      -9.654   6.954 129.876  0.00  0.00    +0.000 A 
ATOM      4  C   UNL     1     -10.762   7.714 129.510  0.00  0.00    +0.000 A 
ATOM      5  C   UNL     1     -12.004   7.108 129.351  0.00  0.00    +0.000 A 
ATOM      6  N   UNL     1     -12.189   5.788 129.554  0.00  0.00    +0.000 NA
ATOM      7  C   UNL     1     -11.098   5.077 129.936  0.00  0.00    +0.000 A 
BRANCH   5   8
ATOM      8  O   UNL     1     -13.134   7.784 128.972  0.00  0.00    +0.000 OA
ATOM      9  C   UNL     1     -12.988   9.194 128.818  0.00  0.00    +0.000 C 
ENDBRANCH   5   8
ENDBRANCH   1   2
BRANCH   1  10
ATOM     10  S   UNL     1      -8.112   4.545 131.919  0.00  0.00    +0.000 S 
ATOM     11  O   UNL     1      -6.990   3.629 131.946  0.00  0.00    +0.000 OA
ATOM     12  O   UNL     1      -9.256   4.260 132.772  0.00  0.00    +0.000 OA
BRANCH  10  16
ATOM     13  C   UNL     1      -3.491   6.708 132.145  0.00  0.00    +0.000 A 
ATOM     14  C   UNL     1      -4.688   7.249 130.941  0.00  0.00    +0.000 A 
ATOM     15  C   UNL     1      -6.432   6.907 131.084  0.00  0.00    +0.000 A 
ATOM     16  C   UNL     1      -7.221   6.094 132.417  0.00  0.00    +0.000 A 
ATOM     17  C   UNL     1      -6.262   5.767 133.708  0.00  0.00    +0.000 A 
ATOM     18  C   UNL     1      -4.177   5.857 133.656  0.00  0.00    +0.000 A 
BRANCH  13  20
ATOM     19  C   UNL     1      -1.391   6.374 131.572  0.00  0.00    +0.000 C 
ATOM     20  O   UNL     1      -2.302   7.354 131.880  0.00  0.00    +0.000 OA
ENDBRANCH  13  20
BRANCH  17  21
ATOM     21  O   UNL     1      -6.966   5.037 135.235  0.00  0.00    +0.000 OA
ATOM     22  C   UNL     1      -7.723   6.325 136.467  0.00  0.00    +0.000 C 
ENDBRANCH  17  21
ENDBRANCH  10  16
ENDBRANCH   1  10
BRANCH   1  23
ATOM     23  C   UNL     1      -7.999   4.261 129.012  0.00  0.00    +0.000 C 
BRANCH  23  24
ATOM     24  C   UNL     1      -7.450   2.480 128.741  0.00  0.00    +0.000 A 
ATOM     25  C   UNL     1      -5.796   2.163 127.663  0.00  0.00    +0.000 A 
ATOM     26  C   UNL     1      -5.679   1.695 126.210  0.00  0.00    +0.000 A 
ATOM     27  C   UNL     1      -7.197   1.162 125.664  0.00  0.00    +0.000 A 
ATOM     28  C   UNL     1      -8.841   1.320 126.895  0.00  0.00    +0.000 A 
ATOM     29  N   UNL     1      -8.850   1.933 128.385  0.00  0.00    +0.000 NA
BRANCH  27  30
ATOM     30  C   UNL     1      -6.358  -0.114 124.966  0.00  0.00    +0.000 A 
ATOM     31  C   UNL     1      -6.710  -0.007 123.639  0.00  0.00    +0.000 A 
ATOM     32  C   UNL     1      -6.942  -1.147 122.931  0.00  0.00    +0.000 A 
ATOM     33  C   UNL     1      -6.384  -2.343 123.352  0.00  0.00    +0.000 A 
ATOM     34  C   UNL     1      -5.727  -2.463 124.609  0.00  0.00    +0.000 A 
ATOM     35  C   UNL     1      -5.690  -1.365 125.542  0.00  0.00    +0.000 A 
ATOM     36  C   UNL     1      -5.434  -1.798 127.209  0.00  0.00    +0.000 C 
ENDBRANCH  27  30
ENDBRANCH  23  24
ENDBRANCH   1  23
TORSDOF 9
ENDMDL
MODEL 6
REMARK VINA RESULT:      -9.2      2.010      3.013
REMARK  Name = CHEMBL456464
REMARK  13 active torsions:
REMARK  status: ('A' for Active; 'I' for Inactive)
REMARK    1  A    between atoms: C_1  and  O_2
REMARK    2  A    between atoms: O_2  and  C_3
REMARK    3  A    between atoms: C_6  and  S_7
REMARK    4  A    between atoms: S_7  and  N_10
REMARK    5  A    between atoms: N_10  and  C_11
REMARK    6  A    between atoms: N_10  and  C_25
REMARK    7  A    between atoms: C_11  and  C_12
REMARK    8  A    between atoms: C_15  and  C_16
REMARK    9  A    between atoms: C_21  and  C_22
REMARK   10  A    between atoms: C_28  and  O_29
REMARK   11  A    between atoms: O_29  and  C_30
REMARK   12  A    between atoms: C_33  and  O_34
REMARK   13  A    between atoms: O_34  and  C_35
REMARK                            x       y       z     vdW  Elec       q    Type
REMARK                         _______ _______ _______ _____ _____    ______ ____
ROOT
ATOM      1  N   UNL     1      -8.356  -0.277 124.840  0.00  0.00    +0.000 N 
ENDROOT
BRANCH   1   2
ATOM      2  C   UNL     1      -8.143   0.878 123.995  0.00  0.00    +0.000 A 
ATOM      3  C   UNL     1      -6.895   1.205 123.498  0.00  0.00    +0.000 A 
ATOM      4  C   UNL     1      -6.784   2.228 122.558  0.00  0.00    +0.000 A 
ATOM      5  C   UNL     1      -7.921   2.891 122.110  0.00  0.00    +0.000 A 
ATOM      6  N   UNL     1      -9.153   2.591 122.567  0.00  0.00    +0.000 NA
ATOM      7  C   UNL     1      -9.229   1.609 123.502  0.00  0.00    +0.000 A 
BRANCH   5   8
ATOM      8  O   UNL     1      -7.896   3.891 121.173  0.00  0.00    +0.000 OA
ATOM      9  C   UNL     1      -8.972   3.887 120.237  0.00  0.00    +0.000 C 
ENDBRANCH   5   8
ENDBRANCH   1   2
BRANCH   1  10
ATOM     10  S   UNL     1      -8.414  -1.807 124.083  0.00  0.00    +0.000 S 
ATOM     11  O   UNL     1      -7.422  -1.873 123.028  0.00  0.00    +0.000 OA
ATOM     12  O   UNL     1      -9.801  -2.086 123.744  0.00  0.00    +0.000 OA
BRANCH  10  16
ATOM     13  C   UNL     1      -7.020  -2.621 128.928  0.00  0.00    +0.000 A 
ATOM     14  C   UNL     1      -8.477  -3.400 128.260  0.00  0.00    +0.000 A 
ATOM     15  C   UNL     1      -8.776  -3.561 126.510  0.00  0.00    +0.000 A 
ATOM     16  C   UNL     1      -7.691  -3.076 125.226  0.00  0.00    +0.000 A 
ATOM     17  C   UNL     1      -6.207  -2.574 125.712  0.00  0.00    +0.000 A 
ATOM     18  C   UNL     1      -5.738  -2.082 127.686  0.00  0.00    +0.000 A 
BRANCH  13  20
ATOM     19  C   UNL     1      -5.886  -2.221 130.773  0.00  0.00    +0.000 C 
ATOM     20  O   UNL     1      -6.974  -2.897 130.278  0.00  0.00    +0.000 OA
ENDBRANCH  13  20
BRANCH  17  21
ATOM     21  O   UNL     1      -4.911  -2.157 124.484  0.00  0.00    +0.000 OA
ATOM     22  C   UNL     1      -4.306  -3.653 123.414  0.00  0.00    +0.000 C 
ENDBRANCH  17  21
ENDBRANCH  10  16
ENDBRANCH   1  10
BRANCH   1  23
ATOM     23  C   UNL     1      -8.752   0.082 126.287  0.00  0.00    +0.000 C 
BRANCH  23  24
ATOM     24  C   UNL     1      -8.141   1.650 127.132  0.00  0.00    +0.000 A 
ATOM     25  C   UNL     1      -6.659   2.671 126.257  0.00  0.00    +0.000 A 
ATOM     26  C   UNL     1      -5.177   2.713 126.636  0.00  0.00    +0.000 A 
ATOM     27  C   UNL     1      -4.960   1.979 128.152  0.00  0.00    +0.000 A 
ATOM     28  C   UNL     1      -6.566   1.120 129.113  0.00  0.00    +0.000 A 
ATOM     29  N   UNL     1      -8.075   1.052 128.554  0.00  0.00    +0.000 NA
BRANCH  27  30
ATOM     30  C   UNL     1      -3.928   3.262 128.485  0.00  0.00    +0.000 A 
ATOM     31  C   UNL     1      -4.695   4.049 129.315  0.00  0.00    +0.000 A 
ATOM     32  C   UNL     1      -4.630   5.403 129.175  0.00  0.00    +0.000 A 
ATOM     33  C   UNL     1      -3.514   5.981 128.593  0.00  0.00    +0.000 A 
ATOM     34  C   UNL     1      -2.506   5.198 127.962  0.00  0.00    +0.000 A 
ATOM     35  C   UNL     1      -2.646   3.770 127.821  0.00  0.00    +0.000 A 
ATOM     36  C   UNL     1      -1.713   3.042 126.543  0.00  0.00    +0.000 C 
ENDBRANCH  27  30
ENDBRANCH  23  24
ENDBRANCH   1  23
TORSDOF 9
ENDMDL
MODEL 7
REMARK VINA RESULT:      -9.2      4.531      7.296
REMARK  Name = CHEMBL456464
REMARK  13 active torsions:
REMARK  status: ('A' for Active; 'I' for Inactive)
REMARK    1  A    between atoms: C_1  and  O_2
REMARK    2  A    between atoms: O_2  and  C_3
REMARK    3  A    between atoms: C_6  and  S_7
REMARK    4  A    between atoms: S_7  and  N_10
REMARK    5  A    between atoms: N_10  and  C_11
REMARK    6  A    between atoms: N_10  and  C_25
REMARK    7  A    between atoms: C_11  and  C_12
REMARK    8  A    between atoms: C_15  and  C_16
REMARK    9  A    between atoms: C_21  and  C_22
REMARK   10  A    between atoms: C_28  and  O_29
REMARK   11  A    between atoms: O_29  and  C_30
REMARK   12  A    between atoms: C_33  and  O_34
REMARK   13  A    between atoms: O_34  and  C_35
REMARK                            x       y       z     vdW  Elec       q    Type
REMARK                         _______ _______ _______ _____ _____    ______ ____
ROOT
ATOM      1  N   UNL     1      -9.613   4.732 131.858  0.00  0.00    +0.000 N 
ENDROOT
BRANCH   1   2
ATOM      2  C   UNL     1     -10.371   5.867 131.375  0.00  0.00    +0.000 A 
ATOM      3  C   UNL     1      -9.941   6.639 130.312  0.00  0.00    +0.000 A 
ATOM      4  C   UNL     1     -10.792   7.609 129.788  0.00  0.00    +0.000 A 
ATOM      5  C   UNL     1     -12.068   7.777 130.315  0.00  0.00    +0.000 A 
ATOM      6  N   UNL     1     -12.522   7.035 131.345  0.00  0.00    +0.000 NA
ATOM      7  C   UNL     1     -11.662   6.115 131.853  0.00  0.00    +0.000 A 
BRANCH   5   8
ATOM      8  O   UNL     1     -12.970   8.694 129.841  0.00  0.00    +0.000 OA
ATOM      9  C   UNL     1     -13.061   8.792 128.421  0.00  0.00    +0.000 C 
ENDBRANCH   5   8
ENDBRANCH   1   2
BRANCH   1  10
ATOM     10  S   UNL     1      -9.768   3.260 131.007  0.00  0.00    +0.000 S 
ATOM     11  O   UNL     1     -10.697   3.422 129.907  0.00  0.00    +0.000 OA
ATOM     12  O   UNL     1     -10.027   2.208 131.978  0.00  0.00    +0.000 OA
BRANCH  10  16
ATOM     13  C   UNL     1      -8.007   2.566 126.264  0.00  0.00    +0.000 A 
ATOM     14  C   UNL     1      -7.695   4.089 127.134  0.00  0.00    +0.000 A 
ATOM     15  C   UNL     1      -7.845   4.246 128.903  0.00  0.00    +0.000 A 
ATOM     16  C   UNL     1      -8.223   2.960 130.028  0.00  0.00    +0.000 A 
ATOM     17  C   UNL     1      -8.285   1.455 129.378  0.00  0.00    +0.000 A 
ATOM     18  C   UNL     1      -8.383   1.080 127.326  0.00  0.00    +0.000 A 
BRANCH  13  20
ATOM     19  C   UNL     1      -8.651   2.600 124.158  0.00  0.00    +0.000 C 
ATOM     20  O   UNL     1      -7.550   2.715 124.972  0.00  0.00    +0.000 OA
ENDBRANCH  13  20
BRANCH  17  21
ATOM     21  O   UNL     1      -8.540  -0.015 130.444  0.00  0.00    +0.000 OA
ATOM     22  C   UNL     1      -7.772  -1.653 129.753  0.00  0.00    +0.000 C 
ENDBRANCH  17  21
ENDBRANCH  10  16
ENDBRANCH   1  10
BRANCH   1  23
ATOM     23  C   UNL     1      -8.963   4.968 133.237  0.00  0.00    +0.000 C 
BRANCH  23  24
ATOM     24  C   UNL     1      -7.118   5.293 133.432  0.00  0.00    +0.000 A 
ATOM     25  C   UNL     1      -6.219   6.448 132.067  0.00  0.00    +0.000 A 
ATOM     26  C   UNL     1      -5.323   6.024 130.901  0.00  0.00    +0.000 A 
ATOM     27  C   UNL     1      -4.910   4.386 131.071  0.00  0.00    +0.000 A 
ATOM     28  C   UNL     1      -5.702   3.286 132.622  0.00  0.00    +0.000 A 
ATOM     29  N   UNL     1      -6.729   3.830 133.738  0.00  0.00    +0.000 NA
BRANCH  27  30
ATOM     30  C   UNL     1      -3.361   4.859 130.624  0.00  0.00    +0.000 A 
ATOM     31  C   UNL     1      -2.672   4.773 131.814  0.00  0.00    +0.000 A 
ATOM     32  C   UNL     1      -1.747   5.730 132.103  0.00  0.00    +0.000 A 
ATOM     33  C   UNL     1      -1.168   6.458 131.077  0.00  0.00    +0.000 A 
ATOM     34  C   UNL     1      -1.641   6.376 129.738  0.00  0.00    +0.000 A 
ATOM     35  C   UNL     1      -2.806   5.594 129.402  0.00  0.00    +0.000 A 
ATOM     36  C   UNL     1      -3.625   6.051 127.935  0.00  0.00    +0.000 C 
ENDBRANCH  27  30
ENDBRANCH  23  24
ENDBRANCH   1  23
TORSDOF 9
ENDMDL
MODEL 8
REMARK VINA RESULT:      -9.1      2.986      6.835
REMARK  Name = CHEMBL456464
REMARK  13 active torsions:
REMARK  status: ('A' for Active; 'I' for Inactive)
REMARK    1  A    between atoms: C_1  and  O_2
REMARK    2  A    between atoms: O_2  and  C_3
REMARK    3  A    between atoms: C_6  and  S_7
REMARK    4  A    between atoms: S_7  and  N_10
REMARK    5  A    between atoms: N_10  and  C_11
REMARK    6  A    between atoms: N_10  and  C_25
REMARK    7  A    between atoms: C_11  and  C_12
REMARK    8  A    between atoms: C_15  and  C_16
REMARK    9  A    between atoms: C_21  and  C_22
REMARK   10  A    between atoms: C_28  and  O_29
REMARK   11  A    between atoms: O_29  and  C_30
REMARK   12  A    between atoms: C_33  and  O_34
REMARK   13  A    between atoms: O_34  and  C_35
REMARK                            x       y       z     vdW  Elec       q    Type
REMARK                         _______ _______ _______ _____ _____    ______ ____
ROOT
ATOM      1  N   UNL     1      -6.708   1.252 127.829  0.00  0.00    +0.000 N 
ENDROOT
BRANCH   1   2
ATOM      2  C   UNL     1      -5.474   1.999 127.718  0.00  0.00    +0.000 A 
ATOM      3  C   UNL     1      -4.684   1.951 126.584  0.00  0.00    +0.000 A 
ATOM      4  C   UNL     1      -3.601   2.819 126.472  0.00  0.00    +0.000 A 
ATOM      5  C   UNL     1      -3.336   3.739 127.481  0.00  0.00    +0.000 A 
ATOM      6  N   UNL     1      -4.092   3.820 128.594  0.00  0.00    +0.000 NA
ATOM      7  C   UNL     1      -5.125   2.944 128.689  0.00  0.00    +0.000 A 
BRANCH   5   8
ATOM      8  O   UNL     1      -2.305   4.640 127.434  0.00  0.00    +0.000 OA
ATOM      9  C   UNL     1      -2.500   5.842 128.174  0.00  0.00    +0.000 C 
ENDBRANCH   5   8
ENDBRANCH   1   2
BRANCH   1  10
ATOM     10  S   UNL     1      -6.592  -0.446 127.971  0.00  0.00    +0.000 S 
ATOM     11  O   UNL     1      -6.082  -1.010 126.738  0.00  0.00    +0.000 OA
ATOM     12  O   UNL     1      -7.861  -0.940 128.483  0.00  0.00    +0.000 OA
BRANCH  10  16
ATOM     13  C   UNL     1      -5.038  -3.719 131.571  0.00  0.00    +0.000 A 
ATOM     14  C   UNL     1      -4.358  -3.791 129.925  0.00  0.00    +0.000 A 
ATOM     15  C   UNL     1      -4.473  -2.440 128.767  0.00  0.00    +0.000 A 
ATOM     16  C   UNL     1      -5.166  -0.864 129.080  0.00  0.00    +0.000 A 
ATOM     17  C   UNL     1      -5.601  -0.585 130.638  0.00  0.00    +0.000 A 
ATOM     18  C   UNL     1      -5.779  -2.085 132.079  0.00  0.00    +0.000 A 
BRANCH  13  20
ATOM     19  C   UNL     1      -5.583  -5.235 133.071  0.00  0.00    +0.000 C 
ATOM     20  O   UNL     1      -4.552  -4.799 132.276  0.00  0.00    +0.000 OA
ENDBRANCH  13  20
BRANCH  17  21
ATOM     21  O   UNL     1      -6.220   1.061 131.155  0.00  0.00    +0.000 OA
ATOM     22  C   UNL     1      -4.997   2.066 132.271  0.00  0.00    +0.000 C 
ENDBRANCH  17  21
ENDBRANCH  10  16
ENDBRANCH   1  10
BRANCH   1  23
ATOM     23  C   UNL     1      -7.968   2.097 127.546  0.00  0.00    +0.000 C 
BRANCH  23  24
ATOM     24  C   UNL     1      -8.453   2.617 125.802  0.00  0.00    +0.000 A 
ATOM     25  C   UNL     1      -7.656   1.611 124.267  0.00  0.00    +0.000 A 
ATOM     26  C   UNL     1      -6.517   2.036 123.337  0.00  0.00    +0.000 A 
ATOM     27  C   UNL     1      -6.172   3.681 123.581  0.00  0.00    +0.000 A 
ATOM     28  C   UNL     1      -7.172   4.732 125.043  0.00  0.00    +0.000 A 
ATOM     29  N   UNL     1      -8.291   4.135 126.036  0.00  0.00    +0.000 NA
BRANCH  27  30
ATOM     30  C   UNL     1      -6.074   3.780 121.907  0.00  0.00    +0.000 A 
ATOM     31  C   UNL     1      -4.799   4.261 121.714  0.00  0.00    +0.000 A 
ATOM     32  C   UNL     1      -4.590   5.181 120.731  0.00  0.00    +0.000 A 
ATOM     33  C   UNL     1      -5.475   5.265 119.669  0.00  0.00    +0.000 A 
ATOM     34  C   UNL     1      -6.706   4.550 119.660  0.00  0.00    +0.000 A 
ATOM     35  C   UNL     1      -7.129   3.772 120.798  0.00  0.00    +0.000 A 
ATOM     36  C   UNL     1      -8.841   3.479 120.918  0.00  0.00    +0.000 C 
ENDBRANCH  27  30
ENDBRANCH  23  24
ENDBRANCH   1  23
TORSDOF 9
ENDMDL
MODEL 9
REMARK VINA RESULT:      -9.1      4.772      8.761
REMARK  Name = CHEMBL456464
REMARK  13 active torsions:
REMARK  status: ('A' for Active; 'I' for Inactive)
REMARK    1  A    between atoms: C_1  and  O_2
REMARK    2  A    between atoms: O_2  and  C_3
REMARK    3  A    between atoms: C_6  and  S_7
REMARK    4  A    between atoms: S_7  and  N_10
REMARK    5  A    between atoms: N_10  and  C_11
REMARK    6  A    between atoms: N_10  and  C_25
REMARK    7  A    between atoms: C_11  and  C_12
REMARK    8  A    between atoms: C_15  and  C_16
REMARK    9  A    between atoms: C_21  and  C_22
REMARK   10  A    between atoms: C_28  and  O_29
REMARK   11  A    between atoms: O_29  and  C_30
REMARK   12  A    between atoms: C_33  and  O_34
REMARK   13  A    between atoms: O_34  and  C_35
REMARK                            x       y       z     vdW  Elec       q    Type
REMARK                         _______ _______ _______ _____ _____    ______ ____
ROOT
ATOM      1  N   UNL     1      -8.391   3.720 130.813  0.00  0.00    +0.000 N 
ENDROOT
BRANCH   1   2
ATOM      2  C   UNL     1      -9.363   4.758 130.547  0.00  0.00    +0.000 A 
ATOM      3  C   UNL     1      -8.993   6.074 130.332  0.00  0.00    +0.000 A 
ATOM      4  C   UNL     1      -9.955   6.991 129.916  0.00  0.00    +0.000 A 
ATOM      5  C   UNL     1     -11.265   6.579 129.695  0.00  0.00    +0.000 A 
ATOM      6  N   UNL     1     -11.657   5.303 129.886  0.00  0.00    +0.000 NA
ATOM      7  C   UNL     1     -10.705   4.436 130.317  0.00  0.00    +0.000 A 
BRANCH   5   8
ATOM      8  O   UNL     1     -12.261   7.416 129.265  0.00  0.00    +0.000 OA
ATOM      9  C   UNL     1     -13.261   6.815 128.444  0.00  0.00    +0.000 C 
ENDBRANCH   5   8
ENDBRANCH   1   2
BRANCH   1  10
ATOM     10  S   UNL     1      -7.922   3.477 132.437  0.00  0.00    +0.000 S 
ATOM     11  O   UNL     1      -7.514   2.101 132.631  0.00  0.00    +0.000 OA
ATOM     12  O   UNL     1      -8.971   4.013 133.290  0.00  0.00    +0.000 OA
BRANCH  10  16
ATOM     13  C   UNL     1      -4.175   6.043 130.101  0.00  0.00    +0.000 A 
ATOM     14  C   UNL     1      -5.291   6.878 131.210  0.00  0.00    +0.000 A 
ATOM     15  C   UNL     1      -6.298   6.019 132.405  0.00  0.00    +0.000 A 
ATOM     16  C   UNL     1      -6.284   4.298 132.723  0.00  0.00    +0.000 A 
ATOM     17  C   UNL     1      -5.117   3.449 131.942  0.00  0.00    +0.000 A 
ATOM     18  C   UNL     1      -4.011   4.201 130.339  0.00  0.00    +0.000 A 
BRANCH  13  20
ATOM     19  C   UNL     1      -3.486   6.809 128.155  0.00  0.00    +0.000 C 
ATOM     20  O   UNL     1      -3.373   6.996 129.510  0.00  0.00    +0.000 OA
ENDBRANCH  13  20
BRANCH  17  21
ATOM     21  O   UNL     1      -4.886   1.659 132.268  0.00  0.00    +0.000 OA
ATOM     22  C   UNL     1      -4.401   0.615 130.711  0.00  0.00    +0.000 C 
ENDBRANCH  17  21
ENDBRANCH  10  16
ENDBRANCH   1  10
BRANCH   1  23
ATOM     23  C   UNL     1      -7.734   3.150 129.539  0.00  0.00    +0.000 C 
BRANCH  23  24
ATOM     24  C   UNL     1      -8.430   1.650 128.638  0.00  0.00    +0.000 A 
ATOM     25  C   UNL     1      -7.548  -0.120 128.943  0.00  0.00    +0.000 A 
ATOM     26  C   UNL     1      -6.584  -0.876 128.025  0.00  0.00    +0.000 A 
ATOM     27  C   UNL     1      -6.568  -0.140 126.494  0.00  0.00    +0.000 A 
ATOM     28  C   UNL     1      -7.663   1.573 126.170  0.00  0.00    +0.000 A 
ATOM     29  N   UNL     1      -8.568   2.338 127.262  0.00  0.00    +0.000 NA
BRANCH  27  30
ATOM     30  C   UNL     1      -6.605  -1.704 125.881  0.00  0.00    +0.000 A 
ATOM     31  C   UNL     1      -5.366  -1.817 125.290  0.00  0.00    +0.000 A 
ATOM     32  C   UNL     1      -5.268  -2.478 124.102  0.00  0.00    +0.000 A 
ATOM     33  C   UNL     1      -6.235  -3.404 123.748  0.00  0.00    +0.000 A 
ATOM     34  C   UNL     1      -7.436  -3.557 124.497  0.00  0.00    +0.000 A 
ATOM     35  C   UNL     1      -7.741  -2.692 125.610  0.00  0.00    +0.000 A 
ATOM     36  C   UNL     1      -9.427  -2.562 126.026  0.00  0.00    +0.000 C 
ENDBRANCH  27  30
ENDBRANCH  23  24
ENDBRANCH   1  23
TORSDOF 9
ENDMDL
