MODEL 1
REMARK VINA RESULT:      -7.7      0.000      0.000
REMARK  Name = CHEMBL1089025
REMARK  8 active torsions:
REMARK  status: ('A' for Active; 'I' for Inactive)
REMARK    1  A    between atoms: C_1  and  C_2
REMARK    2  A    between atoms: C_2  and  N_3
REMARK    3  A    between atoms: N_3  and  C_19
REMARK    4  A    between atoms: C_4  and  C_6
REMARK    5  A    between atoms: C_9  and  C_10
REMARK    6  A    between atoms: C_15  and  C_16
REMARK    7  A    between atoms: C_22  and  O_23
REMARK    8  A    between atoms: O_23  and  C_24
REMARK                            x       y       z     vdW  Elec       q    Type
REMARK                         _______ _______ _______ _____ _____    ______ ____
ROOT
ATOM      1  N   UNL     1      -9.920   5.491 130.465  0.00  0.00    +0.000 N 
ATOM      2  C   UNL     1     -10.460   4.169 130.355  0.00  0.00    +0.000 C 
ATOM      3  O   UNL     1     -11.594   3.942 129.944  0.00  0.00    +0.000 OA
ENDROOT
BRANCH   2   4
ATOM      4  C   UNL     1      -9.660   2.952 130.689  0.00  0.00    +0.000 A 
ATOM      5  C   UNL     1      -8.558   2.597 129.938  0.00  0.00    +0.000 A 
ATOM      6  N   UNL     1      -8.002   1.357 130.006  0.00  0.00    +0.000 NA
ATOM      7  C   UNL     1      -8.455   0.528 130.984  0.00  0.00    +0.000 A 
ATOM      8  C   UNL     1      -9.441   0.976 131.858  0.00  0.00    +0.000 A 
ATOM      9  N   UNL     1     -10.097   2.162 131.709  0.00  0.00    +0.000 NA
BRANCH   7  10
ATOM     10  C   UNL     1      -7.770  -0.770 131.135  0.00  0.00    +0.000 A 
ATOM     11  C   UNL     1      -8.042  -1.848 130.263  0.00  0.00    +0.000 A 
ATOM     12  C   UNL     1      -7.457  -3.105 130.454  0.00  0.00    +0.000 A 
ATOM     13  C   UNL     1      -6.575  -3.307 131.510  0.00  0.00    +0.000 A 
ATOM     14  C   UNL     1      -6.272  -2.255 132.370  0.00  0.00    +0.000 A 
ATOM     15  C   UNL     1      -6.856  -0.990 132.193  0.00  0.00    +0.000 A 
ATOM     16  C   UNL     1      -6.524   0.106 133.174  0.00  0.00    +0.000 C 
ENDBRANCH   7  10
ENDBRANCH   2   4
BRANCH   1  17
ATOM     17  C   UNL     1     -10.821   6.608 130.193  0.00  0.00    +0.000 A 
ATOM     18  C   UNL     1     -11.886   6.925 131.042  0.00  0.00    +0.000 A 
ATOM     19  C   UNL     1     -12.716   8.023 130.779  0.00  0.00    +0.000 A 
ATOM     20  C   UNL     1     -12.499   8.784 129.643  0.00  0.00    +0.000 A 
ATOM     21  N   UNL     1     -11.512   8.486 128.774  0.00  0.00    +0.000 NA
ATOM     22  C   UNL     1     -10.696   7.433 129.074  0.00  0.00    +0.000 A 
BRANCH  20  23
ATOM     23  O   UNL     1     -13.231   9.887 129.293  0.00  0.00    +0.000 OA
ATOM     24  C   UNL     1     -13.397  10.887 130.293  0.00  0.00    +0.000 C 
ENDBRANCH  20  23
ENDBRANCH   1  17
BRANCH   1  26
ATOM     25  C   UNL     1      -8.151   6.087 132.277  0.00  0.00    +0.000 C 
ATOM     26  C   UNL     1      -8.528   5.912 130.825  0.00  0.00    +0.000 C 
ENDBRANCH   1  26
TORSDOF 5
ENDMDL
MODEL 2
REMARK VINA RESULT:      -7.6      1.577      2.437
REMARK  Name = CHEMBL1089025
REMARK  8 active torsions:
REMARK  status: ('A' for Active; 'I' for Inactive)
REMARK    1  A    between atoms: C_1  and  C_2
REMARK    2  A    between atoms: C_2  and  N_3
REMARK    3  A    between atoms: N_3  and  C_19
REMARK    4  A    between atoms: C_4  and  C_6
REMARK    5  A    between atoms: C_9  and  C_10
REMARK    6  A    between atoms: C_15  and  C_16
REMARK    7  A    between atoms: C_22  and  O_23
REMARK    8  A    between atoms: O_23  and  C_24
REMARK                            x       y       z     vdW  Elec       q    Type
REMARK                         _______ _______ _______ _____ _____    ______ ____
ROOT
ATOM      1  N   UNL     1      -9.187   4.234 131.240  0.00  0.00    +0.000 N 
ATOM      2  C   UNL     1      -9.171   3.108 130.353  0.00  0.00    +0.000 C 
ATOM      3  O   UNL     1      -9.661   3.137 129.229  0.00  0.00    +0.000 OA
ENDROOT
BRANCH   2   4
ATOM      4  C   UNL     1      -8.508   1.819 130.715  0.00  0.00    +0.000 A 
ATOM      5  C   UNL     1      -7.248   1.510 130.245  0.00  0.00    +0.000 A 
ATOM      6  N   UNL     1      -6.748   0.245 130.285  0.00  0.00    +0.000 NA
ATOM      7  C   UNL     1      -7.462  -0.681 130.978  0.00  0.00    +0.000 A 
ATOM      8  C   UNL     1      -8.643  -0.303 131.609  0.00  0.00    +0.000 A 
ATOM      9  N   UNL     1      -9.217   0.924 131.458  0.00  0.00    +0.000 NA
BRANCH   7  10
ATOM     10  C   UNL     1      -6.860  -2.020 131.123  0.00  0.00    +0.000 A 
ATOM     11  C   UNL     1      -6.066  -2.350 132.245  0.00  0.00    +0.000 A 
ATOM     12  C   UNL     1      -5.426  -3.591 132.345  0.00  0.00    +0.000 A 
ATOM     13  C   UNL     1      -5.579  -4.534 131.335  0.00  0.00    +0.000 A 
ATOM     14  C   UNL     1      -6.374  -4.243 130.230  0.00  0.00    +0.000 A 
ATOM     15  C   UNL     1      -7.018  -3.001 130.114  0.00  0.00    +0.000 A 
ATOM     16  C   UNL     1      -7.837  -2.720 128.881  0.00  0.00    +0.000 C 
ENDBRANCH   7  10
ENDBRANCH   2   4
BRANCH   1  17
ATOM     17  C   UNL     1      -9.937   5.413 130.814  0.00  0.00    +0.000 A 
ATOM     18  C   UNL     1      -9.330   6.467 130.125  0.00  0.00    +0.000 A 
ATOM     19  C   UNL     1     -10.077   7.572 129.695  0.00  0.00    +0.000 A 
ATOM     20  C   UNL     1     -11.429   7.635 129.988  0.00  0.00    +0.000 A 
ATOM     21  N   UNL     1     -12.043   6.662 130.690  0.00  0.00    +0.000 NA
ATOM     22  C   UNL     1     -11.299   5.580 131.064  0.00  0.00    +0.000 A 
BRANCH  20  23
ATOM     23  O   UNL     1     -12.261   8.653 129.606  0.00  0.00    +0.000 OA
ATOM     24  C   UNL     1     -12.927   8.499 128.357  0.00  0.00    +0.000 C 
ENDBRANCH  20  23
ENDBRANCH   1  17
BRANCH   1  26
ATOM     25  C   UNL     1      -9.172   3.790 133.803  0.00  0.00    +0.000 C 
ATOM     26  C   UNL     1      -8.526   4.388 132.576  0.00  0.00    +0.000 C 
ENDBRANCH   1  26
TORSDOF 5
ENDMDL
MODEL 3
REMARK VINA RESULT:      -7.5      6.409      7.904
REMARK  Name = CHEMBL1089025
REMARK  8 active torsions:
REMARK  status: ('A' for Active; 'I' for Inactive)
REMARK    1  A    between atoms: C_1  and  C_2
REMARK    2  A    between atoms: C_2  and  N_3
REMARK    3  A    between atoms: N_3  and  C_19
REMARK    4  A    between atoms: C_4  and  C_6
REMARK    5  A    between atoms: C_9  and  C_10
REMARK    6  A    between atoms: C_15  and  C_16
REMARK    7  A    between atoms: C_22  and  O_23
REMARK    8  A    between atoms: O_23  and  C_24
REMARK                            x       y       z     vdW  Elec       q    Type
REMARK                         _______ _______ _______ _____ _____    ______ ____
ROOT
ATOM      1  N   UNL     1      -7.574   2.180 123.640  0.00  0.00    +0.000 N 
ATOM      2  C   UNL     1      -7.353   2.935 124.839  0.00  0.00    +0.000 C 
ATOM      3  O   UNL     1      -7.129   4.141 124.837  0.00  0.00    +0.000 OA
ENDROOT
BRANCH   2   4
ATOM      4  C   UNL     1      -7.428   2.313 126.195  0.00  0.00    +0.000 A 
ATOM      5  C   UNL     1      -6.304   1.789 126.801  0.00  0.00    +0.000 A 
ATOM      6  N   UNL     1      -6.379   0.949 127.868  0.00  0.00    +0.000 NA
ATOM      7  C   UNL     1      -7.600   0.787 128.444  0.00  0.00    +0.000 A 
ATOM      8  C   UNL     1      -8.695   1.477 127.932  0.00  0.00    +0.000 A 
ATOM      9  N   UNL     1      -8.653   2.208 126.782  0.00  0.00    +0.000 NA
BRANCH   7  10
ATOM     10  C   UNL     1      -7.660  -0.027 129.673  0.00  0.00    +0.000 A 
ATOM     11  C   UNL     1      -7.619   0.573 130.952  0.00  0.00    +0.000 A 
ATOM     12  C   UNL     1      -7.591  -0.200 132.119  0.00  0.00    +0.000 A 
ATOM     13  C   UNL     1      -7.620  -1.588 132.032  0.00  0.00    +0.000 A 
ATOM     14  C   UNL     1      -7.683  -2.203 130.786  0.00  0.00    +0.000 A 
ATOM     15  C   UNL     1      -7.707  -1.440 129.606  0.00  0.00    +0.000 A 
ATOM     16  C   UNL     1      -7.737  -2.155 128.280  0.00  0.00    +0.000 C 
ENDBRANCH   7  10
ENDBRANCH   2   4
BRANCH   1  17
ATOM     17  C   UNL     1      -7.391   2.875 122.368  0.00  0.00    +0.000 A 
ATOM     18  C   UNL     1      -6.122   3.139 121.844  0.00  0.00    +0.000 A 
ATOM     19  C   UNL     1      -5.972   3.775 120.605  0.00  0.00    +0.000 A 
ATOM     20  C   UNL     1      -7.097   4.177 119.905  0.00  0.00    +0.000 A 
ATOM     21  N   UNL     1      -8.338   3.983 120.396  0.00  0.00    +0.000 NA
ATOM     22  C   UNL     1      -8.456   3.329 121.589  0.00  0.00    +0.000 A 
BRANCH  20  23
ATOM     23  O   UNL     1      -7.075   4.790 118.681  0.00  0.00    +0.000 OA
ATOM     24  C   UNL     1      -6.002   5.693 118.438  0.00  0.00    +0.000 C 
ENDBRANCH  20  23
ENDBRANCH   1  17
BRANCH   1  26
ATOM     25  C   UNL     1      -6.929  -0.338 123.559  0.00  0.00    +0.000 C 
ATOM     26  C   UNL     1      -7.979   0.746 123.493  0.00  0.00    +0.000 C 
ENDBRANCH   1  26
TORSDOF 5
ENDMDL
MODEL 4
REMARK VINA RESULT:      -7.4      6.581      7.904
REMARK  Name = CHEMBL1089025
REMARK  8 active torsions:
REMARK  status: ('A' for Active; 'I' for Inactive)
REMARK    1  A    between atoms: C_1  and  C_2
REMARK    2  A    between atoms: C_2  and  N_3
REMARK    3  A    between atoms: N_3  and  C_19
REMARK    4  A    between atoms: C_4  and  C_6
REMARK    5  A    between atoms: C_9  and  C_10
REMARK    6  A    between atoms: C_15  and  C_16
REMARK    7  A    between atoms: C_22  and  O_23
REMARK    8  A    between atoms: O_23  and  C_24
REMARK                            x       y       z     vdW  Elec       q    Type
REMARK                         _______ _______ _______ _____ _____    ______ ____
ROOT
ATOM      1  N   UNL     1      -6.865   2.831 123.877  0.00  0.00    +0.000 N 
ATOM      2  C   UNL     1      -6.950   1.420 124.108  0.00  0.00    +0.000 C 
ATOM      3  O   UNL     1      -6.981   0.595 123.200  0.00  0.00    +0.000 OA
ENDROOT
BRANCH   2   4
ATOM      4  C   UNL     1      -6.960   0.838 125.484  0.00  0.00    +0.000 A 
ATOM      5  C   UNL     1      -5.887   0.108 125.955  0.00  0.00    +0.000 A 
ATOM      6  N   UNL     1      -5.979  -0.690 127.053  0.00  0.00    +0.000 NA
ATOM      7  C   UNL     1      -7.118  -0.602 127.789  0.00  0.00    +0.000 A 
ATOM      8  C   UNL     1      -8.117   0.285 127.401  0.00  0.00    +0.000 A 
ATOM      9  N   UNL     1      -8.090   0.983 126.230  0.00  0.00    +0.000 NA
BRANCH   7  10
ATOM     10  C   UNL     1      -7.168  -1.377 129.044  0.00  0.00    +0.000 A 
ATOM     11  C   UNL     1      -6.594  -0.879 130.236  0.00  0.00    +0.000 A 
ATOM     12  C   UNL     1      -6.565  -1.646 131.406  0.00  0.00    +0.000 A 
ATOM     13  C   UNL     1      -7.124  -2.919 131.415  0.00  0.00    +0.000 A 
ATOM     14  C   UNL     1      -7.716  -3.424 130.262  0.00  0.00    +0.000 A 
ATOM     15  C   UNL     1      -7.748  -2.668 129.078  0.00  0.00    +0.000 A 
ATOM     16  C   UNL     1      -8.368  -3.274 127.846  0.00  0.00    +0.000 C 
ENDBRANCH   7  10
ENDBRANCH   2   4
BRANCH   1  17
ATOM     17  C   UNL     1      -6.949   3.290 122.492  0.00  0.00    +0.000 A 
ATOM     18  C   UNL     1      -8.167   3.360 121.808  0.00  0.00    +0.000 A 
ATOM     19  C   UNL     1      -8.228   3.837 120.493  0.00  0.00    +0.000 A 
ATOM     20  C   UNL     1      -7.061   4.213 119.849  0.00  0.00    +0.000 A 
ATOM     21  N   UNL     1      -5.861   4.117 120.456  0.00  0.00    +0.000 NA
ATOM     22  C   UNL     1      -5.835   3.684 121.751  0.00  0.00    +0.000 A 
BRANCH  20  23
ATOM     23  O   UNL     1      -7.000   4.708 118.574  0.00  0.00    +0.000 OA
ATOM     24  C   UNL     1      -6.013   5.703 118.323  0.00  0.00    +0.000 C 
ENDBRANCH  20  23
ENDBRANCH   1  17
BRANCH   1  26
ATOM     25  C   UNL     1      -7.911   4.591 125.482  0.00  0.00    +0.000 C 
ATOM     26  C   UNL     1      -6.694   3.938 124.871  0.00  0.00    +0.000 C 
ENDBRANCH   1  26
TORSDOF 5
ENDMDL
MODEL 5
REMARK VINA RESULT:      -7.4      6.677      8.704
REMARK  Name = CHEMBL1089025
REMARK  8 active torsions:
REMARK  status: ('A' for Active; 'I' for Inactive)
REMARK    1  A    between atoms: C_1  and  C_2
REMARK    2  A    between atoms: C_2  and  N_3
REMARK    3  A    between atoms: N_3  and  C_19
REMARK    4  A    between atoms: C_4  and  C_6
REMARK    5  A    between atoms: C_9  and  C_10
REMARK    6  A    between atoms: C_15  and  C_16
REMARK    7  A    between atoms: C_22  and  O_23
REMARK    8  A    between atoms: O_23  and  C_24
REMARK                            x       y       z     vdW  Elec       q    Type
REMARK                         _______ _______ _______ _____ _____    ______ ____
ROOT
ATOM      1  N   UNL     1      -5.975   3.258 125.226  0.00  0.00    +0.000 N 
ATOM      2  C   UNL     1      -5.657   4.486 125.892  0.00  0.00    +0.000 C 
ATOM      3  O   UNL     1      -6.058   5.579 125.505  0.00  0.00    +0.000 OA
ENDROOT
BRANCH   2   4
ATOM      4  C   UNL     1      -4.845   4.524 127.146  0.00  0.00    +0.000 A 
ATOM      5  C   UNL     1      -5.438   4.762 128.370  0.00  0.00    +0.000 A 
ATOM      6  N   UNL     1      -4.717   5.115 129.468  0.00  0.00    +0.000 NA
ATOM      7  C   UNL     1      -3.363   5.042 129.370  0.00  0.00    +0.000 A 
ATOM      8  C   UNL     1      -2.786   4.615 128.179  0.00  0.00    +0.000 A 
ATOM      9  N   UNL     1      -3.494   4.394 127.036  0.00  0.00    +0.000 NA
BRANCH   7  10
ATOM     10  C   UNL     1      -2.586   5.307 130.596  0.00  0.00    +0.000 A 
ATOM     11  C   UNL     1      -1.728   6.426 130.693  0.00  0.00    +0.000 A 
ATOM     12  C   UNL     1      -0.927   6.634 131.822  0.00  0.00    +0.000 A 
ATOM     13  C   UNL     1      -0.978   5.738 132.883  0.00  0.00    +0.000 A 
ATOM     14  C   UNL     1      -1.831   4.640 132.823  0.00  0.00    +0.000 A 
ATOM     15  C   UNL     1      -2.638   4.416 131.695  0.00  0.00    +0.000 A 
ATOM     16  C   UNL     1      -3.517   3.193 131.663  0.00  0.00    +0.000 C 
ENDBRANCH   7  10
ENDBRANCH   2   4
BRANCH   1  17
ATOM     17  C   UNL     1      -6.702   3.350 123.962  0.00  0.00    +0.000 A 
ATOM     18  C   UNL     1      -6.061   3.664 122.759  0.00  0.00    +0.000 A 
ATOM     19  C   UNL     1      -6.773   3.711 121.554  0.00  0.00    +0.000 A 
ATOM     20  C   UNL     1      -8.138   3.477 121.559  0.00  0.00    +0.000 A 
ATOM     21  N   UNL     1      -8.802   3.216 122.703  0.00  0.00    +0.000 NA
ATOM     22  C   UNL     1      -8.078   3.140 123.858  0.00  0.00    +0.000 A 
BRANCH  20  23
ATOM     23  O   UNL     1      -8.932   3.479 120.444  0.00  0.00    +0.000 OA
ATOM     24  C   UNL     1      -8.443   4.190 119.312  0.00  0.00    +0.000 C 
ENDBRANCH  20  23
ENDBRANCH   1  17
BRANCH   1  26
ATOM     25  C   UNL     1      -6.513   1.188 126.707  0.00  0.00    +0.000 C 
ATOM     26  C   UNL     1      -5.668   1.853 125.646  0.00  0.00    +0.000 C 
ENDBRANCH   1  26
TORSDOF 5
ENDMDL
MODEL 6
REMARK VINA RESULT:      -7.4      6.123      8.242
REMARK  Name = CHEMBL1089025
REMARK  8 active torsions:
REMARK  status: ('A' for Active; 'I' for Inactive)
REMARK    1  A    between atoms: C_1  and  C_2
REMARK    2  A    between atoms: C_2  and  N_3
REMARK    3  A    between atoms: N_3  and  C_19
REMARK    4  A    between atoms: C_4  and  C_6
REMARK    5  A    between atoms: C_9  and  C_10
REMARK    6  A    between atoms: C_15  and  C_16
REMARK    7  A    between atoms: C_22  and  O_23
REMARK    8  A    between atoms: O_23  and  C_24
REMARK                            x       y       z     vdW  Elec       q    Type
REMARK                         _______ _______ _______ _____ _____    ______ ____
ROOT
ATOM      1  N   UNL     1      -6.366   3.399 124.798  0.00  0.00    +0.000 N 
ATOM      2  C   UNL     1      -6.744   4.453 125.693  0.00  0.00    +0.000 C 
ATOM      3  O   UNL     1      -6.924   5.609 125.324  0.00  0.00    +0.000 OA
ENDROOT
BRANCH   2   4
ATOM      4  C   UNL     1      -6.997   4.211 127.146  0.00  0.00    +0.000 A 
ATOM      5  C   UNL     1      -8.221   3.753 127.588  0.00  0.00    +0.000 A 
ATOM      6  N   UNL     1      -8.592   3.822 128.895  0.00  0.00    +0.000 NA
ATOM      7  C   UNL     1      -7.638   4.187 129.791  0.00  0.00    +0.000 A 
ATOM      8  C   UNL     1      -6.350   4.464 129.345  0.00  0.00    +0.000 A 
ATOM      9  N   UNL     1      -6.009   4.532 128.027  0.00  0.00    +0.000 NA
BRANCH   7  10
ATOM     10  C   UNL     1      -8.007   4.144 131.220  0.00  0.00    +0.000 A 
ATOM     11  C   UNL     1      -7.944   2.940 131.957  0.00  0.00    +0.000 A 
ATOM     12  C   UNL     1      -8.373   2.878 133.288  0.00  0.00    +0.000 A 
ATOM     13  C   UNL     1      -8.857   4.020 133.915  0.00  0.00    +0.000 A 
ATOM     14  C   UNL     1      -8.908   5.224 133.219  0.00  0.00    +0.000 A 
ATOM     15  C   UNL     1      -8.486   5.301 131.881  0.00  0.00    +0.000 A 
ATOM     16  C   UNL     1      -8.596   6.619 131.160  0.00  0.00    +0.000 C 
ENDBRANCH   7  10
ENDBRANCH   2   4
BRANCH   1  17
ATOM     17  C   UNL     1      -6.063   3.767 123.418  0.00  0.00    +0.000 A 
ATOM     18  C   UNL     1      -6.834   3.312 122.343  0.00  0.00    +0.000 A 
ATOM     19  C   UNL     1      -6.546   3.708 121.031  0.00  0.00    +0.000 A 
ATOM     20  C   UNL     1      -5.461   4.533 120.791  0.00  0.00    +0.000 A 
ATOM     21  N   UNL     1      -4.664   4.957 121.793  0.00  0.00    +0.000 NA
ATOM     22  C   UNL     1      -4.990   4.587 123.066  0.00  0.00    +0.000 A 
BRANCH  20  23
ATOM     23  O   UNL     1      -5.093   4.998 119.556  0.00  0.00    +0.000 OA
ATOM     24  C   UNL     1      -6.124   5.564 118.754  0.00  0.00    +0.000 C 
ENDBRANCH  20  23
ENDBRANCH   1  17
BRANCH   1  26
ATOM     25  C   UNL     1      -7.470   1.061 125.089  0.00  0.00    +0.000 C 
ATOM     26  C   UNL     1      -6.236   1.932 125.075  0.00  0.00    +0.000 C 
ENDBRANCH   1  26
TORSDOF 5
ENDMDL
MODEL 7
REMARK VINA RESULT:      -7.3      2.671      9.395
REMARK  Name = CHEMBL1089025
REMARK  8 active torsions:
REMARK  status: ('A' for Active; 'I' for Inactive)
REMARK    1  A    between atoms: C_1  and  C_2
REMARK    2  A    between atoms: C_2  and  N_3
REMARK    3  A    between atoms: N_3  and  C_19
REMARK    4  A    between atoms: C_4  and  C_6
REMARK    5  A    between atoms: C_9  and  C_10
REMARK    6  A    between atoms: C_15  and  C_16
REMARK    7  A    between atoms: C_22  and  O_23
REMARK    8  A    between atoms: O_23  and  C_24
REMARK                            x       y       z     vdW  Elec       q    Type
REMARK                         _______ _______ _______ _____ _____    ______ ____
ROOT
ATOM      1  N   UNL     1      -7.652   1.334 130.438  0.00  0.00    +0.000 N 
ATOM      2  C   UNL     1      -8.404   2.057 131.421  0.00  0.00    +0.000 C 
ATOM      3  O   UNL     1      -8.455   1.723 132.600  0.00  0.00    +0.000 OA
ENDROOT
BRANCH   2   4
ATOM      4  C   UNL     1      -9.151   3.308 131.089  0.00  0.00    +0.000 A 
ATOM      5  C   UNL     1     -10.450   3.259 130.626  0.00  0.00    +0.000 A 
ATOM      6  N   UNL     1     -11.046   4.324 130.024  0.00  0.00    +0.000 NA
ATOM      7  C   UNL     1     -10.380   5.508 130.059  0.00  0.00    +0.000 A 
ATOM      8  C   UNL     1      -9.147   5.581 130.701  0.00  0.00    +0.000 A 
ATOM      9  N   UNL     1      -8.485   4.492 131.183  0.00  0.00    +0.000 NA
BRANCH   7  10
ATOM     10  C   UNL     1     -11.078   6.688 129.513  0.00  0.00    +0.000 A 
ATOM     11  C   UNL     1     -10.783   7.182 128.223  0.00  0.00    +0.000 A 
ATOM     12  C   UNL     1     -11.382   8.350 127.735  0.00  0.00    +0.000 A 
ATOM     13  C   UNL     1     -12.301   9.038 128.520  0.00  0.00    +0.000 A 
ATOM     14  C   UNL     1     -12.626   8.560 129.786  0.00  0.00    +0.000 A 
ATOM     15  C   UNL     1     -12.029   7.393 130.290  0.00  0.00    +0.000 A 
ATOM     16  C   UNL     1     -12.387   6.937 131.681  0.00  0.00    +0.000 C 
ENDBRANCH   7  10
ENDBRANCH   2   4
BRANCH   1  17
ATOM     17  C   UNL     1      -7.032   0.079 130.857  0.00  0.00    +0.000 A 
ATOM     18  C   UNL     1      -7.683  -1.151 130.716  0.00  0.00    +0.000 A 
ATOM     19  C   UNL     1      -7.055  -2.345 131.092  0.00  0.00    +0.000 A 
ATOM     20  C   UNL     1      -5.785  -2.303 131.643  0.00  0.00    +0.000 A 
ATOM     21  N   UNL     1      -5.142  -1.135 131.839  0.00  0.00    +0.000 NA
ATOM     22  C   UNL     1      -5.762   0.011 131.430  0.00  0.00    +0.000 A 
BRANCH  20  23
ATOM     23  O   UNL     1      -5.068  -3.403 132.031  0.00  0.00    +0.000 OA
ATOM     24  C   UNL     1      -5.563  -4.670 131.611  0.00  0.00    +0.000 C 
ENDBRANCH  20  23
ENDBRANCH   1  17
BRANCH   1  26
ATOM     25  C   UNL     1      -8.440   1.379 127.960  0.00  0.00    +0.000 C 
ATOM     26  C   UNL     1      -7.394   1.686 129.005  0.00  0.00    +0.000 C 
ENDBRANCH   1  26
TORSDOF 5
ENDMDL
MODEL 8
REMARK VINA RESULT:      -7.2      6.667      8.377
REMARK  Name = CHEMBL1089025
REMARK  8 active torsions:
REMARK  status: ('A' for Active; 'I' for Inactive)
REMARK    1  A    between atoms: C_1  and  C_2
REMARK    2  A    between atoms: C_2  and  N_3
REMARK    3  A    between atoms: N_3  and  C_19
REMARK    4  A    between atoms: C_4  and  C_6
REMARK    5  A    between atoms: C_9  and  C_10
REMARK    6  A    between atoms: C_15  and  C_16
REMARK    7  A    between atoms: C_22  and  O_23
REMARK    8  A    between atoms: O_23  and  C_24
REMARK                            x       y       z     vdW  Elec       q    Type
REMARK                         _______ _______ _______ _____ _____    ______ ____
ROOT
ATOM      1  N   UNL     1      -3.788   3.715 127.937  0.00  0.00    +0.000 N 
ATOM      2  C   UNL     1      -5.164   3.915 127.590  0.00  0.00    +0.000 C 
ATOM      3  O   UNL     1      -5.815   4.882 127.971  0.00  0.00    +0.000 OA
ENDROOT
BRANCH   2   4
ATOM      4  C   UNL     1      -5.902   2.977 126.690  0.00  0.00    +0.000 A 
ATOM      5  C   UNL     1      -6.694   1.972 127.206  0.00  0.00    +0.000 A 
ATOM      6  N   UNL     1      -7.119   0.923 126.450  0.00  0.00    +0.000 NA
ATOM      7  C   UNL     1      -6.892   0.992 125.112  0.00  0.00    +0.000 A 
ATOM      8  C   UNL     1      -6.255   2.110 124.582  0.00  0.00    +0.000 A 
ATOM      9  N   UNL     1      -5.706   3.095 125.347  0.00  0.00    +0.000 NA
BRANCH   7  10
ATOM     10  C   UNL     1      -7.458  -0.086 124.279  0.00  0.00    +0.000 A 
ATOM     11  C   UNL     1      -8.708   0.063 123.637  0.00  0.00    +0.000 A 
ATOM     12  C   UNL     1      -9.287  -0.987 122.915  0.00  0.00    +0.000 A 
ATOM     13  C   UNL     1      -8.622  -2.203 122.806  0.00  0.00    +0.000 A 
ATOM     14  C   UNL     1      -7.379  -2.370 123.410  0.00  0.00    +0.000 A 
ATOM     15  C   UNL     1      -6.788  -1.326 124.141  0.00  0.00    +0.000 A 
ATOM     16  C   UNL     1      -5.459  -1.569 124.807  0.00  0.00    +0.000 C 
ENDBRANCH   7  10
ENDBRANCH   2   4
BRANCH   1  17
ATOM     17  C   UNL     1      -3.195   4.649 128.892  0.00  0.00    +0.000 A 
ATOM     18  C   UNL     1      -2.513   5.797 128.478  0.00  0.00    +0.000 A 
ATOM     19  C   UNL     1      -1.983   6.696 129.412  0.00  0.00    +0.000 A 
ATOM     20  C   UNL     1      -2.108   6.426 130.764  0.00  0.00    +0.000 A 
ATOM     21  N   UNL     1      -2.718   5.308 131.205  0.00  0.00    +0.000 NA
ATOM     22  C   UNL     1      -3.257   4.467 130.274  0.00  0.00    +0.000 A 
BRANCH  20  23
ATOM     23  O   UNL     1      -1.647   7.238 131.766  0.00  0.00    +0.000 OA
ATOM     24  C   UNL     1      -0.569   6.738 132.549  0.00  0.00    +0.000 C 
ENDBRANCH  20  23
ENDBRANCH   1  17
BRANCH   1  26
ATOM     25  C   UNL     1      -1.732   3.040 126.494  0.00  0.00    +0.000 C 
ATOM     26  C   UNL     1      -2.839   2.664 127.451  0.00  0.00    +0.000 C 
ENDBRANCH   1  26
TORSDOF 5
ENDMDL
MODEL 9
REMARK VINA RESULT:      -7.1      7.151      9.252
REMARK  Name = CHEMBL1089025
REMARK  8 active torsions:
REMARK  status: ('A' for Active; 'I' for Inactive)
REMARK    1  A    between atoms: C_1  and  C_2
REMARK    2  A    between atoms: C_2  and  N_3
REMARK    3  A    between atoms: N_3  and  C_19
REMARK    4  A    between atoms: C_4  and  C_6
REMARK    5  A    between atoms: C_9  and  C_10
REMARK    6  A    between atoms: C_15  and  C_16
REMARK    7  A    between atoms: C_22  and  O_23
REMARK    8  A    between atoms: O_23  and  C_24
REMARK                            x       y       z     vdW  Elec       q    Type
REMARK                         _______ _______ _______ _____ _____    ______ ____
ROOT
ATOM      1  N   UNL     1      -2.991   5.829 130.465  0.00  0.00    +0.000 N 
ATOM      2  C   UNL     1      -2.743   5.998 129.064  0.00  0.00    +0.000 C 
ATOM      3  O   UNL     1      -1.858   6.725 128.625  0.00  0.00    +0.000 OA
ENDROOT
BRANCH   2   4
ATOM      4  C   UNL     1      -3.520   5.258 128.024  0.00  0.00    +0.000 A 
ATOM      5  C   UNL     1      -2.916   4.305 127.229  0.00  0.00    +0.000 A 
ATOM      6  N   UNL     1      -3.490   3.846 126.083  0.00  0.00    +0.000 NA
ATOM      7  C   UNL     1      -4.774   4.221 125.841  0.00  0.00    +0.000 A 
ATOM      8  C   UNL     1      -5.434   5.035 126.757  0.00  0.00    +0.000 A 
ATOM      9  N   UNL     1      -4.822   5.608 127.831  0.00  0.00    +0.000 NA
BRANCH   7  10
ATOM     10  C   UNL     1      -5.436   3.627 124.663  0.00  0.00    +0.000 A 
ATOM     11  C   UNL     1      -5.421   4.277 123.408  0.00  0.00    +0.000 A 
ATOM     12  C   UNL     1      -6.118   3.759 122.311  0.00  0.00    +0.000 A 
ATOM     13  C   UNL     1      -6.830   2.572 122.440  0.00  0.00    +0.000 A 
ATOM     14  C   UNL     1      -6.843   1.900 123.658  0.00  0.00    +0.000 A 
ATOM     15  C   UNL     1      -6.152   2.411 124.769  0.00  0.00    +0.000 A 
ATOM     16  C   UNL     1      -6.227   1.665 126.076  0.00  0.00    +0.000 C 
ENDBRANCH   7  10
ENDBRANCH   2   4
BRANCH   1  17
ATOM     17  C   UNL     1      -2.227   6.667 131.387  0.00  0.00    +0.000 A 
ATOM     18  C   UNL     1      -0.976   6.280 131.876  0.00  0.00    +0.000 A 
ATOM     19  C   UNL     1      -0.247   7.116 132.731  0.00  0.00    +0.000 A 
ATOM     20  C   UNL     1      -0.788   8.328 133.124  0.00  0.00    +0.000 A 
ATOM     21  N   UNL     1      -2.011   8.719 132.712  0.00  0.00    +0.000 NA
ATOM     22  C   UNL     1      -2.684   7.901 131.850  0.00  0.00    +0.000 A 
BRANCH  20  23
ATOM     23  O   UNL     1      -0.162   9.233 133.939  0.00  0.00    +0.000 OA
ATOM     24  C   UNL     1       0.287  10.438 133.330  0.00  0.00    +0.000 C 
ENDBRANCH  20  23
ENDBRANCH   1  17
BRANCH   1  26
ATOM     25  C   UNL     1      -5.355   5.335 131.430  0.00  0.00    +0.000 C 
ATOM     26  C   UNL     1      -3.940   4.891 131.146  0.00  0.00    +0.000 C 
ENDBRANCH   1  26
TORSDOF 5
ENDMDL
