MODEL 1
REMARK VINA RESULT:      -8.9      0.000      0.000
REMARK  Name = CHEMBL3392901
REMARK  14 active torsions:
REMARK  status: ('A' for Active; 'I' for Inactive)
REMARK    1  A    between atoms: C_1  and  C_2
REMARK    2  A    between atoms: C_7  and  N_8
REMARK    3  A    between atoms: N_11  and  S_12
REMARK    4  A    between atoms: S_12  and  C_15
REMARK    5  A    between atoms: C_15  and  C_16
REMARK    6  A    between atoms: C_21  and  N_22
REMARK    7  A    between atoms: C_23  and  C_25
REMARK    8  A    between atoms: C_25  and  N_26
REMARK    9  A    between atoms: C_25  and  C_27
REMARK   10  A    between atoms: C_27  and  C_28
REMARK   11  A    between atoms: C_28  and  S_29
REMARK   12  A    between atoms: S_29  and  C_30
REMARK   13  A    between atoms: C_33  and  C_34
REMARK   14  A    between atoms: C_33  and  C_35
REMARK                            x       y       z     vdW  Elec       q    Type
REMARK                         _______ _______ _______ _____ _____    ______ ____
ROOT
ATOM      1  C   UNL     1      -5.070   3.833 127.897  0.00  0.00    +0.000 C 
ATOM      2  C   UNL     1      -3.954   4.819 128.416  0.00  0.00    +0.000 C 
ATOM      3  C   UNL     1      -2.647   4.213 127.854  0.00  0.00    +0.000 C 
ATOM      4  C   UNL     1      -3.153   2.983 127.074  0.00  0.00    +0.000 C 
ATOM      5  C   UNL     1      -3.855   3.500 125.808  0.00  0.00    +0.000 C 
ATOM      6  C   UNL     1      -5.167   4.127 126.352  0.00  0.00    +0.000 C 
ATOM      7  C   UNL     1      -4.310   2.455 127.949  0.00  0.00    +0.000 C 
ATOM      8  C   UNL     1      -5.062   1.282 127.295  0.00  0.00    +0.000 C 
ATOM      9  C   UNL     1      -3.722   1.982 129.309  0.00  0.00    +0.000 C 
ENDROOT
BRANCH   6  10
ATOM     10  N   UNL     1      -6.365   3.590 125.710  0.00  0.00    +0.000 N 
ATOM     11  C   UNL     1      -6.668   3.898 124.400  0.00  0.00    +0.000 C 
ATOM     12  O   UNL     1      -5.993   4.684 123.742  0.00  0.00    +0.000 OA
ATOM     13  H   UNL     1      -6.859   2.810 126.125  0.00  0.00    +0.000 HD
BRANCH  11  14
ATOM     14  C   UNL     1      -7.919   3.178 123.834  0.00  0.00    +0.000 C 
BRANCH  14  15
ATOM     15  N   UNL     1      -8.258   3.714 122.500  0.00  0.00    +0.000 NA
ATOM     16  H   UNL     1      -7.753   4.589 122.356  0.00  0.00    +0.000 HD
ATOM     17  H   UNL     1      -9.247   3.945 122.447  0.00  0.00    +0.000 HD
ENDBRANCH  14  15
BRANCH  14  18
ATOM     18  C   UNL     1      -7.620   1.679 123.724  0.00  0.00    +0.000 C 
BRANCH  18  19
ATOM     19  C   UNL     1      -8.472   0.820 124.644  0.00  0.00    +0.000 C 
BRANCH  19  20
ATOM     20  S   UNL     1      -8.996  -0.705 123.867  0.00  0.00    +0.000 S 
ATOM     21  C   UNL     1      -7.532  -1.387 123.112  0.00  0.00    +0.000 C 
ATOM     22  O   UNL     1      -9.422  -1.618 124.910  0.00  0.00    +0.000 OA
ATOM     23  O   UNL     1      -9.903  -0.348 122.792  0.00  0.00    +0.000 OA
ENDBRANCH  19  20
ENDBRANCH  18  19
ENDBRANCH  14  18
ENDBRANCH  11  14
ENDBRANCH   6  10
BRANCH   1  24
ATOM     24  C   UNL     1      -6.440   3.965 128.607  0.00  0.00    +0.000 C 
BRANCH  24  25
ATOM     25  S   UNL     1      -6.301   4.736 130.219  0.00  0.00    +0.000 S 
ATOM     26  O   UNL     1      -6.125   6.136 129.948  0.00  0.00    +0.000 OA
ATOM     27  O   UNL     1      -5.368   4.022 131.070  0.00  0.00    +0.000 OA
BRANCH  25  31
ATOM     28  N   UNL     1      -9.473   6.550 130.068  0.00  0.00    +0.000 N 
ATOM     29  C   UNL     1      -8.392   6.984 130.966  0.00  0.00    +0.000 C 
ATOM     30  C   UNL     1      -8.035   5.773 131.880  0.00  0.00    +0.000 C 
ATOM     31  N   UNL     1      -7.735   4.512 131.044  0.00  0.00    +0.000 NA
ATOM     32  C   UNL     1      -8.902   4.188 130.194  0.00  0.00    +0.000 C 
ATOM     33  C   UNL     1      -9.223   5.357 129.251  0.00  0.00    +0.000 C 
BRANCH  28  40
ATOM     34  C   UNL     1     -11.782   6.522 131.796  0.00  0.00    +0.000 C 
ATOM     35  C   UNL     1     -11.726   7.287 130.497  0.00  0.00    +0.000 A 
ATOM     36  C   UNL     1     -12.858   8.000 130.098  0.00  0.00    +0.000 A 
ATOM     37  C   UNL     1     -12.848   8.740 128.922  0.00  0.00    +0.000 A 
ATOM     38  C   UNL     1     -11.701   8.775 128.132  0.00  0.00    +0.000 A 
ATOM     39  C   UNL     1     -10.554   8.078 128.526  0.00  0.00    +0.000 A 
ATOM     40  C   UNL     1     -10.554   7.316 129.701  0.00  0.00    +0.000 A 
ENDBRANCH  28  40
ENDBRANCH  25  31
ENDBRANCH  24  25
ENDBRANCH   1  24
TORSDOF 10
ENDMDL
MODEL 2
REMARK VINA RESULT:      -8.7      3.323      7.949
REMARK  Name = CHEMBL3392901
REMARK  14 active torsions:
REMARK  status: ('A' for Active; 'I' for Inactive)
REMARK    1  A    between atoms: C_1  and  C_2
REMARK    2  A    between atoms: C_7  and  N_8
REMARK    3  A    between atoms: N_11  and  S_12
REMARK    4  A    between atoms: S_12  and  C_15
REMARK    5  A    between atoms: C_15  and  C_16
REMARK    6  A    between atoms: C_21  and  N_22
REMARK    7  A    between atoms: C_23  and  C_25
REMARK    8  A    between atoms: C_25  and  N_26
REMARK    9  A    between atoms: C_25  and  C_27
REMARK   10  A    between atoms: C_27  and  C_28
REMARK   11  A    between atoms: C_28  and  S_29
REMARK   12  A    between atoms: S_29  and  C_30
REMARK   13  A    between atoms: C_33  and  C_34
REMARK   14  A    between atoms: C_33  and  C_35
REMARK                            x       y       z     vdW  Elec       q    Type
REMARK                         _______ _______ _______ _____ _____    ______ ____
ROOT
ATOM      1  C   UNL     1      -4.691   5.046 130.384  0.00  0.00    +0.000 C 
ATOM      2  C   UNL     1      -3.479   4.073 130.655  0.00  0.00    +0.000 C 
ATOM      3  C   UNL     1      -2.563   4.892 131.593  0.00  0.00    +0.000 C 
ATOM      4  C   UNL     1      -3.347   6.208 131.768  0.00  0.00    +0.000 C 
ATOM      5  C   UNL     1      -4.558   5.905 132.663  0.00  0.00    +0.000 C 
ATOM      6  C   UNL     1      -5.488   5.069 131.743  0.00  0.00    +0.000 C 
ATOM      7  C   UNL     1      -3.966   6.443 130.374  0.00  0.00    +0.000 C 
ATOM      8  C   UNL     1      -4.912   7.657 130.341  0.00  0.00    +0.000 C 
ATOM      9  C   UNL     1      -2.813   6.675 129.355  0.00  0.00    +0.000 C 
ENDROOT
BRANCH   6  10
ATOM     10  N   UNL     1      -6.837   5.621 131.641  0.00  0.00    +0.000 N 
ATOM     11  C   UNL     1      -7.937   4.890 132.041  0.00  0.00    +0.000 C 
ATOM     12  O   UNL     1      -7.842   3.730 132.431  0.00  0.00    +0.000 OA
ATOM     13  H   UNL     1      -6.973   6.615 131.502  0.00  0.00    +0.000 HD
BRANCH  11  14
ATOM     14  C   UNL     1      -9.288   5.646 131.960  0.00  0.00    +0.000 C 
BRANCH  14  15
ATOM     15  N   UNL     1      -9.625   6.235 133.272  0.00  0.00    +0.000 NA
ATOM     16  H   UNL     1     -10.518   5.855 133.586  0.00  0.00    +0.000 HD
ATOM     17  H   UNL     1      -9.755   7.240 133.190  0.00  0.00    +0.000 HD
ENDBRANCH  14  15
BRANCH  14  18
ATOM     18  C   UNL     1      -9.170   6.759 130.912  0.00  0.00    +0.000 C 
BRANCH  18  19
ATOM     19  C   UNL     1     -10.506   7.192 130.332  0.00  0.00    +0.000 C 
BRANCH  19  20
ATOM     20  S   UNL     1     -10.481   7.281 128.545  0.00  0.00    +0.000 S 
ATOM     21  C   UNL     1     -12.159   6.977 128.025  0.00  0.00    +0.000 C 
ATOM     22  O   UNL     1     -10.140   8.638 128.167  0.00  0.00    +0.000 OA
ATOM     23  O   UNL     1      -9.680   6.166 128.072  0.00  0.00    +0.000 OA
ENDBRANCH  19  20
ENDBRANCH  18  19
ENDBRANCH  14  18
ENDBRANCH  11  14
ENDBRANCH   6  10
BRANCH   1  24
ATOM     24  C   UNL     1      -5.588   4.654 129.183  0.00  0.00    +0.000 C 
BRANCH  24  25
ATOM     25  S   UNL     1      -5.510   2.900 128.818  0.00  0.00    +0.000 S 
ATOM     26  O   UNL     1      -5.971   2.250 130.013  0.00  0.00    +0.000 OA
ATOM     27  O   UNL     1      -4.238   2.539 128.221  0.00  0.00    +0.000 OA
BRANCH  25  31
ATOM     28  N   UNL     1      -7.151  -0.211 127.819  0.00  0.00    +0.000 N 
ATOM     29  C   UNL     1      -5.811   0.135 127.320  0.00  0.00    +0.000 C 
ATOM     30  C   UNL     1      -5.919   1.528 126.630  0.00  0.00    +0.000 C 
ATOM     31  N   UNL     1      -6.565   2.567 127.568  0.00  0.00    +0.000 NA
ATOM     32  C   UNL     1      -7.904   2.096 127.988  0.00  0.00    +0.000 C 
ATOM     33  C   UNL     1      -7.797   0.750 128.720  0.00  0.00    +0.000 C 
BRANCH  28  40
ATOM     34  C   UNL     1      -8.471  -0.988 125.375  0.00  0.00    +0.000 C 
ATOM     35  C   UNL     1      -8.419  -1.860 126.605  0.00  0.00    +0.000 A 
ATOM     36  C   UNL     1      -9.062  -3.100 126.566  0.00  0.00    +0.000 A 
ATOM     37  C   UNL     1      -9.022  -3.950 127.664  0.00  0.00    +0.000 A 
ATOM     38  C   UNL     1      -8.334  -3.568 128.814  0.00  0.00    +0.000 A 
ATOM     39  C   UNL     1      -7.672  -2.338 128.862  0.00  0.00    +0.000 A 
ATOM     40  C   UNL     1      -7.716  -1.463 127.770  0.00  0.00    +0.000 A 
ENDBRANCH  28  40
ENDBRANCH  25  31
ENDBRANCH  24  25
ENDBRANCH   1  24
TORSDOF 10
ENDMDL
MODEL 3
REMARK VINA RESULT:      -8.7      3.227      7.811
REMARK  Name = CHEMBL3392901
REMARK  14 active torsions:
REMARK  status: ('A' for Active; 'I' for Inactive)
REMARK    1  A    between atoms: C_1  and  C_2
REMARK    2  A    between atoms: C_7  and  N_8
REMARK    3  A    between atoms: N_11  and  S_12
REMARK    4  A    between atoms: S_12  and  C_15
REMARK    5  A    between atoms: C_15  and  C_16
REMARK    6  A    between atoms: C_21  and  N_22
REMARK    7  A    between atoms: C_23  and  C_25
REMARK    8  A    between atoms: C_25  and  N_26
REMARK    9  A    between atoms: C_25  and  C_27
REMARK   10  A    between atoms: C_27  and  C_28
REMARK   11  A    between atoms: C_28  and  S_29
REMARK   12  A    between atoms: S_29  and  C_30
REMARK   13  A    between atoms: C_33  and  C_34
REMARK   14  A    between atoms: C_33  and  C_35
REMARK                            x       y       z     vdW  Elec       q    Type
REMARK                         _______ _______ _______ _____ _____    ______ ____
ROOT
ATOM      1  C   UNL     1      -7.569   2.153 130.516  0.00  0.00    +0.000 C 
ATOM      2  C   UNL     1      -7.612   0.875 129.593  0.00  0.00    +0.000 C 
ATOM      3  C   UNL     1      -8.206  -0.216 130.516  0.00  0.00    +0.000 C 
ATOM      4  C   UNL     1      -8.451   0.551 131.831  0.00  0.00    +0.000 C 
ATOM      5  C   UNL     1      -9.649   1.485 131.601  0.00  0.00    +0.000 C 
ATOM      6  C   UNL     1      -9.078   2.582 130.664  0.00  0.00    +0.000 C 
ATOM      7  C   UNL     1      -7.245   1.510 131.916  0.00  0.00    +0.000 C 
ATOM      8  C   UNL     1      -7.341   2.482 133.106  0.00  0.00    +0.000 C 
ATOM      9  C   UNL     1      -5.949   0.662 132.061  0.00  0.00    +0.000 C 
ENDROOT
BRANCH   6  10
ATOM     10  N   UNL     1      -9.272   3.935 131.182  0.00  0.00    +0.000 N 
ATOM     11  C   UNL     1     -10.418   4.648 130.898  0.00  0.00    +0.000 C 
ATOM     12  O   UNL     1     -11.286   4.214 130.146  0.00  0.00    +0.000 OA
ATOM     13  H   UNL     1      -8.694   4.278 131.939  0.00  0.00    +0.000 HD
BRANCH  11  14
ATOM     14  C   UNL     1     -10.518   6.028 131.597  0.00  0.00    +0.000 C 
BRANCH  14  15
ATOM     15  N   UNL     1      -9.199   6.690 131.613  0.00  0.00    +0.000 NA
ATOM     16  H   UNL     1      -9.297   7.617 132.029  0.00  0.00    +0.000 HD
ATOM     17  H   UNL     1      -8.860   6.837 130.666  0.00  0.00    +0.000 HD
ENDBRANCH  14  15
BRANCH  14  18
ATOM     18  C   UNL     1     -11.521   6.899 130.833  0.00  0.00    +0.000 C 
BRANCH  18  19
ATOM     19  C   UNL     1     -10.907   7.651 129.664  0.00  0.00    +0.000 C 
BRANCH  19  20
ATOM     20  S   UNL     1     -11.979   7.684 128.231  0.00  0.00    +0.000 S 
ATOM     21  C   UNL     1     -10.893   7.814 126.822  0.00  0.00    +0.000 C 
ATOM     22  O   UNL     1     -12.659   6.406 128.149  0.00  0.00    +0.000 OA
ATOM     23  O   UNL     1     -12.742   8.916 128.296  0.00  0.00    +0.000 OA
ENDBRANCH  19  20
ENDBRANCH  18  19
ENDBRANCH  14  18
ENDBRANCH  11  14
ENDBRANCH   6  10
BRANCH   1  24
ATOM     24  C   UNL     1      -6.678   3.307 129.992  0.00  0.00    +0.000 C 
BRANCH  24  25
ATOM     25  S   UNL     1      -7.131   3.819 128.335  0.00  0.00    +0.000 S 
ATOM     26  O   UNL     1      -6.142   4.792 127.963  0.00  0.00    +0.000 OA
ATOM     27  O   UNL     1      -8.545   4.128 128.243  0.00  0.00    +0.000 OA
BRANCH  25  31
ATOM     28  N   UNL     1      -6.555   3.604 124.730  0.00  0.00    +0.000 N 
ATOM     29  C   UNL     1      -7.913   3.753 125.275  0.00  0.00    +0.000 C 
ATOM     30  C   UNL     1      -8.145   2.576 126.270  0.00  0.00    +0.000 C 
ATOM     31  N   UNL     1      -7.015   2.501 127.318  0.00  0.00    +0.000 NA
ATOM     32  C   UNL     1      -5.711   2.349 126.636  0.00  0.00    +0.000 C 
ATOM     33  C   UNL     1      -5.452   3.536 125.696  0.00  0.00    +0.000 C 
BRANCH  28  40
ATOM     34  C   UNL     1      -8.238   2.489 122.671  0.00  0.00    +0.000 C 
ATOM     35  C   UNL     1      -6.969   3.253 122.384  0.00  0.00    +0.000 A 
ATOM     36  C   UNL     1      -6.577   3.410 121.052  0.00  0.00    +0.000 A 
ATOM     37  C   UNL     1      -5.430   4.126 120.735  0.00  0.00    +0.000 A 
ATOM     38  C   UNL     1      -4.662   4.696 121.749  0.00  0.00    +0.000 A 
ATOM     39  C   UNL     1      -5.051   4.561 123.085  0.00  0.00    +0.000 A 
ATOM     40  C   UNL     1      -6.196   3.829 123.422  0.00  0.00    +0.000 A 
ENDBRANCH  28  40
ENDBRANCH  25  31
ENDBRANCH  24  25
ENDBRANCH   1  24
TORSDOF 10
ENDMDL
MODEL 4
REMARK VINA RESULT:      -8.7      3.428      8.159
REMARK  Name = CHEMBL3392901
REMARK  14 active torsions:
REMARK  status: ('A' for Active; 'I' for Inactive)
REMARK    1  A    between atoms: C_1  and  C_2
REMARK    2  A    between atoms: C_7  and  N_8
REMARK    3  A    between atoms: N_11  and  S_12
REMARK    4  A    between atoms: S_12  and  C_15
REMARK    5  A    between atoms: C_15  and  C_16
REMARK    6  A    between atoms: C_21  and  N_22
REMARK    7  A    between atoms: C_23  and  C_25
REMARK    8  A    between atoms: C_25  and  N_26
REMARK    9  A    between atoms: C_25  and  C_27
REMARK   10  A    between atoms: C_27  and  C_28
REMARK   11  A    between atoms: C_28  and  S_29
REMARK   12  A    between atoms: S_29  and  C_30
REMARK   13  A    between atoms: C_33  and  C_34
REMARK   14  A    between atoms: C_33  and  C_35
REMARK                            x       y       z     vdW  Elec       q    Type
REMARK                         _______ _______ _______ _____ _____    ______ ____
ROOT
ATOM      1  C   UNL     1      -4.990   4.963 130.407  0.00  0.00    +0.000 C 
ATOM      2  C   UNL     1      -3.456   4.598 130.430  0.00  0.00    +0.000 C 
ATOM      3  C   UNL     1      -2.889   5.496 131.554  0.00  0.00    +0.000 C 
ATOM      4  C   UNL     1      -4.141   6.245 132.053  0.00  0.00    +0.000 C 
ATOM      5  C   UNL     1      -4.999   5.236 132.831  0.00  0.00    +0.000 C 
ATOM      6  C   UNL     1      -5.569   4.313 131.720  0.00  0.00    +0.000 C 
ATOM      7  C   UNL     1      -4.946   6.497 130.760  0.00  0.00    +0.000 C 
ATOM      8  C   UNL     1      -6.321   7.133 131.031  0.00  0.00    +0.000 C 
ATOM      9  C   UNL     1      -4.122   7.446 129.844  0.00  0.00    +0.000 C 
ENDROOT
BRANCH   6  10
ATOM     10  N   UNL     1      -7.027   4.214 131.751  0.00  0.00    +0.000 N 
ATOM     11  C   UNL     1      -7.661   3.339 132.609  0.00  0.00    +0.000 C 
ATOM     12  O   UNL     1      -7.038   2.562 133.326  0.00  0.00    +0.000 OA
ATOM     13  H   UNL     1      -7.596   4.936 131.327  0.00  0.00    +0.000 HD
BRANCH  11  14
ATOM     14  C   UNL     1      -9.210   3.418 132.592  0.00  0.00    +0.000 C 
BRANCH  14  15
ATOM     15  N   UNL     1      -9.706   3.999 133.855  0.00  0.00    +0.000 NA
ATOM     16  H   UNL     1      -8.912   4.188 134.468  0.00  0.00    +0.000 HD
ATOM     17  H   UNL     1     -10.295   3.333 134.349  0.00  0.00    +0.000 HD
ENDBRANCH  14  15
BRANCH  14  18
ATOM     18  C   UNL     1      -9.648   4.296 131.415  0.00  0.00    +0.000 C 
BRANCH  18  19
ATOM     19  C   UNL     1     -10.260   5.621 131.839  0.00  0.00    +0.000 C 
BRANCH  19  20
ATOM     20  S   UNL     1     -11.533   6.180 130.712  0.00  0.00    +0.000 S 
ATOM     21  C   UNL     1     -10.818   7.548 129.819  0.00  0.00    +0.000 C 
ATOM     22  O   UNL     1     -11.791   5.116 129.761  0.00  0.00    +0.000 OA
ATOM     23  O   UNL     1     -12.613   6.717 131.520  0.00  0.00    +0.000 OA
ENDBRANCH  19  20
ENDBRANCH  18  19
ENDBRANCH  14  18
ENDBRANCH  11  14
ENDBRANCH   6  10
BRANCH   1  24
ATOM     24  C   UNL     1      -5.751   4.504 129.138  0.00  0.00    +0.000 C 
BRANCH  24  25
ATOM     25  S   UNL     1      -5.375   2.809 128.692  0.00  0.00    +0.000 S 
ATOM     26  O   UNL     1      -5.794   2.025 129.821  0.00  0.00    +0.000 OA
ATOM     27  O   UNL     1      -4.029   2.686 128.164  0.00  0.00    +0.000 OA
BRANCH  25  31
ATOM     28  N   UNL     1      -7.020  -0.331 127.795  0.00  0.00    +0.000 N 
ATOM     29  C   UNL     1      -5.618  -0.078 127.431  0.00  0.00    +0.000 C 
ATOM     30  C   UNL     1      -5.584   1.245 126.607  0.00  0.00    +0.000 C 
ATOM     31  N   UNL     1      -6.290   2.390 127.361  0.00  0.00    +0.000 NA
ATOM     32  C   UNL     1      -7.688   2.005 127.659  0.00  0.00    +0.000 C 
ATOM     33  C   UNL     1      -7.725   0.733 128.519  0.00  0.00    +0.000 C 
BRANCH  28  40
ATOM     34  C   UNL     1      -8.333  -1.173 125.369  0.00  0.00    +0.000 C 
ATOM     35  C   UNL     1      -8.329  -1.989 126.638  0.00  0.00    +0.000 A 
ATOM     36  C   UNL     1      -9.016  -3.206 126.645  0.00  0.00    +0.000 A 
ATOM     37  C   UNL     1      -9.021  -4.005 127.782  0.00  0.00    +0.000 A 
ATOM     38  C   UNL     1      -8.337  -3.595 128.924  0.00  0.00    +0.000 A 
ATOM     39  C   UNL     1      -7.632  -2.388 128.926  0.00  0.00    +0.000 A 
ATOM     40  C   UNL     1      -7.629  -1.564 127.794  0.00  0.00    +0.000 A 
ENDBRANCH  28  40
ENDBRANCH  25  31
ENDBRANCH  24  25
ENDBRANCH   1  24
TORSDOF 10
ENDMDL
MODEL 5
REMARK VINA RESULT:      -8.6      3.456      7.841
REMARK  Name = CHEMBL3392901
REMARK  14 active torsions:
REMARK  status: ('A' for Active; 'I' for Inactive)
REMARK    1  A    between atoms: C_1  and  C_2
REMARK    2  A    between atoms: C_7  and  N_8
REMARK    3  A    between atoms: N_11  and  S_12
REMARK    4  A    between atoms: S_12  and  C_15
REMARK    5  A    between atoms: C_15  and  C_16
REMARK    6  A    between atoms: C_21  and  N_22
REMARK    7  A    between atoms: C_23  and  C_25
REMARK    8  A    between atoms: C_25  and  N_26
REMARK    9  A    between atoms: C_25  and  C_27
REMARK   10  A    between atoms: C_27  and  C_28
REMARK   11  A    between atoms: C_28  and  S_29
REMARK   12  A    between atoms: S_29  and  C_30
REMARK   13  A    between atoms: C_33  and  C_34
REMARK   14  A    between atoms: C_33  and  C_35
REMARK                            x       y       z     vdW  Elec       q    Type
REMARK                         _______ _______ _______ _____ _____    ______ ____
ROOT
ATOM      1  C   UNL     1      -8.563   4.017 132.191  0.00  0.00    +0.000 C 
ATOM      2  C   UNL     1      -8.495   3.217 133.549  0.00  0.00    +0.000 C 
ATOM      3  C   UNL     1      -7.864   4.230 134.532  0.00  0.00    +0.000 C 
ATOM      4  C   UNL     1      -7.665   5.479 133.650  0.00  0.00    +0.000 C 
ATOM      5  C   UNL     1      -9.053   6.084 133.391  0.00  0.00    +0.000 C 
ATOM      6  C   UNL     1      -9.711   5.073 132.414  0.00  0.00    +0.000 C 
ATOM      7  C   UNL     1      -7.256   4.889 132.283  0.00  0.00    +0.000 C 
ATOM      8  C   UNL     1      -7.123   5.964 131.189  0.00  0.00    +0.000 C 
ATOM      9  C   UNL     1      -5.890   4.165 132.447  0.00  0.00    +0.000 C 
ENDROOT
BRANCH   6  10
ATOM     10  N   UNL     1     -10.200   5.699 131.187  0.00  0.00    +0.000 N 
ATOM     11  C   UNL     1     -11.372   6.428 131.179  0.00  0.00    +0.000 C 
ATOM     12  O   UNL     1     -12.087   6.523 132.173  0.00  0.00    +0.000 OA
ATOM     13  H   UNL     1      -9.584   5.812 130.392  0.00  0.00    +0.000 HD
BRANCH  11  14
ATOM     14  C   UNL     1     -11.708   7.108 129.827  0.00  0.00    +0.000 C 
BRANCH  14  15
ATOM     15  N   UNL     1     -12.656   8.220 130.036  0.00  0.00    +0.000 NA
ATOM     16  H   UNL     1     -12.511   8.611 130.968  0.00  0.00    +0.000 HD
ATOM     17  H   UNL     1     -13.615   7.882 130.015  0.00  0.00    +0.000 HD
ENDBRANCH  14  15
BRANCH  14  18
ATOM     18  C   UNL     1     -10.413   7.647 129.209  0.00  0.00    +0.000 C 
BRANCH  18  19
ATOM     19  C   UNL     1     -10.634   8.463 127.947  0.00  0.00    +0.000 C 
BRANCH  19  20
ATOM     20  S   UNL     1     -10.909   7.438 126.506  0.00  0.00    +0.000 S 
ATOM     21  C   UNL     1     -12.614   6.925 126.599  0.00  0.00    +0.000 C 
ATOM     22  O   UNL     1     -10.761   8.270 125.327  0.00  0.00    +0.000 OA
ATOM     23  O   UNL     1     -10.096   6.247 126.667  0.00  0.00    +0.000 OA
ENDBRANCH  19  20
ENDBRANCH  18  19
ENDBRANCH  14  18
ENDBRANCH  11  14
ENDBRANCH   6  10
BRANCH   1  24
ATOM     24  C   UNL     1      -8.801   3.147 130.931  0.00  0.00    +0.000 C 
BRANCH  24  25
ATOM     25  S   UNL     1      -8.428   1.417 131.217  0.00  0.00    +0.000 S 
ATOM     26  O   UNL     1      -9.676   0.827 131.613  0.00  0.00    +0.000 OA
ATOM     27  O   UNL     1      -7.241   1.259 132.035  0.00  0.00    +0.000 OA
BRANCH  25  31
ATOM     28  N   UNL     1      -5.783   2.383 128.885  0.00  0.00    +0.000 N 
ATOM     29  C   UNL     1      -7.135   2.950 128.776  0.00  0.00    +0.000 C 
ATOM     30  C   UNL     1      -8.129   1.757 128.642  0.00  0.00    +0.000 C 
ATOM     31  N   UNL     1      -7.929   0.733 129.778  0.00  0.00    +0.000 NA
ATOM     32  C   UNL     1      -6.532   0.244 129.769  0.00  0.00    +0.000 C 
ATOM     33  C   UNL     1      -5.551   1.411 129.959  0.00  0.00    +0.000 C 
BRANCH  28  40
ATOM     34  C   UNL     1      -5.035   1.319 126.311  0.00  0.00    +0.000 C 
ATOM     35  C   UNL     1      -4.229   2.362 127.044  0.00  0.00    +0.000 A 
ATOM     36  C   UNL     1      -3.048   2.820 126.457  0.00  0.00    +0.000 A 
ATOM     37  C   UNL     1      -2.283   3.798 127.081  0.00  0.00    +0.000 A 
ATOM     38  C   UNL     1      -2.695   4.329 128.302  0.00  0.00    +0.000 A 
ATOM     39  C   UNL     1      -3.884   3.892 128.894  0.00  0.00    +0.000 A 
ATOM     40  C   UNL     1      -4.657   2.897 128.285  0.00  0.00    +0.000 A 
ENDBRANCH  28  40
ENDBRANCH  25  31
ENDBRANCH  24  25
ENDBRANCH   1  24
TORSDOF 10
ENDMDL
MODEL 6
REMARK VINA RESULT:      -8.6      3.431      8.397
REMARK  Name = CHEMBL3392901
REMARK  14 active torsions:
REMARK  status: ('A' for Active; 'I' for Inactive)
REMARK    1  A    between atoms: C_1  and  C_2
REMARK    2  A    between atoms: C_7  and  N_8
REMARK    3  A    between atoms: N_11  and  S_12
REMARK    4  A    between atoms: S_12  and  C_15
REMARK    5  A    between atoms: C_15  and  C_16
REMARK    6  A    between atoms: C_21  and  N_22
REMARK    7  A    between atoms: C_23  and  C_25
REMARK    8  A    between atoms: C_25  and  N_26
REMARK    9  A    between atoms: C_25  and  C_27
REMARK   10  A    between atoms: C_27  and  C_28
REMARK   11  A    between atoms: C_28  and  S_29
REMARK   12  A    between atoms: S_29  and  C_30
REMARK   13  A    between atoms: C_33  and  C_34
REMARK   14  A    between atoms: C_33  and  C_35
REMARK                            x       y       z     vdW  Elec       q    Type
REMARK                         _______ _______ _______ _____ _____    ______ ____
ROOT
ATOM      1  C   UNL     1      -8.099   4.340 131.589  0.00  0.00    +0.000 C 
ATOM      2  C   UNL     1      -7.921   3.222 132.688  0.00  0.00    +0.000 C 
ATOM      3  C   UNL     1      -7.599   4.025 133.970  0.00  0.00    +0.000 C 
ATOM      4  C   UNL     1      -7.648   5.485 133.476  0.00  0.00    +0.000 C 
ATOM      5  C   UNL     1      -9.123   5.834 133.223  0.00  0.00    +0.000 C 
ATOM      6  C   UNL     1      -9.472   5.026 131.944  0.00  0.00    +0.000 C 
ATOM      7  C   UNL     1      -7.038   5.404 132.060  0.00  0.00    +0.000 C 
ATOM      8  C   UNL     1      -7.100   6.747 131.309  0.00  0.00    +0.000 C 
ATOM      9  C   UNL     1      -5.552   4.965 132.187  0.00  0.00    +0.000 C 
ENDROOT
BRANCH   6  10
ATOM     10  N   UNL     1     -10.025   5.856 130.877  0.00  0.00    +0.000 N 
ATOM     11  C   UNL     1     -11.293   6.391 130.977  0.00  0.00    +0.000 C 
ATOM     12  O   UNL     1     -12.034   6.140 131.922  0.00  0.00    +0.000 OA
ATOM     13  H   UNL     1      -9.417   6.245 130.166  0.00  0.00    +0.000 HD
BRANCH  11  14
ATOM     14  C   UNL     1     -11.701   7.325 129.808  0.00  0.00    +0.000 C 
BRANCH  14  15
ATOM     15  N   UNL     1     -12.521   8.445 130.311  0.00  0.00    +0.000 NA
ATOM     16  H   UNL     1     -11.924   9.265 130.432  0.00  0.00    +0.000 HD
ATOM     17  H   UNL     1     -12.898   8.229 131.231  0.00  0.00    +0.000 HD
ENDBRANCH  14  15
BRANCH  14  18
ATOM     18  C   UNL     1     -10.431   7.874 129.147  0.00  0.00    +0.000 C 
BRANCH  18  19
ATOM     19  C   UNL     1     -10.691   8.590 127.832  0.00  0.00    +0.000 C 
BRANCH  19  20
ATOM     20  S   UNL     1     -10.897   7.456 126.463  0.00  0.00    +0.000 S 
ATOM     21  C   UNL     1     -12.581   6.879 126.567  0.00  0.00    +0.000 C 
ATOM     22  O   UNL     1     -10.763   8.210 125.231  0.00  0.00    +0.000 OA
ATOM     23  O   UNL     1     -10.039   6.315 126.719  0.00  0.00    +0.000 OA
ENDBRANCH  19  20
ENDBRANCH  18  19
ENDBRANCH  14  18
ENDBRANCH  11  14
ENDBRANCH   6  10
BRANCH   1  24
ATOM     24  C   UNL     1      -8.057   3.831 130.127  0.00  0.00    +0.000 C 
BRANCH  24  25
ATOM     25  S   UNL     1      -7.388   2.172 130.001  0.00  0.00    +0.000 S 
ATOM     26  O   UNL     1      -8.536   1.311 129.936  0.00  0.00    +0.000 OA
ATOM     27  O   UNL     1      -6.346   1.945 130.984  0.00  0.00    +0.000 OA
BRANCH  25  31
ATOM     28  N   UNL     1      -7.230  -0.498 127.507  0.00  0.00    +0.000 N 
ATOM     29  C   UNL     1      -6.342  -0.500 128.679  0.00  0.00    +0.000 C 
ATOM     30  C   UNL     1      -5.563   0.850 128.674  0.00  0.00    +0.000 C 
ATOM     31  N   UNL     1      -6.528   2.050 128.575  0.00  0.00    +0.000 NA
ATOM     32  C   UNL     1      -7.354   1.927 127.354  0.00  0.00    +0.000 C 
ATOM     33  C   UNL     1      -8.167   0.624 127.382  0.00  0.00    +0.000 C 
BRANCH  28  40
ATOM     34  C   UNL     1      -5.445  -0.940 125.285  0.00  0.00    +0.000 C 
ATOM     35  C   UNL     1      -6.652  -1.800 125.565  0.00  0.00    +0.000 A 
ATOM     36  C   UNL     1      -6.934  -2.853 124.690  0.00  0.00    +0.000 A 
ATOM     37  C   UNL     1      -8.020  -3.688 124.919  0.00  0.00    +0.000 A 
ATOM     38  C   UNL     1      -8.836  -3.480 126.029  0.00  0.00    +0.000 A 
ATOM     39  C   UNL     1      -8.558  -2.441 126.922  0.00  0.00    +0.000 A 
ATOM     40  C   UNL     1      -7.476  -1.581 126.697  0.00  0.00    +0.000 A 
ENDBRANCH  28  40
ENDBRANCH  25  31
ENDBRANCH  24  25
ENDBRANCH   1  24
TORSDOF 10
ENDMDL
MODEL 7
REMARK VINA RESULT:      -8.6      4.780      8.467
REMARK  Name = CHEMBL3392901
REMARK  14 active torsions:
REMARK  status: ('A' for Active; 'I' for Inactive)
REMARK    1  A    between atoms: C_1  and  C_2
REMARK    2  A    between atoms: C_7  and  N_8
REMARK    3  A    between atoms: N_11  and  S_12
REMARK    4  A    between atoms: S_12  and  C_15
REMARK    5  A    between atoms: C_15  and  C_16
REMARK    6  A    between atoms: C_21  and  N_22
REMARK    7  A    between atoms: C_23  and  C_25
REMARK    8  A    between atoms: C_25  and  N_26
REMARK    9  A    between atoms: C_25  and  C_27
REMARK   10  A    between atoms: C_27  and  C_28
REMARK   11  A    between atoms: C_28  and  S_29
REMARK   12  A    between atoms: S_29  and  C_30
REMARK   13  A    between atoms: C_33  and  C_34
REMARK   14  A    between atoms: C_33  and  C_35
REMARK                            x       y       z     vdW  Elec       q    Type
REMARK                         _______ _______ _______ _____ _____    ______ ____
ROOT
ATOM      1  C   UNL     1      -7.489  -1.295 124.814  0.00  0.00    +0.000 C 
ATOM      2  C   UNL     1      -8.745  -1.010 123.904  0.00  0.00    +0.000 C 
ATOM      3  C   UNL     1      -9.048  -2.386 123.268  0.00  0.00    +0.000 C 
ATOM      4  C   UNL     1      -7.966  -3.292 123.889  0.00  0.00    +0.000 C 
ATOM      5  C   UNL     1      -8.343  -3.513 125.362  0.00  0.00    +0.000 C 
ATOM      6  C   UNL     1      -8.059  -2.136 126.019  0.00  0.00    +0.000 C 
ATOM      7  C   UNL     1      -6.727  -2.373 123.957  0.00  0.00    +0.000 C 
ATOM      8  C   UNL     1      -5.536  -3.036 124.671  0.00  0.00    +0.000 C 
ATOM      9  C   UNL     1      -6.305  -2.006 122.506  0.00  0.00    +0.000 C 
ENDROOT
BRANCH   6  10
ATOM     10  N   UNL     1      -7.161  -2.225 127.169  0.00  0.00    +0.000 N 
ATOM     11  C   UNL     1      -7.567  -2.829 128.342  0.00  0.00    +0.000 C 
ATOM     12  O   UNL     1      -8.709  -3.250 128.497  0.00  0.00    +0.000 OA
ATOM     13  H   UNL     1      -6.168  -2.066 127.054  0.00  0.00    +0.000 HD
BRANCH  11  14
ATOM     14  C   UNL     1      -6.472  -2.930 129.435  0.00  0.00    +0.000 C 
BRANCH  14  15
ATOM     15  N   UNL     1      -5.455  -1.877 129.240  0.00  0.00    +0.000 NA
ATOM     16  H   UNL     1      -4.533  -2.312 129.188  0.00  0.00    +0.000 HD
ATOM     17  H   UNL     1      -5.430  -1.251 130.041  0.00  0.00    +0.000 HD
ENDBRANCH  14  15
BRANCH  14  18
ATOM     18  C   UNL     1      -7.129  -2.763 130.810  0.00  0.00    +0.000 C 
BRANCH  18  19
ATOM     19  C   UNL     1      -6.313  -1.918 131.775  0.00  0.00    +0.000 C 
BRANCH  19  20
ATOM     20  S   UNL     1      -6.989  -0.274 131.987  0.00  0.00    +0.000 S 
ATOM     21  C   UNL     1      -8.619  -0.329 131.267  0.00  0.00    +0.000 C 
ATOM     22  O   UNL     1      -7.140  -0.030 133.408  0.00  0.00    +0.000 OA
ATOM     23  O   UNL     1      -6.193   0.624 131.171  0.00  0.00    +0.000 OA
ENDBRANCH  19  20
ENDBRANCH  18  19
ENDBRANCH  14  18
ENDBRANCH  11  14
ENDBRANCH   6  10
BRANCH   1  24
ATOM     24  C   UNL     1      -6.725  -0.033 125.288  0.00  0.00    +0.000 C 
BRANCH  24  25
ATOM     25  S   UNL     1      -7.802   1.153 126.095  0.00  0.00    +0.000 S 
ATOM     26  O   UNL     1      -7.638   0.908 127.500  0.00  0.00    +0.000 OA
ATOM     27  O   UNL     1      -9.121   1.165 125.493  0.00  0.00    +0.000 OA
BRANCH  25  31
ATOM     28  N   UNL     1      -7.548   2.936 122.912  0.00  0.00    +0.000 N 
ATOM     29  C   UNL     1      -6.455   2.076 123.390  0.00  0.00    +0.000 C 
ATOM     30  C   UNL     1      -6.042   2.591 124.802  0.00  0.00    +0.000 C 
ATOM     31  N   UNL     1      -7.263   2.692 125.738  0.00  0.00    +0.000 NA
ATOM     32  C   UNL     1      -8.278   3.587 125.140  0.00  0.00    +0.000 C 
ATOM     33  C   UNL     1      -8.731   3.052 123.773  0.00  0.00    +0.000 C 
BRANCH  28  40
ATOM     34  C   UNL     1      -5.184   3.849 121.536  0.00  0.00    +0.000 C 
ATOM     35  C   UNL     1      -6.566   3.892 120.932  0.00  0.00    +0.000 A 
ATOM     36  C   UNL     1      -6.712   4.423 119.648  0.00  0.00    +0.000 A 
ATOM     37  C   UNL     1      -7.960   4.462 119.039  0.00  0.00    +0.000 A 
ATOM     38  C   UNL     1      -9.077   3.968 119.709  0.00  0.00    +0.000 A 
ATOM     39  C   UNL     1      -8.944   3.420 120.989  0.00  0.00    +0.000 A 
ATOM     40  C   UNL     1      -7.696   3.387 121.622  0.00  0.00    +0.000 A 
ENDBRANCH  28  40
ENDBRANCH  25  31
ENDBRANCH  24  25
ENDBRANCH   1  24
TORSDOF 10
ENDMDL
MODEL 8
REMARK VINA RESULT:      -8.4      4.293      8.308
REMARK  Name = CHEMBL3392901
REMARK  14 active torsions:
REMARK  status: ('A' for Active; 'I' for Inactive)
REMARK    1  A    between atoms: C_1  and  C_2
REMARK    2  A    between atoms: C_7  and  N_8
REMARK    3  A    between atoms: N_11  and  S_12
REMARK    4  A    between atoms: S_12  and  C_15
REMARK    5  A    between atoms: C_15  and  C_16
REMARK    6  A    between atoms: C_21  and  N_22
REMARK    7  A    between atoms: C_23  and  C_25
REMARK    8  A    between atoms: C_25  and  N_26
REMARK    9  A    between atoms: C_25  and  C_27
REMARK   10  A    between atoms: C_27  and  C_28
REMARK   11  A    between atoms: C_28  and  S_29
REMARK   12  A    between atoms: S_29  and  C_30
REMARK   13  A    between atoms: C_33  and  C_34
REMARK   14  A    between atoms: C_33  and  C_35
REMARK                            x       y       z     vdW  Elec       q    Type
REMARK                         _______ _______ _______ _____ _____    ______ ____
ROOT
ATOM      1  C   UNL     1      -7.995  -1.420 124.857  0.00  0.00    +0.000 C 
ATOM      2  C   UNL     1      -9.184  -1.508 123.825  0.00  0.00    +0.000 C 
ATOM      3  C   UNL     1      -9.038  -2.928 123.228  0.00  0.00    +0.000 C 
ATOM      4  C   UNL     1      -7.819  -3.490 123.985  0.00  0.00    +0.000 C 
ATOM      5  C   UNL     1      -8.266  -3.776 125.427  0.00  0.00    +0.000 C 
ATOM      6  C   UNL     1      -8.432  -2.361 126.043  0.00  0.00    +0.000 C 
ATOM      7  C   UNL     1      -6.888  -2.266 124.123  0.00  0.00    +0.000 C 
ATOM      8  C   UNL     1      -5.639  -2.562 124.971  0.00  0.00    +0.000 C 
ATOM      9  C   UNL     1      -6.439  -1.826 122.700  0.00  0.00    +0.000 C 
ENDROOT
BRANCH   6  10
ATOM     10  N   UNL     1      -7.663  -2.178 127.272  0.00  0.00    +0.000 N 
ATOM     11  C   UNL     1      -7.962  -2.898 128.411  0.00  0.00    +0.000 C 
ATOM     12  O   UNL     1      -8.920  -3.663 128.466  0.00  0.00    +0.000 OA
ATOM     13  H   UNL     1      -6.766  -1.709 127.247  0.00  0.00    +0.000 HD
BRANCH  11  14
ATOM     14  C   UNL     1      -6.998  -2.663 129.602  0.00  0.00    +0.000 C 
BRANCH  14  15
ATOM     15  N   UNL     1      -7.710  -2.002 130.714  0.00  0.00    +0.000 NA
ATOM     16  H   UNL     1      -7.749  -0.998 130.532  0.00  0.00    +0.000 HD
ATOM     17  H   UNL     1      -7.197  -2.114 131.585  0.00  0.00    +0.000 HD
ENDBRANCH  14  15
BRANCH  14  18
ATOM     18  C   UNL     1      -6.453  -4.016 130.073  0.00  0.00    +0.000 C 
BRANCH  18  19
ATOM     19  C   UNL     1      -4.958  -4.007 130.349  0.00  0.00    +0.000 C 
BRANCH  19  20
ATOM     20  S   UNL     1      -4.582  -3.721 132.075  0.00  0.00    +0.000 S 
ATOM     21  C   UNL     1      -5.602  -4.865 132.986  0.00  0.00    +0.000 C 
ATOM     22  O   UNL     1      -3.197  -4.086 132.300  0.00  0.00    +0.000 OA
ATOM     23  O   UNL     1      -5.048  -2.384 132.398  0.00  0.00    +0.000 OA
ENDBRANCH  19  20
ENDBRANCH  18  19
ENDBRANCH  14  18
ENDBRANCH  11  14
ENDBRANCH   6  10
BRANCH   1  24
ATOM     24  C   UNL     1      -7.652   0.012 125.338  0.00  0.00    +0.000 C 
BRANCH  24  25
ATOM     25  S   UNL     1      -9.026   1.147 125.134  0.00  0.00    +0.000 S 
ATOM     26  O   UNL     1     -10.194   0.382 125.470  0.00  0.00    +0.000 OA
ATOM     27  O   UNL     1      -8.943   1.857 123.871  0.00  0.00    +0.000 OA
BRANCH  25  31
ATOM     28  N   UNL     1      -6.048   2.574 126.705  0.00  0.00    +0.000 N 
ATOM     29  C   UNL     1      -6.744   1.424 127.301  0.00  0.00    +0.000 C 
ATOM     30  C   UNL     1      -8.228   1.845 127.524  0.00  0.00    +0.000 C 
ATOM     31  N   UNL     1      -8.852   2.397 126.226  0.00  0.00    +0.000 NA
ATOM     32  C   UNL     1      -8.059   3.547 125.740  0.00  0.00    +0.000 C 
ATOM     33  C   UNL     1      -6.608   3.123 125.465  0.00  0.00    +0.000 C 
BRANCH  28  40
ATOM     34  C   UNL     1      -5.740   4.435 128.887  0.00  0.00    +0.000 C 
ATOM     35  C   UNL     1      -4.587   3.934 128.053  0.00  0.00    +0.000 A 
ATOM     36  C   UNL     1      -3.306   4.413 128.337  0.00  0.00    +0.000 A 
ATOM     37  C   UNL     1      -2.208   3.964 127.614  0.00  0.00    +0.000 A 
ATOM     38  C   UNL     1      -2.381   3.027 126.597  0.00  0.00    +0.000 A 
ATOM     39  C   UNL     1      -3.655   2.526 126.311  0.00  0.00    +0.000 A 
ATOM     40  C   UNL     1      -4.774   2.980 127.021  0.00  0.00    +0.000 A 
ENDBRANCH  28  40
ENDBRANCH  25  31
ENDBRANCH  24  25
ENDBRANCH   1  24
TORSDOF 10
ENDMDL
MODEL 9
REMARK VINA RESULT:      -8.2      4.258      8.057
REMARK  Name = CHEMBL3392901
REMARK  14 active torsions:
REMARK  status: ('A' for Active; 'I' for Inactive)
REMARK    1  A    between atoms: C_1  and  C_2
REMARK    2  A    between atoms: C_7  and  N_8
REMARK    3  A    between atoms: N_11  and  S_12
REMARK    4  A    between atoms: S_12  and  C_15
REMARK    5  A    between atoms: C_15  and  C_16
REMARK    6  A    between atoms: C_21  and  N_22
REMARK    7  A    between atoms: C_23  and  C_25
REMARK    8  A    between atoms: C_25  and  N_26
REMARK    9  A    between atoms: C_25  and  C_27
REMARK   10  A    between atoms: C_27  and  C_28
REMARK   11  A    between atoms: C_28  and  S_29
REMARK   12  A    between atoms: S_29  and  C_30
REMARK   13  A    between atoms: C_33  and  C_34
REMARK   14  A    between atoms: C_33  and  C_35
REMARK                            x       y       z     vdW  Elec       q    Type
REMARK                         _______ _______ _______ _____ _____    ______ ____
ROOT
ATOM      1  C   UNL     1      -7.089  -1.251 124.780  0.00  0.00    +0.000 C 
ATOM      2  C   UNL     1      -8.490  -0.889 124.154  0.00  0.00    +0.000 C 
ATOM      3  C   UNL     1      -8.989  -2.238 123.585  0.00  0.00    +0.000 C 
ATOM      4  C   UNL     1      -7.850  -3.206 123.961  0.00  0.00    +0.000 C 
ATOM      5  C   UNL     1      -7.924  -3.434 125.479  0.00  0.00    +0.000 C 
ATOM      6  C   UNL     1      -7.438  -2.084 126.071  0.00  0.00    +0.000 C 
ATOM      7  C   UNL     1      -6.578  -2.351 123.776  0.00  0.00    +0.000 C 
ATOM      8  C   UNL     1      -5.300  -3.084 124.222  0.00  0.00    +0.000 C 
ATOM      9  C   UNL     1      -6.449  -1.979 122.271  0.00  0.00    +0.000 C 
ENDROOT
BRANCH   6  10
ATOM     10  N   UNL     1      -6.328  -2.238 127.009  0.00  0.00    +0.000 N 
ATOM     11  C   UNL     1      -6.556  -2.468 128.350  0.00  0.00    +0.000 C 
ATOM     12  O   UNL     1      -7.687  -2.484 128.825  0.00  0.00    +0.000 OA
ATOM     13  H   UNL     1      -5.391  -2.413 126.665  0.00  0.00    +0.000 HD
BRANCH  11  14
ATOM     14  C   UNL     1      -5.279  -2.703 129.197  0.00  0.00    +0.000 C 
BRANCH  14  15
ATOM     15  N   UNL     1      -4.406  -1.514 129.148  0.00  0.00    +0.000 NA
ATOM     16  H   UNL     1      -4.708  -0.912 128.380  0.00  0.00    +0.000 HD
ATOM     17  H   UNL     1      -3.447  -1.781 128.939  0.00  0.00    +0.000 HD
ENDBRANCH  14  15
BRANCH  14  18
ATOM     18  C   UNL     1      -5.691  -2.978 130.648  0.00  0.00    +0.000 C 
BRANCH  18  19
ATOM     19  C   UNL     1      -4.859  -4.056 131.323  0.00  0.00    +0.000 C 
BRANCH  19  20
ATOM     20  S   UNL     1      -3.656  -3.380 132.463  0.00  0.00    +0.000 S 
ATOM     21  C   UNL     1      -4.603  -2.704 133.815  0.00  0.00    +0.000 C 
ATOM     22  O   UNL     1      -2.864  -4.477 132.984  0.00  0.00    +0.000 OA
ATOM     23  O   UNL     1      -3.012  -2.265 131.794  0.00  0.00    +0.000 OA
ENDBRANCH  19  20
ENDBRANCH  18  19
ENDBRANCH  14  18
ENDBRANCH  11  14
ENDBRANCH   6  10
BRANCH   1  24
ATOM     24  C   UNL     1      -6.179  -0.036 125.093  0.00  0.00    +0.000 C 
BRANCH  24  25
ATOM     25  S   UNL     1      -6.891   1.047 126.332  0.00  0.00    +0.000 S 
ATOM     26  O   UNL     1      -6.087   0.849 127.505  0.00  0.00    +0.000 OA
ATOM     27  O   UNL     1      -8.334   0.910 126.389  0.00  0.00    +0.000 OA
BRANCH  25  31
ATOM     28  N   UNL     1      -4.938   3.832 127.674  0.00  0.00    +0.000 N 
ATOM     29  C   UNL     1      -6.299   3.555 128.160  0.00  0.00    +0.000 C 
ATOM     30  C   UNL     1      -7.245   3.570 126.922  0.00  0.00    +0.000 C 
ATOM     31  N   UNL     1      -6.731   2.626 125.815  0.00  0.00    +0.000 NA
ATOM     32  C   UNL     1      -5.360   3.020 125.420  0.00  0.00    +0.000 C 
ATOM     33  C   UNL     1      -4.411   2.951 126.626  0.00  0.00    +0.000 C 
BRANCH  28  40
ATOM     34  C   UNL     1      -4.019   2.991 130.275  0.00  0.00    +0.000 C 
ATOM     35  C   UNL     1      -3.581   4.274 129.614  0.00  0.00    +0.000 A 
ATOM     36  C   UNL     1      -2.701   5.110 130.307  0.00  0.00    +0.000 A 
ATOM     37  C   UNL     1      -2.250   6.291 129.731  0.00  0.00    +0.000 A 
ATOM     38  C   UNL     1      -2.673   6.647 128.452  0.00  0.00    +0.000 A 
ATOM     39  C   UNL     1      -3.540   5.813 127.740  0.00  0.00    +0.000 A 
ATOM     40  C   UNL     1      -4.016   4.627 128.312  0.00  0.00    +0.000 A 
ENDBRANCH  28  40
ENDBRANCH  25  31
ENDBRANCH  24  25
ENDBRANCH   1  24
TORSDOF 10
ENDMDL
