MODEL 1
REMARK VINA RESULT:      -8.6      0.000      0.000
REMARK  Name = CHEMBL4206482
REMARK  4 active torsions:
REMARK  status: ('A' for Active; 'I' for Inactive)
REMARK    1  A    between atoms: C_1  and  C_2
REMARK    2  A    between atoms: C_2  and  C_3
REMARK    3  A    between atoms: C_3  and  C_4
REMARK    4  A    between atoms: C_7  and  C_8
REMARK                            x       y       z     vdW  Elec       q    Type
REMARK                         _______ _______ _______ _____ _____    ______ ____
ROOT
ATOM      1  C   UNL     1     -10.400   4.590 130.453  0.00  0.00    +0.000 C 
ATOM      2  O   UNL     1      -9.930   4.526 131.746  0.00  0.00    +0.000 OA
ATOM      3  N   UNL     1     -10.897   6.327 129.571  0.00  0.00    +0.000 N 
ATOM      4  C   UNL     1     -11.101   6.073 130.914  0.00  0.00    +0.000 C 
ATOM      5  C   UNL     1     -12.040   5.665 129.720  0.00  0.00    +0.000 C 
ATOM      6  C   UNL     1     -12.293   7.255 130.540  0.00  0.00    +0.000 C 
ATOM      7  C   UNL     1     -13.135   7.400 128.884  0.00  0.00    +0.000 C 
ATOM      8  C   UNL     1     -13.016   8.723 129.599  0.00  0.00    +0.000 A 
ATOM      9  C   UNL     1     -12.809   9.823 130.643  0.00  0.00    +0.000 A 
ATOM     10  C   UNL     1     -13.493  10.998 130.615  0.00  0.00    +0.000 A 
ATOM     11  C   UNL     1     -13.887  11.041 129.367  0.00  0.00    +0.000 A 
ATOM     12  C   UNL     1     -13.186   9.558 128.543  0.00  0.00    +0.000 A 
ATOM     13  C   UNL     1     -11.990   8.079 128.839  0.00  0.00    +0.000 A 
ENDROOT
BRANCH   1  17
ATOM     14  C   UNL     1      -7.897  -0.472 131.032  0.00  0.00    +0.000 A 
ATOM     15  C   UNL     1      -8.708  -0.076 132.069  0.00  0.00    +0.000 A 
ATOM     16  C   UNL     1      -9.650   1.333 131.928  0.00  0.00    +0.000 A 
ATOM     17  C   UNL     1      -9.676   2.692 130.800  0.00  0.00    +0.000 A 
ATOM     18  C   UNL     1      -8.841   1.889 129.961  0.00  0.00    +0.000 A 
ATOM     19  C   UNL     1      -7.985   0.485 130.023  0.00  0.00    +0.000 A 
BRANCH  14  20
ATOM     20  C   UNL     1      -7.064  -1.737 130.880  0.00  0.00    +0.000 C 
BRANCH  20  22
ATOM     21  C   UNL     1      -7.993  -3.214 129.072  0.00  0.00    +0.000 C 
ATOM     22  C   UNL     1      -6.948  -2.187 129.429  0.00  0.00    +0.000 C 
ENDBRANCH  20  22
ENDBRANCH  14  20
ENDBRANCH   1  17
TORSDOF 3
ENDMDL
MODEL 2
REMARK VINA RESULT:      -8.0      2.334     10.494
REMARK  Name = CHEMBL4206482
REMARK  4 active torsions:
REMARK  status: ('A' for Active; 'I' for Inactive)
REMARK    1  A    between atoms: C_1  and  C_2
REMARK    2  A    between atoms: C_2  and  C_3
REMARK    3  A    between atoms: C_3  and  C_4
REMARK    4  A    between atoms: C_7  and  C_8
REMARK                            x       y       z     vdW  Elec       q    Type
REMARK                         _______ _______ _______ _____ _____    ______ ____
ROOT
ATOM      1  C   UNL     1      -9.000   1.288 131.381  0.00  0.00    +0.000 C 
ATOM      2  O   UNL     1      -9.193   1.671 132.689  0.00  0.00    +0.000 OA
ATOM      3  N   UNL     1      -8.594  -0.612 130.863  0.00  0.00    +0.000 N 
ATOM      4  C   UNL     1      -8.131  -0.029 132.026  0.00  0.00    +0.000 C 
ATOM      5  C   UNL     1      -7.487   0.073 130.596  0.00  0.00    +0.000 C 
ATOM      6  C   UNL     1      -6.975  -1.259 131.703  0.00  0.00    +0.000 C 
ATOM      7  C   UNL     1      -6.488  -1.811 129.990  0.00  0.00    +0.000 C 
ATOM      8  C   UNL     1      -6.377  -2.913 131.014  0.00  0.00    +0.000 A 
ATOM      9  C   UNL     1      -6.297  -3.717 132.314  0.00  0.00    +0.000 A 
ATOM     10  C   UNL     1      -5.565  -4.857 132.426  0.00  0.00    +0.000 A 
ATOM     11  C   UNL     1      -5.437  -5.210 131.171  0.00  0.00    +0.000 A 
ATOM     12  C   UNL     1      -6.381  -3.984 130.182  0.00  0.00    +0.000 A 
ATOM     13  C   UNL     1      -7.575  -2.485 130.361  0.00  0.00    +0.000 A 
ENDROOT
BRANCH   1  17
ATOM     14  C   UNL     1     -11.613   6.324 131.204  0.00  0.00    +0.000 A 
ATOM     15  C   UNL     1     -10.628   6.187 132.153  0.00  0.00    +0.000 A 
ATOM     16  C   UNL     1      -9.656   4.791 132.181  0.00  0.00    +0.000 A 
ATOM     17  C   UNL     1      -9.747   3.208 131.404  0.00  0.00    +0.000 A 
ATOM     18  C   UNL     1     -10.743   3.788 130.555  0.00  0.00    +0.000 A 
ATOM     19  C   UNL     1     -11.643   5.160 130.438  0.00  0.00    +0.000 A 
BRANCH  14  20
ATOM     20  C   UNL     1     -12.518   7.512 130.910  0.00  0.00    +0.000 C 
BRANCH  20  22
ATOM     21  C   UNL     1     -12.801   9.090 128.974  0.00  0.00    +0.000 C 
ATOM     22  C   UNL     1     -12.833   7.651 129.426  0.00  0.00    +0.000 C 
ENDBRANCH  20  22
ENDBRANCH  14  20
ENDBRANCH   1  17
TORSDOF 3
ENDMDL
MODEL 3
REMARK VINA RESULT:      -7.8      1.913     10.282
REMARK  Name = CHEMBL4206482
REMARK  4 active torsions:
REMARK  status: ('A' for Active; 'I' for Inactive)
REMARK    1  A    between atoms: C_1  and  C_2
REMARK    2  A    between atoms: C_2  and  C_3
REMARK    3  A    between atoms: C_3  and  C_4
REMARK    4  A    between atoms: C_7  and  C_8
REMARK                            x       y       z     vdW  Elec       q    Type
REMARK                         _______ _______ _______ _____ _____    ______ ____
ROOT
ATOM      1  C   UNL     1      -8.777   2.730 130.287  0.00  0.00    +0.000 C 
ATOM      2  O   UNL     1      -8.985   2.954 128.944  0.00  0.00    +0.000 OA
ATOM      3  N   UNL     1      -7.565   1.277 130.963  0.00  0.00    +0.000 N 
ATOM      4  C   UNL     1      -8.343   1.148 129.829  0.00  0.00    +0.000 C 
ATOM      5  C   UNL     1      -8.792   0.907 131.316  0.00  0.00    +0.000 C 
ATOM      6  C   UNL     1      -8.129  -0.474 130.359  0.00  0.00    +0.000 C 
ATOM      7  C   UNL     1      -7.969  -0.975 132.147  0.00  0.00    +0.000 C 
ATOM      8  C   UNL     1      -7.224  -1.895 131.211  0.00  0.00    +0.000 A 
ATOM      9  C   UNL     1      -6.696  -2.636 129.981  0.00  0.00    +0.000 A 
ATOM     10  C   UNL     1      -6.293  -3.934 130.025  0.00  0.00    +0.000 A 
ATOM     11  C   UNL     1      -6.068  -4.095 131.305  0.00  0.00    +0.000 A 
ATOM     12  C   UNL     1      -6.375  -2.468 132.101  0.00  0.00    +0.000 A 
ATOM     13  C   UNL     1      -6.766  -0.629 131.693  0.00  0.00    +0.000 A 
ENDROOT
BRANCH   1  17
ATOM     14  C   UNL     1     -11.812   7.528 130.237  0.00  0.00    +0.000 A 
ATOM     15  C   UNL     1     -10.615   7.562 129.562  0.00  0.00    +0.000 A 
ATOM     16  C   UNL     1      -9.709   6.138 129.355  0.00  0.00    +0.000 A 
ATOM     17  C   UNL     1      -9.773   4.520 130.061  0.00  0.00    +0.000 A 
ATOM     18  C   UNL     1     -11.063   4.891 130.556  0.00  0.00    +0.000 A 
ATOM     19  C   UNL     1     -12.012   6.228 130.698  0.00  0.00    +0.000 A 
BRANCH  14  20
ATOM     20  C   UNL     1     -12.840   8.630 130.446  0.00  0.00    +0.000 C 
BRANCH  20  22
ATOM     21  C   UNL     1     -13.533  10.892 129.595  0.00  0.00    +0.000 C 
ATOM     22  C   UNL     1     -12.974   9.539 129.230  0.00  0.00    +0.000 C 
ENDBRANCH  20  22
ENDBRANCH  14  20
ENDBRANCH   1  17
TORSDOF 3
ENDMDL
MODEL 4
REMARK VINA RESULT:      -7.6      8.040      9.851
REMARK  Name = CHEMBL4206482
REMARK  4 active torsions:
REMARK  status: ('A' for Active; 'I' for Inactive)
REMARK    1  A    between atoms: C_1  and  C_2
REMARK    2  A    between atoms: C_2  and  C_3
REMARK    3  A    between atoms: C_3  and  C_4
REMARK    4  A    between atoms: C_7  and  C_8
REMARK                            x       y       z     vdW  Elec       q    Type
REMARK                         _______ _______ _______ _____ _____    ______ ____
ROOT
ATOM      1  C   UNL     1      -4.662   4.593 127.277  0.00  0.00    +0.000 C 
ATOM      2  O   UNL     1      -6.029   4.755 127.292  0.00  0.00    +0.000 OA
ATOM      3  N   UNL     1      -3.546   4.692 128.946  0.00  0.00    +0.000 N 
ATOM      4  C   UNL     1      -4.667   5.472 128.737  0.00  0.00    +0.000 C 
ATOM      5  C   UNL     1      -3.207   5.760 128.230  0.00  0.00    +0.000 C 
ATOM      6  C   UNL     1      -3.727   6.402 129.835  0.00  0.00    +0.000 C 
ATOM      7  C   UNL     1      -1.863   6.412 129.866  0.00  0.00    +0.000 C 
ATOM      8  C   UNL     1      -2.473   6.668 131.222  0.00  0.00    +0.000 A 
ATOM      9  C   UNL     1      -3.429   6.987 132.374  0.00  0.00    +0.000 A 
ATOM     10  C   UNL     1      -3.026   7.620 133.507  0.00  0.00    +0.000 A 
ATOM     11  C   UNL     1      -1.734   7.411 133.478  0.00  0.00    +0.000 A 
ATOM     12  C   UNL     1      -1.404   6.369 132.002  0.00  0.00    +0.000 A 
ATOM     13  C   UNL     1      -2.295   5.391 130.604  0.00  0.00    +0.000 A 
ENDROOT
BRANCH   1  17
ATOM     14  C   UNL     1      -6.155   3.285 121.959  0.00  0.00    +0.000 A 
ATOM     15  C   UNL     1      -6.760   2.555 122.954  0.00  0.00    +0.000 A 
ATOM     16  C   UNL     1      -6.529   2.977 124.585  0.00  0.00    +0.000 A 
ATOM     17  C   UNL     1      -5.412   4.047 125.437  0.00  0.00    +0.000 A 
ATOM     18  C   UNL     1      -5.096   4.585 124.150  0.00  0.00    +0.000 A 
ATOM     19  C   UNL     1      -5.367   4.265 122.558  0.00  0.00    +0.000 A 
BRANCH  14  20
ATOM     20  C   UNL     1      -6.302   3.174 120.448  0.00  0.00    +0.000 C 
BRANCH  20  22
ATOM     21  C   UNL     1      -7.507   4.513 118.695  0.00  0.00    +0.000 C 
ATOM     22  C   UNL     1      -6.455   4.533 119.776  0.00  0.00    +0.000 C 
ENDBRANCH  20  22
ENDBRANCH  14  20
ENDBRANCH   1  17
TORSDOF 3
ENDMDL
MODEL 5
REMARK VINA RESULT:      -7.6      1.766      2.977
REMARK  Name = CHEMBL4206482
REMARK  4 active torsions:
REMARK  status: ('A' for Active; 'I' for Inactive)
REMARK    1  A    between atoms: C_1  and  C_2
REMARK    2  A    between atoms: C_2  and  C_3
REMARK    3  A    between atoms: C_3  and  C_4
REMARK    4  A    between atoms: C_7  and  C_8
REMARK                            x       y       z     vdW  Elec       q    Type
REMARK                         _______ _______ _______ _____ _____    ______ ____
ROOT
ATOM      1  C   UNL     1      -9.219   2.662 130.848  0.00  0.00    +0.000 C 
ATOM      2  O   UNL     1      -8.457   2.300 129.760  0.00  0.00    +0.000 OA
ATOM      3  N   UNL     1     -10.717   3.996 130.722  0.00  0.00    +0.000 N 
ATOM      4  C   UNL     1      -9.554   4.091 129.983  0.00  0.00    +0.000 C 
ATOM      5  C   UNL     1      -9.780   4.584 131.459  0.00  0.00    +0.000 C 
ATOM      6  C   UNL     1     -10.099   5.717 130.089  0.00  0.00    +0.000 C 
ATOM      7  C   UNL     1     -11.023   6.416 131.550  0.00  0.00    +0.000 C 
ATOM      8  C   UNL     1     -11.389   7.087 130.249  0.00  0.00    +0.000 A 
ATOM      9  C   UNL     1     -11.421   7.579 128.800  0.00  0.00    +0.000 A 
ATOM     10  C   UNL     1     -11.911   8.797 128.450  0.00  0.00    +0.000 A 
ATOM     11  C   UNL     1     -12.656   9.087 129.487  0.00  0.00    +0.000 A 
ATOM     12  C   UNL     1     -12.573   7.639 130.614  0.00  0.00    +0.000 A 
ATOM     13  C   UNL     1     -11.899   5.840 130.728  0.00  0.00    +0.000 A 
ENDROOT
BRANCH   1  17
ATOM     14  C   UNL     1      -6.623  -2.200 132.209  0.00  0.00    +0.000 A 
ATOM     15  C   UNL     1      -5.846  -1.255 131.583  0.00  0.00    +0.000 A 
ATOM     16  C   UNL     1      -6.464   0.303 131.292  0.00  0.00    +0.000 A 
ATOM     17  C   UNL     1      -8.075   1.023 131.355  0.00  0.00    +0.000 A 
ATOM     18  C   UNL     1      -8.472  -0.159 132.056  0.00  0.00    +0.000 A 
ATOM     19  C   UNL     1      -7.881  -1.647 132.437  0.00  0.00    +0.000 A 
BRANCH  14  20
ATOM     20  C   UNL     1      -6.257  -3.602 132.675  0.00  0.00    +0.000 C 
BRANCH  20  22
ATOM     21  C   UNL     1      -5.594  -5.083 130.755  0.00  0.00    +0.000 C 
ATOM     22  C   UNL     1      -5.105  -4.199 131.876  0.00  0.00    +0.000 C 
ENDBRANCH  20  22
ENDBRANCH  14  20
ENDBRANCH   1  17
TORSDOF 3
ENDMDL
MODEL 6
REMARK VINA RESULT:      -7.5      5.530      6.841
REMARK  Name = CHEMBL4206482
REMARK  4 active torsions:
REMARK  status: ('A' for Active; 'I' for Inactive)
REMARK    1  A    between atoms: C_1  and  C_2
REMARK    2  A    between atoms: C_2  and  C_3
REMARK    3  A    between atoms: C_3  and  C_4
REMARK    4  A    between atoms: C_7  and  C_8
REMARK                            x       y       z     vdW  Elec       q    Type
REMARK                         _______ _______ _______ _____ _____    ______ ____
ROOT
ATOM      1  C   UNL     1      -7.557   0.969 131.060  0.00  0.00    +0.000 C 
ATOM      2  O   UNL     1      -6.506   0.084 131.146  0.00  0.00    +0.000 OA
ATOM      3  N   UNL     1      -7.519   2.777 131.938  0.00  0.00    +0.000 N 
ATOM      4  C   UNL     1      -6.935   1.654 132.491  0.00  0.00    +0.000 C 
ATOM      5  C   UNL     1      -8.443   2.083 132.595  0.00  0.00    +0.000 C 
ATOM      6  C   UNL     1      -7.276   2.644 133.854  0.00  0.00    +0.000 C 
ATOM      7  C   UNL     1      -8.735   3.800 133.965  0.00  0.00    +0.000 C 
ATOM      8  C   UNL     1      -7.546   4.277 134.763  0.00  0.00    +0.000 A 
ATOM      9  C   UNL     1      -6.214   4.377 135.511  0.00  0.00    +0.000 A 
ATOM     10  C   UNL     1      -6.042   5.176 136.597  0.00  0.00    +0.000 A 
ATOM     11  C   UNL     1      -7.031   6.023 136.458  0.00  0.00    +0.000 A 
ATOM     12  C   UNL     1      -7.880   5.586 134.890  0.00  0.00    +0.000 A 
ATOM     13  C   UNL     1      -7.736   4.434 133.355  0.00  0.00    +0.000 A 
ENDROOT
BRANCH   1  17
ATOM     14  C   UNL     1      -8.106  -2.898 126.941  0.00  0.00    +0.000 A 
ATOM     15  C   UNL     1      -8.107  -3.382 128.228  0.00  0.00    +0.000 A 
ATOM     16  C   UNL     1      -8.131  -2.305 129.545  0.00  0.00    +0.000 A 
ATOM     17  C   UNL     1      -7.875  -0.568 129.724  0.00  0.00    +0.000 A 
ATOM     18  C   UNL     1      -7.994  -0.500 128.299  0.00  0.00    +0.000 A 
ATOM     19  C   UNL     1      -8.063  -1.507 127.000  0.00  0.00    +0.000 A 
BRANCH  14  20
ATOM     20  C   UNL     1      -8.202  -3.652 125.622  0.00  0.00    +0.000 C 
BRANCH  20  22
ATOM     21  C   UNL     1      -9.505  -3.288 123.503  0.00  0.00    +0.000 C 
ATOM     22  C   UNL     1      -8.464  -2.726 124.440  0.00  0.00    +0.000 C 
ENDBRANCH  20  22
ENDBRANCH  14  20
ENDBRANCH   1  17
TORSDOF 3
ENDMDL
MODEL 7
REMARK VINA RESULT:      -7.4      7.953     10.697
REMARK  Name = CHEMBL4206482
REMARK  4 active torsions:
REMARK  status: ('A' for Active; 'I' for Inactive)
REMARK    1  A    between atoms: C_1  and  C_2
REMARK    2  A    between atoms: C_2  and  C_3
REMARK    3  A    between atoms: C_3  and  C_4
REMARK    4  A    between atoms: C_7  and  C_8
REMARK                            x       y       z     vdW  Elec       q    Type
REMARK                         _______ _______ _______ _____ _____    ______ ____
ROOT
ATOM      1  C   UNL     1      -4.966   1.923 126.751  0.00  0.00    +0.000 C 
ATOM      2  O   UNL     1      -5.135   3.060 125.994  0.00  0.00    +0.000 OA
ATOM      3  N   UNL     1      -5.391   0.087 126.051  0.00  0.00    +0.000 N 
ATOM      4  C   UNL     1      -6.119   1.213 125.717  0.00  0.00    +0.000 C 
ATOM      5  C   UNL     1      -6.291   0.321 127.001  0.00  0.00    +0.000 C 
ATOM      6  C   UNL     1      -7.245  -0.070 125.518  0.00  0.00    +0.000 C 
ATOM      7  C   UNL     1      -7.251  -1.624 126.548  0.00  0.00    +0.000 C 
ATOM      8  C   UNL     1      -7.777  -1.845 125.151  0.00  0.00    +0.000 A 
ATOM      9  C   UNL     1      -8.326  -1.660 123.735  0.00  0.00    +0.000 A 
ATOM     10  C   UNL     1      -9.171  -2.553 123.154  0.00  0.00    +0.000 A 
ATOM     11  C   UNL     1      -8.952  -3.625 123.873  0.00  0.00    +0.000 A 
ATOM     12  C   UNL     1      -7.634  -3.192 125.076  0.00  0.00    +0.000 A 
ATOM     13  C   UNL     1      -6.401  -1.788 125.536  0.00  0.00    +0.000 A 
ENDROOT
BRANCH   1  17
ATOM     14  C   UNL     1      -2.409   5.869 129.932  0.00  0.00    +0.000 A 
ATOM     15  C   UNL     1      -2.276   6.010 128.571  0.00  0.00    +0.000 A 
ATOM     16  C   UNL     1      -3.145   4.996 127.518  0.00  0.00    +0.000 A 
ATOM     17  C   UNL     1      -4.066   3.503 127.721  0.00  0.00    +0.000 A 
ATOM     18  C   UNL     1      -4.012   3.773 129.125  0.00  0.00    +0.000 A 
ATOM     19  C   UNL     1      -3.259   4.792 130.176  0.00  0.00    +0.000 A 
BRANCH  14  20
ATOM     20  C   UNL     1      -1.834   6.719 131.056  0.00  0.00    +0.000 C 
BRANCH  20  22
ATOM     21  C   UNL     1      -0.426   6.745 133.138  0.00  0.00    +0.000 C 
ATOM     22  C   UNL     1      -1.115   5.884 132.108  0.00  0.00    +0.000 C 
ENDBRANCH  20  22
ENDBRANCH  14  20
ENDBRANCH   1  17
TORSDOF 3
ENDMDL
MODEL 8
REMARK VINA RESULT:      -7.4      7.803     11.611
REMARK  Name = CHEMBL4206482
REMARK  4 active torsions:
REMARK  status: ('A' for Active; 'I' for Inactive)
REMARK    1  A    between atoms: C_1  and  C_2
REMARK    2  A    between atoms: C_2  and  C_3
REMARK    3  A    between atoms: C_3  and  C_4
REMARK    4  A    between atoms: C_7  and  C_8
REMARK                            x       y       z     vdW  Elec       q    Type
REMARK                         _______ _______ _______ _____ _____    ______ ____
ROOT
ATOM      1  C   UNL     1      -6.315  -0.661 127.526  0.00  0.00    +0.000 C 
ATOM      2  O   UNL     1      -6.916   0.504 127.945  0.00  0.00    +0.000 OA
ATOM      3  N   UNL     1      -6.421  -2.370 128.579  0.00  0.00    +0.000 N 
ATOM      4  C   UNL     1      -6.347  -1.122 129.166  0.00  0.00    +0.000 C 
ATOM      5  C   UNL     1      -5.148  -1.994 128.642  0.00  0.00    +0.000 C 
ATOM      6  C   UNL     1      -5.685  -2.169 130.358  0.00  0.00    +0.000 C 
ATOM      7  C   UNL     1      -4.721  -3.716 129.969  0.00  0.00    +0.000 C 
ATOM      8  C   UNL     1      -5.471  -3.805 131.275  0.00  0.00    +0.000 A 
ATOM      9  C   UNL     1      -6.262  -3.491 132.547  0.00  0.00    +0.000 A 
ATOM     10  C   UNL     1      -6.110  -4.197 133.698  0.00  0.00    +0.000 A 
ATOM     11  C   UNL     1      -5.575  -5.308 133.254  0.00  0.00    +0.000 A 
ATOM     12  C   UNL     1      -5.485  -5.153 131.427  0.00  0.00    +0.000 A 
ATOM     13  C   UNL     1      -6.020  -4.013 129.971  0.00  0.00    +0.000 A 
ENDROOT
BRANCH   1  17
ATOM     14  C   UNL     1      -6.711   2.798 123.042  0.00  0.00    +0.000 A 
ATOM     15  C   UNL     1      -6.102   3.322 124.158  0.00  0.00    +0.000 A 
ATOM     16  C   UNL     1      -5.765   2.325 125.495  0.00  0.00    +0.000 A 
ATOM     17  C   UNL     1      -6.263   0.703 125.981  0.00  0.00    +0.000 A 
ATOM     18  C   UNL     1      -6.739   0.550 124.640  0.00  0.00    +0.000 A 
ATOM     19  C   UNL     1      -6.999   1.458 123.293  0.00  0.00    +0.000 A 
BRANCH  14  20
ATOM     20  C   UNL     1      -7.005   3.453 121.700  0.00  0.00    +0.000 C 
BRANCH  20  22
ATOM     21  C   UNL     1      -6.061   4.689 119.725  0.00  0.00    +0.000 C 
ATOM     22  C   UNL     1      -5.757   4.043 121.054  0.00  0.00    +0.000 C 
ENDBRANCH  20  22
ENDBRANCH  14  20
ENDBRANCH   1  17
TORSDOF 3
ENDMDL
MODEL 9
REMARK VINA RESULT:      -7.3      6.657      8.257
REMARK  Name = CHEMBL4206482
REMARK  4 active torsions:
REMARK  status: ('A' for Active; 'I' for Inactive)
REMARK    1  A    between atoms: C_1  and  C_2
REMARK    2  A    between atoms: C_2  and  C_3
REMARK    3  A    between atoms: C_3  and  C_4
REMARK    4  A    between atoms: C_7  and  C_8
REMARK                            x       y       z     vdW  Elec       q    Type
REMARK                         _______ _______ _______ _____ _____    ______ ____
ROOT
ATOM      1  C   UNL     1      -7.812   1.695 125.731  0.00  0.00    +0.000 C 
ATOM      2  O   UNL     1      -9.132   1.531 126.088  0.00  0.00    +0.000 OA
ATOM      3  N   UNL     1      -7.242   2.915 124.239  0.00  0.00    +0.000 N 
ATOM      4  C   UNL     1      -8.413   2.182 124.213  0.00  0.00    +0.000 C 
ATOM      5  C   UNL     1      -6.976   1.685 123.812  0.00  0.00    +0.000 C 
ATOM      6  C   UNL     1      -8.043   2.412 122.550  0.00  0.00    +0.000 C 
ATOM      7  C   UNL     1      -6.311   2.519 121.870  0.00  0.00    +0.000 C 
ATOM      8  C   UNL     1      -7.306   3.318 121.066  0.00  0.00    +0.000 A 
ATOM      9  C   UNL     1      -8.585   3.907 120.465  0.00  0.00    +0.000 A 
ATOM     10  C   UNL     1      -8.658   4.337 119.177  0.00  0.00    +0.000 A 
ATOM     11  C   UNL     1      -7.394   4.519 118.890  0.00  0.00    +0.000 A 
ATOM     12  C   UNL     1      -6.448   4.147 120.420  0.00  0.00    +0.000 A 
ATOM     13  C   UNL     1      -6.681   3.729 122.284  0.00  0.00    +0.000 A 
ENDROOT
BRANCH   1  17
ATOM     14  C   UNL     1      -7.633  -1.574 130.369  0.00  0.00    +0.000 A 
ATOM     15  C   UNL     1      -7.863  -0.236 130.581  0.00  0.00    +0.000 A 
ATOM     16  C   UNL     1      -8.117   0.808 129.262  0.00  0.00    +0.000 A 
ATOM     17  C   UNL     1      -7.892   0.668 127.517  0.00  0.00    +0.000 A 
ATOM     18  C   UNL     1      -7.757  -0.738 127.743  0.00  0.00    +0.000 A 
ATOM     19  C   UNL     1      -7.597  -1.795 128.994  0.00  0.00    +0.000 A 
BRANCH  14  20
ATOM     20  C   UNL     1      -7.496  -2.706 131.377  0.00  0.00    +0.000 C 
BRANCH  20  22
ATOM     21  C   UNL     1      -6.019  -3.594 133.207  0.00  0.00    +0.000 C 
ATOM     22  C   UNL     1      -6.545  -2.360 132.516  0.00  0.00    +0.000 C 
ENDBRANCH  20  22
ENDBRANCH  14  20
ENDBRANCH   1  17
TORSDOF 3
ENDMDL
