MODEL 1
REMARK VINA RESULT:      -7.9      0.000      0.000
REMARK  Name = CHEMBL1630523
REMARK  23 active torsions:
REMARK  status: ('A' for Active; 'I' for Inactive)
REMARK    1  A    between atoms: C_1  and  C_2
REMARK    2  A    between atoms: C_2  and  C_3
REMARK    3  A    between atoms: C_3  and  C_4
REMARK    4  A    between atoms: C_3  and  C_5
REMARK    5  A    between atoms: C_9  and  C_10
REMARK    6  A    between atoms: C_10  and  C_11
REMARK    7  A    between atoms: C_14  and  O_15
REMARK    8  A    between atoms: C_21  and  N_22
REMARK    9  A    between atoms: C_27  and  C_28
REMARK   10  A    between atoms: C_34  and  C_35
REMARK   11  A    between atoms: N_37  and  C_38
REMARK   12  A    between atoms: C_38  and  C_39
REMARK   13  A    between atoms: C_38  and  N_43
REMARK   14  A    between atoms: C_39  and  C_40
REMARK   15  A    between atoms: C_40  and  C_41
REMARK   16  A    between atoms: C_40  and  C_42
REMARK   17  A    between atoms: N_43  and  C_44
REMARK   18  A    between atoms: C_44  and  C_45
REMARK   19  A    between atoms: C_51  and  C_52
REMARK   20  A    between atoms: C_52  and  C_53
REMARK   21  A    between atoms: C_59  and  C_60
REMARK   22  A    between atoms: C_60  and  C_61
REMARK   23  A    between atoms: C_61  and  C_62
REMARK                            x       y       z     vdW  Elec       q    Type
REMARK                         _______ _______ _______ _____ _____    ______ ____
ROOT
ATOM      1  C   UNL     1      -3.919   6.381 133.777  0.00  0.00    +0.000 C 
ATOM      2  N   UNL     1      -5.753  -4.240 139.357  0.00  0.00    +0.000 N 
ATOM      3  C   UNL     1      -5.647  -3.535 138.072  0.00  0.00    +0.000 C 
ATOM      4  O   UNL     1      -6.591  -2.778 137.682  0.00  0.00    +0.000 OA
ATOM      5  C   UNL     1      -4.408  -3.710 137.208  0.00  0.00    +0.000 C 
ATOM      6  N   UNL     1      -4.795  -4.268 135.904  0.00  0.00    +0.000 N 
ATOM      7  C   UNL     1      -5.730  -3.534 135.038  0.00  0.00    +0.000 C 
ATOM      8  O   UNL     1      -6.064  -4.017 133.911  0.00  0.00    +0.000 OA
ATOM      9  C   UNL     1      -6.296  -2.199 135.492  0.00  0.00    +0.000 C 
ATOM     10  C   UNL     1      -5.902  -1.118 134.499  0.00  0.00    +0.000 C 
ATOM     11  S   UNL     1      -6.563  -1.530 132.865  0.00  0.00    +0.000 S 
ATOM     12 SE   UNL     1      -5.980   0.070 131.395  0.00  0.00    +0.000 Se
ATOM     13  C   UNL     1      -6.695  -0.376 129.626  0.00  0.00    +0.000 C 
ATOM     14  C   UNL     1      -6.301   0.705 128.633  0.00  0.00    +0.000 C 
ATOM     15  N   UNL     1      -6.849   1.996 129.071  0.00  0.00    +0.000 N 
ATOM     16  C   UNL     1      -6.462   2.554 130.375  0.00  0.00    +0.000 C 
ATOM     17  O   UNL     1      -6.936   3.671 130.754  0.00  0.00    +0.000 OA
ATOM     18  C   UNL     1      -5.496   1.796 131.269  0.00  0.00    +0.000 C 
ATOM     19  N   UNL     1      -4.305   2.621 131.516  0.00  0.00    +0.000 N 
ATOM     20  C   UNL     1      -4.441   3.931 132.170  0.00  0.00    +0.000 C 
ATOM     21  O   UNL     1      -3.411   4.645 132.383  0.00  0.00    +0.000 OA
ATOM     22  C   UNL     1      -5.813   4.431 132.591  0.00  0.00    +0.000 C 
ATOM     23  N   UNL     1      -5.828   4.652 134.045  0.00  0.00    +0.000 N 
ATOM     24  C   UNL     1      -4.898   5.615 134.652  0.00  0.00    +0.000 C 
ATOM     25  O   UNL     1      -4.911   5.806 135.908  0.00  0.00    +0.000 OA
ATOM     26  H   UNL     1      -5.868  -4.936 140.044  0.00  0.00    +0.000 HD
ATOM     27  H   UNL     1      -4.429  -5.134 135.611  0.00  0.00    +0.000 HD
ATOM     28  H   UNL     1      -7.475   2.488 128.491  0.00  0.00    +0.000 HD
ATOM     29  H   UNL     1      -3.416   2.297 131.243  0.00  0.00    +0.000 HD
ATOM     30  H   UNL     1      -6.462   4.156 134.612  0.00  0.00    +0.000 HD
ENDROOT
BRANCH  14  31
ATOM     31  C   UNL     1      -6.856   0.359 127.260  0.00  0.00    +0.000 C 
ATOM     32  O   UNL     1      -7.600  -0.661 127.115  0.00  0.00    +0.000 OA
ATOM     33  N   UNL     1      -6.531   1.203 126.101  0.00  0.00    +0.000 N 
ATOM     34  C   UNL     1      -5.203   1.735 125.748  0.00  0.00    +0.000 C 
ATOM     35  C   UNL     1      -5.542   3.110 125.241  0.00  0.00    +0.000 C 
ATOM     36  C   UNL     1      -6.795   2.854 124.350  0.00  0.00    +0.000 C 
ATOM     37  C   UNL     1      -7.515   1.714 125.073  0.00  0.00    +0.000 C 
BRANCH  37  38
ATOM     38  C   UNL     1      -7.878   0.609 124.092  0.00  0.00    +0.000 C 
ATOM     39  O   UNL     1      -8.842   0.773 123.279  0.00  0.00    +0.000 OA
ATOM     40  N   UNL     1      -7.116  -0.647 124.085  0.00  0.00    +0.000 N 
ATOM     41  H   UNL     1      -6.369  -0.774 124.715  0.00  0.00    +0.000 HD
BRANCH  40  42
ATOM     42  C   UNL     1      -7.466  -1.714 123.138  0.00  0.00    +0.000 C 
BRANCH  42  43
ATOM     43  N   UNL     1      -8.899  -2.024 123.257  0.00  0.00    +0.000 NA
ATOM     44  H   UNL     1      -9.301  -2.141 122.328  0.00  0.00    +0.000 HD
BRANCH  43  45
ATOM     45  C   UNL     1      -9.067  -3.268 124.024  0.00  0.00    +0.000 C 
BRANCH  45  46
ATOM     46  C   UNL     1      -9.319  -2.932 125.485  0.00  0.00    +0.000 C 
ATOM     47  N   UNL     1      -8.683  -3.730 126.543  0.00  0.00    +0.000 N 
ATOM     48  O   UNL     1     -10.081  -1.963 125.791  0.00  0.00    +0.000 OA
ATOM     49  H   UNL     1      -8.093  -4.481 126.306  0.00  0.00    +0.000 HD
ATOM     50  H   UNL     1      -8.846  -3.512 127.489  0.00  0.00    +0.000 HD
ENDBRANCH  45  46
ENDBRANCH  43  45
ENDBRANCH  42  43
BRANCH  42  51
ATOM     51  C   UNL     1      -6.650  -2.958 123.450  0.00  0.00    +0.000 C 
BRANCH  51  52
ATOM     52  C   UNL     1      -5.311  -2.549 124.042  0.00  0.00    +0.000 C 
ATOM     53  C   UNL     1      -5.335  -2.766 125.546  0.00  0.00    +0.000 C 
ATOM     54  C   UNL     1      -4.207  -3.393 123.425  0.00  0.00    +0.000 C 
ENDBRANCH  51  52
ENDBRANCH  42  51
ENDBRANCH  40  42
ENDBRANCH  37  38
ENDBRANCH  14  31
BRANCH   9  55
ATOM     55  N   UNL     1      -5.760  -1.865 136.820  0.00  0.00    +0.000 NA
ATOM     56  H   UNL     1      -4.811  -2.230 136.905  0.00  0.00    +0.000 HD
ATOM     57  H   UNL     1      -6.350  -2.280 137.540  0.00  0.00    +0.000 HD
ENDBRANCH   9  55
BRANCH   1  58
ATOM     58  C   UNL     1      -4.108   5.970 132.326  0.00  0.00    +0.000 C 
ATOM     59  C   UNL     1      -4.273   7.212 131.466  0.00  0.00    +0.000 C 
BRANCH  58  61
ATOM     60  C   UNL     1      -1.390   5.349 132.040  0.00  0.00    +0.000 C 
ATOM     61  C   UNL     1      -2.892   5.188 131.859  0.00  0.00    +0.000 C 
ENDBRANCH  58  61
ENDBRANCH   1  58
BRANCH  18  62
ATOM     62  C   UNL     1      -6.173   1.477 132.593  0.00  0.00    +0.000 C 
BRANCH  62  63
ATOM     63  C   UNL     1      -4.965   1.335 133.503  0.00  0.00    +0.000 C 
ATOM     64  N   UNL     1      -5.035   1.800 134.896  0.00  0.00    +0.000 N 
ATOM     65  O   UNL     1      -3.893   0.814 133.060  0.00  0.00    +0.000 OA
ATOM     66  H   UNL     1      -5.865   2.203 135.239  0.00  0.00    +0.000 HD
ATOM     67  H   UNL     1      -4.252   1.707 135.485  0.00  0.00    +0.000 HD
ENDBRANCH  62  63
ENDBRANCH  18  62
BRANCH   5  68
ATOM     68  C   UNL     1      -3.737  -2.363 137.004  0.00  0.00    +0.000 C 
BRANCH  68  69
ATOM     69  C   UNL     1      -2.430  -2.632 136.279  0.00  0.00    +0.000 A 
ATOM     70  C   UNL     1      -1.608  -3.655 136.701  0.00  0.00    +0.000 A 
ATOM     71  C   UNL     1      -0.405  -3.931 136.043  0.00  0.00    +0.000 A 
ATOM     72  C   UNL     1      -0.074  -3.138 134.925  0.00  0.00    +0.000 A 
ATOM     73  C   UNL     1      -0.888  -2.102 134.532  0.00  0.00    +0.000 A 
ATOM     74  C   UNL     1      -2.069  -1.856 135.204  0.00  0.00    +0.000 A 
BRANCH  72  75
ATOM     75  O   UNL     1       1.056  -3.348 134.214  0.00  0.00    +0.000 OA
ATOM     76  H   UNL     1       1.010  -3.463 133.284  0.00  0.00    +0.000 HD
ENDBRANCH  72  75
ENDBRANCH  68  69
ENDBRANCH   5  68
BRANCH  22  77
ATOM     77  C   UNL     1      -6.117   5.737 131.877  0.00  0.00    +0.000 C 
BRANCH  77  78
ATOM     78  C   UNL     1      -7.526   6.190 132.224  0.00  0.00    +0.000 C 
BRANCH  78  79
ATOM     79  C   UNL     1      -8.248   6.614 130.957  0.00  0.00    +0.000 C 
ATOM     80  N   UNL     1      -9.380   5.823 130.455  0.00  0.00    +0.000 N 
ATOM     81  O   UNL     1      -7.874   7.655 130.330  0.00  0.00    +0.000 OA
ATOM     82  H   UNL     1      -9.671   5.016 130.940  0.00  0.00    +0.000 HD
ATOM     83  H   UNL     1      -9.848   6.097 129.633  0.00  0.00    +0.000 HD
ENDBRANCH  78  79
ENDBRANCH  77  78
ENDBRANCH  22  77
TORSDOF 19
ENDMDL
MODEL 2
REMARK VINA RESULT:      -7.6      3.646      7.517
REMARK  Name = CHEMBL1630523
REMARK  23 active torsions:
REMARK  status: ('A' for Active; 'I' for Inactive)
REMARK    1  A    between atoms: C_1  and  C_2
REMARK    2  A    between atoms: C_2  and  C_3
REMARK    3  A    between atoms: C_3  and  C_4
REMARK    4  A    between atoms: C_3  and  C_5
REMARK    5  A    between atoms: C_9  and  C_10
REMARK    6  A    between atoms: C_10  and  C_11
REMARK    7  A    between atoms: C_14  and  O_15
REMARK    8  A    between atoms: C_21  and  N_22
REMARK    9  A    between atoms: C_27  and  C_28
REMARK   10  A    between atoms: C_34  and  C_35
REMARK   11  A    between atoms: N_37  and  C_38
REMARK   12  A    between atoms: C_38  and  C_39
REMARK   13  A    between atoms: C_38  and  N_43
REMARK   14  A    between atoms: C_39  and  C_40
REMARK   15  A    between atoms: C_40  and  C_41
REMARK   16  A    between atoms: C_40  and  C_42
REMARK   17  A    between atoms: N_43  and  C_44
REMARK   18  A    between atoms: C_44  and  C_45
REMARK   19  A    between atoms: C_51  and  C_52
REMARK   20  A    between atoms: C_52  and  C_53
REMARK   21  A    between atoms: C_59  and  C_60
REMARK   22  A    between atoms: C_60  and  C_61
REMARK   23  A    between atoms: C_61  and  C_62
REMARK                            x       y       z     vdW  Elec       q    Type
REMARK                         _______ _______ _______ _____ _____    ______ ____
ROOT
ATOM      1  C   UNL     1      -5.071  -4.086 134.192  0.00  0.00    +0.000 C 
ATOM      2  N   UNL     1      -2.340   6.452 139.557  0.00  0.00    +0.000 N 
ATOM      3  C   UNL     1      -3.042   5.789 138.449  0.00  0.00    +0.000 C 
ATOM      4  O   UNL     1      -2.382   5.309 137.474  0.00  0.00    +0.000 OA
ATOM      5  C   UNL     1      -4.558   5.676 138.469  0.00  0.00    +0.000 C 
ATOM      6  N   UNL     1      -5.116   6.358 137.292  0.00  0.00    +0.000 N 
ATOM      7  C   UNL     1      -4.744   5.915 135.940  0.00  0.00    +0.000 C 
ATOM      8  O   UNL     1      -5.226   6.505 134.923  0.00  0.00    +0.000 OA
ATOM      9  C   UNL     1      -3.784   4.750 135.760  0.00  0.00    +0.000 C 
ATOM     10  C   UNL     1      -4.474   3.640 134.984  0.00  0.00    +0.000 C 
ATOM     11  S   UNL     1      -4.980   4.263 133.361  0.00  0.00    +0.000 S 
ATOM     12 SE   UNL     1      -6.001   2.619 132.214  0.00  0.00    +0.000 Se
ATOM     13  C   UNL     1      -6.549   3.293 130.456  0.00  0.00    +0.000 C 
ATOM     14  C   UNL     1      -7.239   2.182 129.681  0.00  0.00    +0.000 C 
ATOM     15  N   UNL     1      -6.310   1.057 129.505  0.00  0.00    +0.000 N 
ATOM     16  C   UNL     1      -5.752   0.375 130.682  0.00  0.00    +0.000 C 
ATOM     17  O   UNL     1      -4.949  -0.599 130.531  0.00  0.00    +0.000 OA
ATOM     18  C   UNL     1      -6.136   0.833 132.079  0.00  0.00    +0.000 C 
ATOM     19  N   UNL     1      -6.781  -0.275 132.799  0.00  0.00    +0.000 N 
ATOM     20  C   UNL     1      -6.050  -1.529 133.025  0.00  0.00    +0.000 C 
ATOM     21  O   UNL     1      -6.608  -2.487 133.647  0.00  0.00    +0.000 OA
ATOM     22  C   UNL     1      -4.626  -1.681 132.516  0.00  0.00    +0.000 C 
ATOM     23  N   UNL     1      -3.726  -1.942 133.649  0.00  0.00    +0.000 N 
ATOM     24  C   UNL     1      -3.929  -3.129 134.492  0.00  0.00    +0.000 C 
ATOM     25  O   UNL     1      -3.151  -3.354 135.470  0.00  0.00    +0.000 OA
ATOM     26  H   UNL     1      -1.978   7.131 140.172  0.00  0.00    +0.000 HD
ATOM     27  H   UNL     1      -5.737   7.113 137.409  0.00  0.00    +0.000 HD
ATOM     28  H   UNL     1      -6.061   0.760 128.600  0.00  0.00    +0.000 HD
ATOM     29  H   UNL     1      -7.704  -0.176 133.129  0.00  0.00    +0.000 HD
ATOM     30  H   UNL     1      -2.986  -1.322 133.843  0.00  0.00    +0.000 HD
ENDROOT
BRANCH  14  31
ATOM     31  C   UNL     1      -7.664   2.705 128.318  0.00  0.00    +0.000 C 
ATOM     32  O   UNL     1      -8.894   2.729 128.002  0.00  0.00    +0.000 OA
ATOM     33  N   UNL     1      -6.651   3.184 127.365  0.00  0.00    +0.000 N 
ATOM     34  C   UNL     1      -5.376   2.522 127.034  0.00  0.00    +0.000 C 
ATOM     35  C   UNL     1      -4.444   3.694 126.894  0.00  0.00    +0.000 C 
ATOM     36  C   UNL     1      -5.290   4.717 126.077  0.00  0.00    +0.000 C 
ATOM     37  C   UNL     1      -6.717   4.469 126.572  0.00  0.00    +0.000 C 
BRANCH  37  38
ATOM     38  C   UNL     1      -7.668   4.319 125.396  0.00  0.00    +0.000 C 
ATOM     39  O   UNL     1      -8.856   4.766 125.477  0.00  0.00    +0.000 OA
ATOM     40  N   UNL     1      -7.215   3.657 124.164  0.00  0.00    +0.000 N 
ATOM     41  H   UNL     1      -6.296   3.310 124.101  0.00  0.00    +0.000 HD
BRANCH  40  42
ATOM     42  C   UNL     1      -8.135   3.512 123.027  0.00  0.00    +0.000 C 
BRANCH  42  43
ATOM     43  N   UNL     1      -9.275   2.671 123.422  0.00  0.00    +0.000 NA
ATOM     44  H   UNL     1     -10.105   2.958 122.904  0.00  0.00    +0.000 HD
BRANCH  43  45
ATOM     45  C   UNL     1      -8.972   1.264 123.122  0.00  0.00    +0.000 C 
BRANCH  45  46
ATOM     46  C   UNL     1      -9.306   0.405 124.332  0.00  0.00    +0.000 C 
ATOM     47  N   UNL     1      -9.435   1.023 125.658  0.00  0.00    +0.000 N 
ATOM     48  O   UNL     1      -9.472  -0.847 124.195  0.00  0.00    +0.000 OA
ATOM     49  H   UNL     1      -9.305   1.993 125.765  0.00  0.00    +0.000 HD
ATOM     50  H   UNL     1      -9.651   0.467 126.442  0.00  0.00    +0.000 HD
ENDBRANCH  45  46
ENDBRANCH  43  45
ENDBRANCH  42  43
BRANCH  42  51
ATOM     51  C   UNL     1      -7.404   2.860 121.864  0.00  0.00    +0.000 C 
BRANCH  51  52
ATOM     52  C   UNL     1      -6.642   3.921 121.087  0.00  0.00    +0.000 C 
ATOM     53  C   UNL     1      -5.211   3.457 120.867  0.00  0.00    +0.000 C 
ATOM     54  C   UNL     1      -7.314   4.144 119.742  0.00  0.00    +0.000 C 
ENDBRANCH  51  52
ENDBRANCH  42  51
ENDBRANCH  40  42
ENDBRANCH  37  38
ENDBRANCH  14  31
BRANCH   9  55
ATOM     55  N   UNL     1      -3.373   4.246 137.078  0.00  0.00    +0.000 NA
ATOM     56  H   UNL     1      -3.434   3.227 137.086  0.00  0.00    +0.000 HD
ATOM     57  H   UNL     1      -3.988   4.629 137.796  0.00  0.00    +0.000 HD
ENDBRANCH   9  55
BRANCH   1  58
ATOM     58  C   UNL     1      -5.844  -3.591 132.981  0.00  0.00    +0.000 C 
ATOM     59  C   UNL     1      -5.904  -4.691 131.934  0.00  0.00    +0.000 C 
BRANCH  58  61
ATOM     60  C   UNL     1      -8.249  -3.768 134.408  0.00  0.00    +0.000 C 
ATOM     61  C   UNL     1      -7.255  -3.213 133.400  0.00  0.00    +0.000 C 
ENDBRANCH  58  61
ENDBRANCH   1  58
BRANCH  18  62
ATOM     62  C   UNL     1      -4.888   1.266 132.832  0.00  0.00    +0.000 C 
BRANCH  62  63
ATOM     63  C   UNL     1      -5.337   1.058 134.269  0.00  0.00    +0.000 C 
ATOM     64  N   UNL     1      -4.376   0.592 135.279  0.00  0.00    +0.000 N 
ATOM     65  O   UNL     1      -6.543   1.285 134.598  0.00  0.00    +0.000 OA
ATOM     66  H   UNL     1      -3.441   0.415 135.024  0.00  0.00    +0.000 HD
ATOM     67  H   UNL     1      -4.666   0.457 136.209  0.00  0.00    +0.000 HD
ENDBRANCH  62  63
ENDBRANCH  18  62
BRANCH   5  68
ATOM     68  C   UNL     1      -4.958   4.210 138.441  0.00  0.00    +0.000 C 
BRANCH  68  69
ATOM     69  C   UNL     1      -5.758   3.953 139.707  0.00  0.00    +0.000 A 
ATOM     70  C   UNL     1      -6.555   4.948 140.230  0.00  0.00    +0.000 A 
ATOM     71  C   UNL     1      -7.312   4.733 141.386  0.00  0.00    +0.000 A 
ATOM     72  C   UNL     1      -7.242   3.458 141.985  0.00  0.00    +0.000 A 
ATOM     73  C   UNL     1      -6.422   2.483 141.471  0.00  0.00    +0.000 A 
ATOM     74  C   UNL     1      -5.687   2.729 140.326  0.00  0.00    +0.000 A 
BRANCH  72  75
ATOM     75  O   UNL     1      -7.957   3.153 143.091  0.00  0.00    +0.000 OA
ATOM     76  H   UNL     1      -8.583   2.455 143.066  0.00  0.00    +0.000 HD
ENDBRANCH  72  75
ENDBRANCH  68  69
ENDBRANCH   5  68
BRANCH  22  77
ATOM     77  C   UNL     1      -4.560  -2.842 131.538  0.00  0.00    +0.000 C 
BRANCH  77  78
ATOM     78  C   UNL     1      -3.219  -2.827 130.822  0.00  0.00    +0.000 C 
BRANCH  78  79
ATOM     79  C   UNL     1      -3.404  -3.298 129.390  0.00  0.00    +0.000 C 
ATOM     80  N   UNL     1      -4.593  -2.889 128.628  0.00  0.00    +0.000 N 
ATOM     81  O   UNL     1      -2.530  -4.046 128.849  0.00  0.00    +0.000 OA
ATOM     82  H   UNL     1      -5.271  -2.310 129.047  0.00  0.00    +0.000 HD
ATOM     83  H   UNL     1      -4.713  -3.195 127.700  0.00  0.00    +0.000 HD
ENDBRANCH  78  79
ENDBRANCH  77  78
ENDBRANCH  22  77
TORSDOF 19
ENDMDL
MODEL 3
REMARK VINA RESULT:      -7.5      2.604      3.741
REMARK  Name = CHEMBL1630523
REMARK  23 active torsions:
REMARK  status: ('A' for Active; 'I' for Inactive)
REMARK    1  A    between atoms: C_1  and  C_2
REMARK    2  A    between atoms: C_2  and  C_3
REMARK    3  A    between atoms: C_3  and  C_4
REMARK    4  A    between atoms: C_3  and  C_5
REMARK    5  A    between atoms: C_9  and  C_10
REMARK    6  A    between atoms: C_10  and  C_11
REMARK    7  A    between atoms: C_14  and  O_15
REMARK    8  A    between atoms: C_21  and  N_22
REMARK    9  A    between atoms: C_27  and  C_28
REMARK   10  A    between atoms: C_34  and  C_35
REMARK   11  A    between atoms: N_37  and  C_38
REMARK   12  A    between atoms: C_38  and  C_39
REMARK   13  A    between atoms: C_38  and  N_43
REMARK   14  A    between atoms: C_39  and  C_40
REMARK   15  A    between atoms: C_40  and  C_41
REMARK   16  A    between atoms: C_40  and  C_42
REMARK   17  A    between atoms: N_43  and  C_44
REMARK   18  A    between atoms: C_44  and  C_45
REMARK   19  A    between atoms: C_51  and  C_52
REMARK   20  A    between atoms: C_52  and  C_53
REMARK   21  A    between atoms: C_59  and  C_60
REMARK   22  A    between atoms: C_60  and  C_61
REMARK   23  A    between atoms: C_61  and  C_62
REMARK                            x       y       z     vdW  Elec       q    Type
REMARK                         _______ _______ _______ _____ _____    ______ ____
ROOT
ATOM      1  C   UNL     1      -3.956   5.936 137.903  0.00  0.00    +0.000 C 
ATOM      2  N   UNL     1      -4.513  -6.183 137.565  0.00  0.00    +0.000 N 
ATOM      3  C   UNL     1      -4.545  -4.934 136.790  0.00  0.00    +0.000 C 
ATOM      4  O   UNL     1      -5.574  -4.188 136.829  0.00  0.00    +0.000 OA
ATOM      5  C   UNL     1      -3.348  -4.535 135.943  0.00  0.00    +0.000 C 
ATOM      6  N   UNL     1      -3.759  -4.423 134.535  0.00  0.00    +0.000 N 
ATOM      7  C   UNL     1      -4.805  -3.464 134.149  0.00  0.00    +0.000 C 
ATOM      8  O   UNL     1      -5.160  -3.369 132.932  0.00  0.00    +0.000 OA
ATOM      9  C   UNL     1      -5.459  -2.588 135.204  0.00  0.00    +0.000 C 
ATOM     10  C   UNL     1      -5.221  -1.125 134.867  0.00  0.00    +0.000 C 
ATOM     11  S   UNL     1      -5.937  -0.756 133.245  0.00  0.00    +0.000 S 
ATOM     12 SE   UNL     1      -5.585   1.409 132.746  0.00  0.00    +0.000 Se
ATOM     13  C   UNL     1      -6.360   1.809 130.991  0.00  0.00    +0.000 C 
ATOM     14  C   UNL     1      -6.122   3.272 130.654  0.00  0.00    +0.000 C 
ATOM     15  N   UNL     1      -6.756   4.119 131.673  0.00  0.00    +0.000 N 
ATOM     16  C   UNL     1      -6.345   4.008 133.080  0.00  0.00    +0.000 C 
ATOM     17  O   UNL     1      -6.892   4.742 133.962  0.00  0.00    +0.000 OA
ATOM     18  C   UNL     1      -5.264   3.017 133.480  0.00  0.00    +0.000 C 
ATOM     19  N   UNL     1      -4.139   3.739 134.092  0.00  0.00    +0.000 N 
ATOM     20  C   UNL     1      -4.351   4.540 135.305  0.00  0.00    +0.000 C 
ATOM     21  O   UNL     1      -3.378   5.164 135.833  0.00  0.00    +0.000 OA
ATOM     22  C   UNL     1      -5.735   4.623 135.928  0.00  0.00    +0.000 C 
ATOM     23  N   UNL     1      -5.685   4.105 137.303  0.00  0.00    +0.000 N 
ATOM     24  C   UNL     1      -4.810   4.742 138.297  0.00  0.00    +0.000 C 
ATOM     25  O   UNL     1      -4.767   4.294 139.485  0.00  0.00    +0.000 OA
ATOM     26  H   UNL     1      -4.525  -7.134 137.822  0.00  0.00    +0.000 HD
ATOM     27  H   UNL     1      -3.335  -4.992 133.853  0.00  0.00    +0.000 HD
ATOM     28  H   UNL     1      -7.455   4.762 131.415  0.00  0.00    +0.000 HD
ATOM     29  H   UNL     1      -3.241   3.684 133.688  0.00  0.00    +0.000 HD
ATOM     30  H   UNL     1      -6.238   3.331 137.558  0.00  0.00    +0.000 HD
ENDROOT
BRANCH  14  31
ATOM     31  C   UNL     1      -6.723   3.582 129.292  0.00  0.00    +0.000 C 
ATOM     32  O   UNL     1      -7.922   3.996 129.206  0.00  0.00    +0.000 OA
ATOM     33  N   UNL     1      -5.918   3.404 128.075  0.00  0.00    +0.000 N 
ATOM     34  C   UNL     1      -5.058   2.251 127.753  0.00  0.00    +0.000 C 
ATOM     35  C   UNL     1      -3.885   2.913 127.086  0.00  0.00    +0.000 C 
ATOM     36  C   UNL     1      -4.560   3.959 126.149  0.00  0.00    +0.000 C 
ATOM     37  C   UNL     1      -5.797   4.394 126.939  0.00  0.00    +0.000 C 
BRANCH  37  38
ATOM     38  C   UNL     1      -7.035   4.345 126.057  0.00  0.00    +0.000 C 
ATOM     39  O   UNL     1      -8.007   5.132 126.283  0.00  0.00    +0.000 OA
ATOM     40  N   UNL     1      -7.107   3.388 124.944  0.00  0.00    +0.000 N 
ATOM     41  H   UNL     1      -6.353   2.778 124.769  0.00  0.00    +0.000 HD
BRANCH  40  42
ATOM     42  C   UNL     1      -8.303   3.340 124.092  0.00  0.00    +0.000 C 
BRANCH  42  43
ATOM     43  N   UNL     1      -9.390   2.660 124.811  0.00  0.00    +0.000 NA
ATOM     44  H   UNL     1     -10.289   3.012 124.480  0.00  0.00    +0.000 HD
BRANCH  43  45
ATOM     45  C   UNL     1      -9.309   1.213 124.565  0.00  0.00    +0.000 C 
BRANCH  45  46
ATOM     46  C   UNL     1      -8.923   0.501 125.852  0.00  0.00    +0.000 C 
ATOM     47  N   UNL     1      -8.981  -0.965 125.927  0.00  0.00    +0.000 N 
ATOM     48  O   UNL     1      -8.551   1.175 126.863  0.00  0.00    +0.000 OA
ATOM     49  H   UNL     1      -9.269  -1.488 125.144  0.00  0.00    +0.000 HD
ATOM     50  H   UNL     1      -8.730  -1.426 126.760  0.00  0.00    +0.000 HD
ENDBRANCH  45  46
ENDBRANCH  43  45
ENDBRANCH  42  43
BRANCH  42  51
ATOM     51  C   UNL     1      -7.986   2.578 122.815  0.00  0.00    +0.000 C 
BRANCH  51  52
ATOM     52  C   UNL     1      -7.399   3.533 121.788  0.00  0.00    +0.000 C 
ATOM     53  C   UNL     1      -6.105   2.954 121.239  0.00  0.00    +0.000 C 
ATOM     54  C   UNL     1      -8.391   3.726 120.652  0.00  0.00    +0.000 C 
ENDBRANCH  51  52
ENDBRANCH  42  51
ENDBRANCH  40  42
ENDBRANCH  37  38
ENDBRANCH  14  31
BRANCH   9  55
ATOM     55  N   UNL     1      -4.878  -2.888 136.520  0.00  0.00    +0.000 NA
ATOM     56  H   UNL     1      -5.527  -3.466 137.055  0.00  0.00    +0.000 HD
ATOM     57  H   UNL     1      -4.704  -2.018 137.023  0.00  0.00    +0.000 HD
ENDBRANCH   9  55
BRANCH   1  58
ATOM     58  C   UNL     1      -4.192   6.267 136.439  0.00  0.00    +0.000 C 
ATOM     59  C   UNL     1      -4.573   7.732 136.307  0.00  0.00    +0.000 C 
BRANCH  58  61
ATOM     60  C   UNL     1      -1.780   6.871 135.145  0.00  0.00    +0.000 C 
ATOM     61  C   UNL     1      -2.922   6.001 135.649  0.00  0.00    +0.000 C 
ENDBRANCH  58  61
ENDBRANCH   1  58
BRANCH  18  62
ATOM     62  C   UNL     1      -5.832   2.024 134.481  0.00  0.00    +0.000 C 
BRANCH  62  63
ATOM     63  C   UNL     1      -4.561   1.564 135.177  0.00  0.00    +0.000 C 
ATOM     64  N   UNL     1      -4.572   1.289 136.621  0.00  0.00    +0.000 N 
ATOM     65  O   UNL     1      -3.489   1.417 134.510  0.00  0.00    +0.000 OA
ATOM     66  H   UNL     1      -5.402   1.402 137.137  0.00  0.00    +0.000 HD
ATOM     67  H   UNL     1      -3.749   0.990 137.070  0.00  0.00    +0.000 HD
ENDBRANCH  62  63
ENDBRANCH  18  62
BRANCH   5  68
ATOM     68  C   UNL     1      -2.812  -3.196 136.422  0.00  0.00    +0.000 C 
BRANCH  68  69
ATOM     69  C   UNL     1      -1.539  -2.930 135.637  0.00  0.00    +0.000 A 
ATOM     70  C   UNL     1      -0.502  -3.836 135.682  0.00  0.00    +0.000 A 
ATOM     71  C   UNL     1       0.676  -3.621 134.959  0.00  0.00    +0.000 A 
ATOM     72  C   UNL     1       0.755  -2.455 134.171  0.00  0.00    +0.000 A 
ATOM     73  C   UNL     1      -0.274  -1.544 134.156  0.00  0.00    +0.000 A 
ATOM     74  C   UNL     1      -1.424  -1.787 134.882  0.00  0.00    +0.000 A 
BRANCH  72  75
ATOM     75  O   UNL     1       1.844  -2.177 133.420  0.00  0.00    +0.000 OA
ATOM     76  H   UNL     1       1.870  -2.433 132.518  0.00  0.00    +0.000 HD
ENDBRANCH  72  75
ENDBRANCH  68  69
ENDBRANCH   5  68
BRANCH  22  77
ATOM     77  C   UNL     1      -6.195   6.071 135.949  0.00  0.00    +0.000 C 
BRANCH  77  78
ATOM     78  C   UNL     1      -7.707   6.122 136.096  0.00  0.00    +0.000 C 
BRANCH  78  79
ATOM     79  C   UNL     1      -8.066   6.856 137.377  0.00  0.00    +0.000 C 
ATOM     80  N   UNL     1      -9.184   7.811 137.390  0.00  0.00    +0.000 N 
ATOM     81  O   UNL     1      -7.401   6.643 138.439  0.00  0.00    +0.000 OA
ATOM     82  H   UNL     1      -9.699   7.976 136.566  0.00  0.00    +0.000 HD
ATOM     83  H   UNL     1      -9.416   8.286 138.219  0.00  0.00    +0.000 HD
ENDBRANCH  78  79
ENDBRANCH  77  78
ENDBRANCH  22  77
TORSDOF 19
ENDMDL
MODEL 4
REMARK VINA RESULT:      -7.4      2.860      8.482
REMARK  Name = CHEMBL1630523
REMARK  23 active torsions:
REMARK  status: ('A' for Active; 'I' for Inactive)
REMARK    1  A    between atoms: C_1  and  C_2
REMARK    2  A    between atoms: C_2  and  C_3
REMARK    3  A    between atoms: C_3  and  C_4
REMARK    4  A    between atoms: C_3  and  C_5
REMARK    5  A    between atoms: C_9  and  C_10
REMARK    6  A    between atoms: C_10  and  C_11
REMARK    7  A    between atoms: C_14  and  O_15
REMARK    8  A    between atoms: C_21  and  N_22
REMARK    9  A    between atoms: C_27  and  C_28
REMARK   10  A    between atoms: C_34  and  C_35
REMARK   11  A    between atoms: N_37  and  C_38
REMARK   12  A    between atoms: C_38  and  C_39
REMARK   13  A    between atoms: C_38  and  N_43
REMARK   14  A    between atoms: C_39  and  C_40
REMARK   15  A    between atoms: C_40  and  C_41
REMARK   16  A    between atoms: C_40  and  C_42
REMARK   17  A    between atoms: N_43  and  C_44
REMARK   18  A    between atoms: C_44  and  C_45
REMARK   19  A    between atoms: C_51  and  C_52
REMARK   20  A    between atoms: C_52  and  C_53
REMARK   21  A    between atoms: C_59  and  C_60
REMARK   22  A    between atoms: C_60  and  C_61
REMARK   23  A    between atoms: C_61  and  C_62
REMARK                            x       y       z     vdW  Elec       q    Type
REMARK                         _______ _______ _______ _____ _____    ______ ____
ROOT
ATOM      1  C   UNL     1      -4.326  -2.174 138.289  0.00  0.00    +0.000 C 
ATOM      2  N   UNL     1      -1.301   9.484 136.800  0.00  0.00    +0.000 N 
ATOM      3  C   UNL     1      -1.930   8.297 136.203  0.00  0.00    +0.000 C 
ATOM      4  O   UNL     1      -1.209   7.331 135.799  0.00  0.00    +0.000 OA
ATOM      5  C   UNL     1      -3.442   8.224 136.069  0.00  0.00    +0.000 C 
ATOM      6  N   UNL     1      -3.802   8.081 134.651  0.00  0.00    +0.000 N 
ATOM      7  C   UNL     1      -3.322   6.923 133.884  0.00  0.00    +0.000 C 
ATOM      8  O   UNL     1      -3.633   6.800 132.658  0.00  0.00    +0.000 OA
ATOM      9  C   UNL     1      -2.453   5.873 134.557  0.00  0.00    +0.000 C 
ATOM     10  C   UNL     1      -3.146   4.522 134.489  0.00  0.00    +0.000 C 
ATOM     11  S   UNL     1      -3.410   4.067 132.757  0.00  0.00    +0.000 S 
ATOM     12 SE   UNL     1      -4.436   2.067 132.656  0.00  0.00    +0.000 Se
ATOM     13  C   UNL     1      -4.722   1.574 130.781  0.00  0.00    +0.000 C 
ATOM     14  C   UNL     1      -5.416   0.223 130.712  0.00  0.00    +0.000 C 
ATOM     15  N   UNL     1      -4.575  -0.792 131.362  0.00  0.00    +0.000 N 
ATOM     16  C   UNL     1      -4.215  -0.649 132.781  0.00  0.00    +0.000 C 
ATOM     17  O   UNL     1      -3.489  -1.528 133.344  0.00  0.00    +0.000 OA
ATOM     18  C   UNL     1      -4.712   0.548 133.574  0.00  0.00    +0.000 C 
ATOM     19  N   UNL     1      -5.528   0.083 134.705  0.00  0.00    +0.000 N 
ATOM     20  C   UNL     1      -4.939  -0.798 135.723  0.00  0.00    +0.000 C 
ATOM     21  O   UNL     1      -5.646  -1.201 136.700  0.00  0.00    +0.000 OA
ATOM     22  C   UNL     1      -3.486  -1.229 135.608  0.00  0.00    +0.000 C 
ATOM     23  N   UNL     1      -2.745  -0.773 136.793  0.00  0.00    +0.000 N 
ATOM     24  C   UNL     1      -3.145  -1.230 138.131  0.00  0.00    +0.000 C 
ATOM     25  O   UNL     1      -2.505  -0.837 139.155  0.00  0.00    +0.000 OA
ATOM     26  H   UNL     1      -0.952  10.394 136.946  0.00  0.00    +0.000 HD
ATOM     27  H   UNL     1      -4.365   8.762 134.215  0.00  0.00    +0.000 HD
ATOM     28  H   UNL     1      -4.254  -1.569 130.849  0.00  0.00    +0.000 HD
ATOM     29  H   UNL     1      -6.470   0.362 134.779  0.00  0.00    +0.000 HD
ATOM     30  H   UNL     1      -1.981  -0.161 136.690  0.00  0.00    +0.000 HD
ENDROOT
BRANCH  14  31
ATOM     31  C   UNL     1      -5.638  -0.160 129.258  0.00  0.00    +0.000 C 
ATOM     32  O   UNL     1      -4.961   0.405 128.342  0.00  0.00    +0.000 OA
ATOM     33  N   UNL     1      -6.635  -1.183 128.910  0.00  0.00    +0.000 N 
ATOM     34  C   UNL     1      -8.003  -1.293 129.448  0.00  0.00    +0.000 C 
ATOM     35  C   UNL     1      -8.165  -2.782 129.584  0.00  0.00    +0.000 C 
ATOM     36  C   UNL     1      -7.559  -3.322 128.254  0.00  0.00    +0.000 C 
ATOM     37  C   UNL     1      -6.425  -2.338 127.958  0.00  0.00    +0.000 C 
BRANCH  37  38
ATOM     38  C   UNL     1      -6.501  -1.858 126.517  0.00  0.00    +0.000 C 
ATOM     39  O   UNL     1      -5.686  -2.312 125.652  0.00  0.00    +0.000 OA
ATOM     40  N   UNL     1      -7.516  -0.871 126.124  0.00  0.00    +0.000 N 
ATOM     41  H   UNL     1      -8.148  -0.521 126.793  0.00  0.00    +0.000 HD
BRANCH  40  42
ATOM     42  C   UNL     1      -7.590  -0.408 124.731  0.00  0.00    +0.000 C 
BRANCH  42  43
ATOM     43  N   UNL     1      -7.358   1.044 124.685  0.00  0.00    +0.000 NA
ATOM     44  H   UNL     1      -6.441   1.254 125.078  0.00  0.00    +0.000 HD
BRANCH  43  45
ATOM     45  C   UNL     1      -7.411   1.503 123.289  0.00  0.00    +0.000 C 
BRANCH  45  46
ATOM     46  C   UNL     1      -8.192   2.806 123.215  0.00  0.00    +0.000 C 
ATOM     47  N   UNL     1      -8.176   3.603 121.980  0.00  0.00    +0.000 N 
ATOM     48  O   UNL     1      -8.856   3.207 124.221  0.00  0.00    +0.000 OA
ATOM     49  H   UNL     1      -7.661   3.293 121.200  0.00  0.00    +0.000 HD
ATOM     50  H   UNL     1      -8.681   4.447 121.931  0.00  0.00    +0.000 HD
ENDBRANCH  45  46
ENDBRANCH  43  45
ENDBRANCH  42  43
BRANCH  42  51
ATOM     51  C   UNL     1      -8.966  -0.719 124.165  0.00  0.00    +0.000 C 
BRANCH  51  52
ATOM     52  C   UNL     1      -8.860  -1.875 123.184  0.00  0.00    +0.000 C 
ATOM     53  C   UNL     1      -7.433  -1.972 122.668  0.00  0.00    +0.000 C 
ATOM     54  C   UNL     1      -9.234  -3.170 123.886  0.00  0.00    +0.000 C 
ENDBRANCH  51  52
ENDBRANCH  42  51
ENDBRANCH  40  42
ENDBRANCH  37  38
ENDBRANCH  14  31
BRANCH   9  55
ATOM     55  N   UNL     1      -2.238   6.243 135.964  0.00  0.00    +0.000 NA
ATOM     56  H   UNL     1      -2.421   7.240 136.084  0.00  0.00    +0.000 HD
ATOM     57  H   UNL     1      -1.273   6.041 136.226  0.00  0.00    +0.000 HD
ENDBRANCH   9  55
BRANCH   1  58
ATOM     58  C   UNL     1      -4.911  -2.488 136.922  0.00  0.00    +0.000 C 
ATOM     59  C   UNL     1      -4.976  -3.994 136.733  0.00  0.00    +0.000 C 
BRANCH  58  61
ATOM     60  C   UNL     1      -7.636  -2.199 137.511  0.00  0.00    +0.000 C 
ATOM     61  C   UNL     1      -6.311  -1.904 136.825  0.00  0.00    +0.000 C 
ENDBRANCH  58  61
ENDBRANCH   1  58
BRANCH  18  62
ATOM     62  C   UNL     1      -3.523   1.337 134.099  0.00  0.00    +0.000 C 
BRANCH  62  63
ATOM     63  C   UNL     1      -4.150   2.028 135.299  0.00  0.00    +0.000 C 
ATOM     64  N   UNL     1      -3.353   2.261 136.512  0.00  0.00    +0.000 N 
ATOM     65  O   UNL     1      -5.363   2.405 135.254  0.00  0.00    +0.000 OA
ATOM     66  H   UNL     1      -2.413   1.969 136.547  0.00  0.00    +0.000 HD
ATOM     67  H   UNL     1      -3.758   2.709 137.289  0.00  0.00    +0.000 HD
ENDBRANCH  62  63
ENDBRANCH  18  62
BRANCH   5  68
ATOM     68  C   UNL     1      -3.963   7.028 136.848  0.00  0.00    +0.000 C 
BRANCH  68  69
ATOM     69  C   UNL     1      -5.461   7.227 137.003  0.00  0.00    +0.000 A 
ATOM     70  C   UNL     1      -5.945   8.387 137.568  0.00  0.00    +0.000 A 
ATOM     71  C   UNL     1      -7.320   8.600 137.711  0.00  0.00    +0.000 A 
ATOM     72  C   UNL     1      -8.190   7.595 137.240  0.00  0.00    +0.000 A 
ATOM     73  C   UNL     1      -7.695   6.430 136.704  0.00  0.00    +0.000 A 
ATOM     74  C   UNL     1      -6.331   6.252 136.578  0.00  0.00    +0.000 A 
BRANCH  72  75
ATOM     75  O   UNL     1      -9.533   7.726 137.315  0.00  0.00    +0.000 OA
ATOM     76  H   UNL     1     -10.085   7.238 136.734  0.00  0.00    +0.000 HD
ENDBRANCH  72  75
ENDBRANCH  68  69
ENDBRANCH   5  68
BRANCH  22  77
ATOM     77  C   UNL     1      -3.413  -2.743 135.515  0.00  0.00    +0.000 C 
BRANCH  77  78
ATOM     78  C   UNL     1      -1.967  -3.170 135.320  0.00  0.00    +0.000 C 
BRANCH  78  79
ATOM     79  C   UNL     1      -1.927  -4.535 134.654  0.00  0.00    +0.000 C 
ATOM     80  N   UNL     1      -2.343  -4.682 133.252  0.00  0.00    +0.000 N 
ATOM     81  O   UNL     1      -1.533  -5.550 135.309  0.00  0.00    +0.000 OA
ATOM     82  H   UNL     1      -2.649  -3.895 132.744  0.00  0.00    +0.000 HD
ATOM     83  H   UNL     1      -2.317  -5.566 132.820  0.00  0.00    +0.000 HD
ENDBRANCH  78  79
ENDBRANCH  77  78
ENDBRANCH  22  77
TORSDOF 19
ENDMDL
MODEL 5
REMARK VINA RESULT:      -7.2      3.650      7.736
REMARK  Name = CHEMBL1630523
REMARK  23 active torsions:
REMARK  status: ('A' for Active; 'I' for Inactive)
REMARK    1  A    between atoms: C_1  and  C_2
REMARK    2  A    between atoms: C_2  and  C_3
REMARK    3  A    between atoms: C_3  and  C_4
REMARK    4  A    between atoms: C_3  and  C_5
REMARK    5  A    between atoms: C_9  and  C_10
REMARK    6  A    between atoms: C_10  and  C_11
REMARK    7  A    between atoms: C_14  and  O_15
REMARK    8  A    between atoms: C_21  and  N_22
REMARK    9  A    between atoms: C_27  and  C_28
REMARK   10  A    between atoms: C_34  and  C_35
REMARK   11  A    between atoms: N_37  and  C_38
REMARK   12  A    between atoms: C_38  and  C_39
REMARK   13  A    between atoms: C_38  and  N_43
REMARK   14  A    between atoms: C_39  and  C_40
REMARK   15  A    between atoms: C_40  and  C_41
REMARK   16  A    between atoms: C_40  and  C_42
REMARK   17  A    between atoms: N_43  and  C_44
REMARK   18  A    between atoms: C_44  and  C_45
REMARK   19  A    between atoms: C_51  and  C_52
REMARK   20  A    between atoms: C_52  and  C_53
REMARK   21  A    between atoms: C_59  and  C_60
REMARK   22  A    between atoms: C_60  and  C_61
REMARK   23  A    between atoms: C_61  and  C_62
REMARK                            x       y       z     vdW  Elec       q    Type
REMARK                         _______ _______ _______ _____ _____    ______ ____
ROOT
ATOM      1  C   UNL     1      -4.937  -3.963 134.449  0.00  0.00    +0.000 C 
ATOM      2  N   UNL     1      -2.459   6.996 139.038  0.00  0.00    +0.000 N 
ATOM      3  C   UNL     1      -3.124   6.239 137.967  0.00  0.00    +0.000 C 
ATOM      4  O   UNL     1      -2.432   5.692 137.051  0.00  0.00    +0.000 OA
ATOM      5  C   UNL     1      -4.639   6.110 137.954  0.00  0.00    +0.000 C 
ATOM      6  N   UNL     1      -5.170   6.691 136.712  0.00  0.00    +0.000 N 
ATOM      7  C   UNL     1      -4.756   6.147 135.410  0.00  0.00    +0.000 C 
ATOM      8  O   UNL     1      -5.215   6.650 134.338  0.00  0.00    +0.000 OA
ATOM      9  C   UNL     1      -3.779   4.984 135.349  0.00  0.00    +0.000 C 
ATOM     10  C   UNL     1      -4.437   3.808 134.645  0.00  0.00    +0.000 C 
ATOM     11  S   UNL     1      -4.903   4.295 132.965  0.00  0.00    +0.000 S 
ATOM     12 SE   UNL     1      -5.875   2.554 131.923  0.00  0.00    +0.000 Se
ATOM     13  C   UNL     1      -6.380   3.081 130.104  0.00  0.00    +0.000 C 
ATOM     14  C   UNL     1      -7.037   1.905 129.400  0.00  0.00    +0.000 C 
ATOM     15  N   UNL     1      -6.093   0.781 129.339  0.00  0.00    +0.000 N 
ATOM     16  C   UNL     1      -5.562   0.199 130.581  0.00  0.00    +0.000 C 
ATOM     17  O   UNL     1      -4.746  -0.774 130.529  0.00  0.00    +0.000 OA
ATOM     18  C   UNL     1      -5.990   0.761 131.926  0.00  0.00    +0.000 C 
ATOM     19  N   UNL     1      -6.644  -0.294 132.713  0.00  0.00    +0.000 N 
ATOM     20  C   UNL     1      -5.907  -1.518 133.058  0.00  0.00    +0.000 C 
ATOM     21  O   UNL     1      -6.473  -2.431 133.737  0.00  0.00    +0.000 OA
ATOM     22  C   UNL     1      -4.468  -1.693 132.601  0.00  0.00    +0.000 C 
ATOM     23  N   UNL     1      -3.597  -1.853 133.775  0.00  0.00    +0.000 N 
ATOM     24  C   UNL     1      -3.813  -2.972 134.703  0.00  0.00    +0.000 C 
ATOM     25  O   UNL     1      -3.061  -3.111 135.717  0.00  0.00    +0.000 OA
ATOM     26  H   UNL     1      -2.122   7.725 139.607  0.00  0.00    +0.000 HD
ATOM     27  H   UNL     1      -5.801   7.445 136.753  0.00  0.00    +0.000 HD
ATOM     28  H   UNL     1      -5.816   0.416 128.467  0.00  0.00    +0.000 HD
ATOM     29  H   UNL     1      -7.577  -0.181 133.010  0.00  0.00    +0.000 HD
ATOM     30  H   UNL     1      -2.870  -1.210 133.939  0.00  0.00    +0.000 HD
ENDROOT
BRANCH  14  31
ATOM     31  C   UNL     1      -7.429   2.314 127.989  0.00  0.00    +0.000 C 
ATOM     32  O   UNL     1      -8.656   2.393 127.668  0.00  0.00    +0.000 OA
ATOM     33  N   UNL     1      -6.389   2.617 126.995  0.00  0.00    +0.000 N 
ATOM     34  C   UNL     1      -5.166   1.835 126.738  0.00  0.00    +0.000 C 
ATOM     35  C   UNL     1      -4.153   2.916 126.481  0.00  0.00    +0.000 C 
ATOM     36  C   UNL     1      -4.926   3.908 125.561  0.00  0.00    +0.000 C 
ATOM     37  C   UNL     1      -6.365   3.816 126.074  0.00  0.00    +0.000 C 
BRANCH  37  38
ATOM     38  C   UNL     1      -7.329   3.614 124.916  0.00  0.00    +0.000 C 
ATOM     39  O   UNL     1      -8.391   4.310 124.844  0.00  0.00    +0.000 OA
ATOM     40  N   UNL     1      -7.034   2.615 123.879  0.00  0.00    +0.000 N 
ATOM     41  H   UNL     1      -6.212   2.076 123.935  0.00  0.00    +0.000 HD
BRANCH  40  42
ATOM     42  C   UNL     1      -7.966   2.420 122.760  0.00  0.00    +0.000 C 
BRANCH  42  43
ATOM     43  N   UNL     1      -8.175   3.700 122.067  0.00  0.00    +0.000 NA
ATOM     44  H   UNL     1      -8.037   4.468 122.724  0.00  0.00    +0.000 HD
BRANCH  43  45
ATOM     45  C   UNL     1      -7.212   3.821 120.962  0.00  0.00    +0.000 C 
BRANCH  45  46
ATOM     46  C   UNL     1      -7.950   4.202 119.688  0.00  0.00    +0.000 C 
ATOM     47  N   UNL     1      -9.389   3.935 119.565  0.00  0.00    +0.000 N 
ATOM     48  O   UNL     1      -7.321   4.749 118.730  0.00  0.00    +0.000 OA
ATOM     49  H   UNL     1      -9.877   3.511 120.308  0.00  0.00    +0.000 HD
ATOM     50  H   UNL     1      -9.868   4.181 118.740  0.00  0.00    +0.000 HD
ENDBRANCH  45  46
ENDBRANCH  43  45
ENDBRANCH  42  43
BRANCH  42  51
ATOM     51  C   UNL     1      -9.296   1.908 123.290  0.00  0.00    +0.000 C 
BRANCH  51  52
ATOM     52  C   UNL     1      -9.095   0.542 123.926  0.00  0.00    +0.000 C 
ATOM     53  C   UNL     1      -9.875   0.471 125.229  0.00  0.00    +0.000 C 
ATOM     54  C   UNL     1      -9.593  -0.536 122.978  0.00  0.00    +0.000 C 
ENDBRANCH  51  52
ENDBRANCH  42  51
ENDBRANCH  40  42
ENDBRANCH  37  38
ENDBRANCH  14  31
BRANCH   9  55
ATOM     55  N   UNL     1      -3.401   4.589 136.713  0.00  0.00    +0.000 NA
ATOM     56  H   UNL     1      -2.389   4.664 136.820  0.00  0.00    +0.000 HD
ATOM     57  H   UNL     1      -3.690   3.625 136.882  0.00  0.00    +0.000 HD
ENDBRANCH   9  55
BRANCH   1  58
ATOM     58  C   UNL     1      -5.680  -3.574 133.182  0.00  0.00    +0.000 C 
ATOM     59  C   UNL     1      -5.779  -4.780 132.262  0.00  0.00    +0.000 C 
BRANCH  58  61
ATOM     60  C   UNL     1      -8.274  -3.729 134.230  0.00  0.00    +0.000 C 
ATOM     61  C   UNL     1      -7.076  -3.094 133.541  0.00  0.00    +0.000 C 
ENDBRANCH  58  61
ENDBRANCH   1  58
BRANCH  18  62
ATOM     62  C   UNL     1      -4.768   1.267 132.676  0.00  0.00    +0.000 C 
BRANCH  62  63
ATOM     63  C   UNL     1      -5.252   1.160 134.113  0.00  0.00    +0.000 C 
ATOM     64  N   UNL     1      -4.311   0.789 135.180  0.00  0.00    +0.000 N 
ATOM     65  O   UNL     1      -6.470   1.391 134.392  0.00  0.00    +0.000 OA
ATOM     66  H   UNL     1      -3.368   0.610 134.964  0.00  0.00    +0.000 HD
ATOM     67  H   UNL     1      -4.625   0.720 136.110  0.00  0.00    +0.000 HD
ENDBRANCH  62  63
ENDBRANCH  18  62
BRANCH   5  68
ATOM     68  C   UNL     1      -5.023   4.642 138.032  0.00  0.00    +0.000 C 
BRANCH  68  69
ATOM     69  C   UNL     1      -5.689   4.437 139.382  0.00  0.00    +0.000 A 
ATOM     70  C   UNL     1      -6.548   5.393 139.877  0.00  0.00    +0.000 A 
ATOM     71  C   UNL     1      -7.183   5.223 141.111  0.00  0.00    +0.000 A 
ATOM     72  C   UNL     1      -6.926   4.031 141.819  0.00  0.00    +0.000 A 
ATOM     73  C   UNL     1      -6.045   3.097 141.329  0.00  0.00    +0.000 A 
ATOM     74  C   UNL     1      -5.434   3.297 140.106  0.00  0.00    +0.000 A 
BRANCH  72  75
ATOM     75  O   UNL     1      -7.514   3.770 143.008  0.00  0.00    +0.000 OA
ATOM     76  H   UNL     1      -7.176   3.090 143.559  0.00  0.00    +0.000 HD
ENDBRANCH  72  75
ENDBRANCH  68  69
ENDBRANCH   5  68
BRANCH  22  77
ATOM     77  C   UNL     1      -4.363  -2.926 131.720  0.00  0.00    +0.000 C 
BRANCH  77  78
ATOM     78  C   UNL     1      -3.088  -2.854 130.895  0.00  0.00    +0.000 C 
BRANCH  78  79
ATOM     79  C   UNL     1      -3.362  -3.374 129.494  0.00  0.00    +0.000 C 
ATOM     80  N   UNL     1      -4.673  -3.150 128.868  0.00  0.00    +0.000 N 
ATOM     81  O   UNL     1      -2.455  -4.002 128.861  0.00  0.00    +0.000 OA
ATOM     82  H   UNL     1      -5.375  -2.663 129.358  0.00  0.00    +0.000 HD
ATOM     83  H   UNL     1      -4.850  -3.487 127.961  0.00  0.00    +0.000 HD
ENDBRANCH  78  79
ENDBRANCH  77  78
ENDBRANCH  22  77
TORSDOF 19
ENDMDL
MODEL 6
REMARK VINA RESULT:      -7.2      2.687      8.303
REMARK  Name = CHEMBL1630523
REMARK  23 active torsions:
REMARK  status: ('A' for Active; 'I' for Inactive)
REMARK    1  A    between atoms: C_1  and  C_2
REMARK    2  A    between atoms: C_2  and  C_3
REMARK    3  A    between atoms: C_3  and  C_4
REMARK    4  A    between atoms: C_3  and  C_5
REMARK    5  A    between atoms: C_9  and  C_10
REMARK    6  A    between atoms: C_10  and  C_11
REMARK    7  A    between atoms: C_14  and  O_15
REMARK    8  A    between atoms: C_21  and  N_22
REMARK    9  A    between atoms: C_27  and  C_28
REMARK   10  A    between atoms: C_34  and  C_35
REMARK   11  A    between atoms: N_37  and  C_38
REMARK   12  A    between atoms: C_38  and  C_39
REMARK   13  A    between atoms: C_38  and  N_43
REMARK   14  A    between atoms: C_39  and  C_40
REMARK   15  A    between atoms: C_40  and  C_41
REMARK   16  A    between atoms: C_40  and  C_42
REMARK   17  A    between atoms: N_43  and  C_44
REMARK   18  A    between atoms: C_44  and  C_45
REMARK   19  A    between atoms: C_51  and  C_52
REMARK   20  A    between atoms: C_52  and  C_53
REMARK   21  A    between atoms: C_59  and  C_60
REMARK   22  A    between atoms: C_60  and  C_61
REMARK   23  A    between atoms: C_61  and  C_62
REMARK                            x       y       z     vdW  Elec       q    Type
REMARK                         _______ _______ _______ _____ _____    ______ ____
ROOT
ATOM      1  C   UNL     1      -4.169  -2.306 137.879  0.00  0.00    +0.000 C 
ATOM      2  N   UNL     1      -0.832   9.261 136.334  0.00  0.00    +0.000 N 
ATOM      3  C   UNL     1      -1.619   8.134 135.813  0.00  0.00    +0.000 C 
ATOM      4  O   UNL     1      -1.034   7.156 135.249  0.00  0.00    +0.000 OA
ATOM      5  C   UNL     1      -3.134   8.137 135.948  0.00  0.00    +0.000 C 
ATOM      6  N   UNL     1      -3.745   8.079 134.612  0.00  0.00    +0.000 N 
ATOM      7  C   UNL     1      -3.470   6.938 133.726  0.00  0.00    +0.000 C 
ATOM      8  O   UNL     1      -3.999   6.889 132.572  0.00  0.00    +0.000 OA
ATOM      9  C   UNL     1      -2.554   5.819 134.192  0.00  0.00    +0.000 C 
ATOM     10  C   UNL     1      -3.320   4.506 134.196  0.00  0.00    +0.000 C 
ATOM     11  S   UNL     1      -3.909   4.147 132.522  0.00  0.00    +0.000 S 
ATOM     12 SE   UNL     1      -5.042   2.204 132.527  0.00  0.00    +0.000 Se
ATOM     13  C   UNL     1      -5.681   1.815 130.715  0.00  0.00    +0.000 C 
ATOM     14  C   UNL     1      -6.446   0.502 130.718  0.00  0.00    +0.000 C 
ATOM     15  N   UNL     1      -5.560  -0.581 131.167  0.00  0.00    +0.000 N 
ATOM     16  C   UNL     1      -4.949  -0.523 132.503  0.00  0.00    +0.000 C 
ATOM     17  O   UNL     1      -4.183  -1.460 132.892  0.00  0.00    +0.000 OA
ATOM     18  C   UNL     1      -5.233   0.656 133.419  0.00  0.00    +0.000 C 
ATOM     19  N   UNL     1      -5.861   0.175 134.658  0.00  0.00    +0.000 N 
ATOM     20  C   UNL     1      -5.150  -0.781 135.519  0.00  0.00    +0.000 C 
ATOM     21  O   UNL     1      -5.693  -1.197 136.590  0.00  0.00    +0.000 OA
ATOM     22  C   UNL     1      -3.765  -1.271 135.129  0.00  0.00    +0.000 C 
ATOM     23  N   UNL     1      -2.803  -0.907 136.181  0.00  0.00    +0.000 N 
ATOM     24  C   UNL     1      -2.985  -1.410 137.549  0.00  0.00    +0.000 C 
ATOM     25  O   UNL     1      -2.154  -1.096 138.458  0.00  0.00    +0.000 OA
ATOM     26  H   UNL     1      -0.415  10.145 136.451  0.00  0.00    +0.000 HD
ATOM     27  H   UNL     1      -4.338   8.805 134.311  0.00  0.00    +0.000 HD
ATOM     28  H   UNL     1      -5.376  -1.345 130.574  0.00  0.00    +0.000 HD
ATOM     29  H   UNL     1      -6.759   0.493 134.910  0.00  0.00    +0.000 HD
ATOM     30  H   UNL     1      -2.037  -0.327 135.967  0.00  0.00    +0.000 HD
ENDROOT
BRANCH  14  31
ATOM     31  C   UNL     1      -6.942   0.201 129.312  0.00  0.00    +0.000 C 
ATOM     32  O   UNL     1      -6.905   1.104 128.419  0.00  0.00    +0.000 OA
ATOM     33  N   UNL     1      -7.463  -1.134 128.987  0.00  0.00    +0.000 N 
ATOM     34  C   UNL     1      -8.400  -1.932 129.798  0.00  0.00    +0.000 C 
ATOM     35  C   UNL     1      -7.863  -3.324 129.617  0.00  0.00    +0.000 C 
ATOM     36  C   UNL     1      -7.550  -3.383 128.092  0.00  0.00    +0.000 C 
ATOM     37  C   UNL     1      -7.103  -1.955 127.769  0.00  0.00    +0.000 C 
BRANCH  37  38
ATOM     38  C   UNL     1      -7.836  -1.433 126.543  0.00  0.00    +0.000 C 
ATOM     39  O   UNL     1      -9.019  -1.827 126.294  0.00  0.00    +0.000 OA
ATOM     40  N   UNL     1      -7.177  -0.474 125.646  0.00  0.00    +0.000 N 
ATOM     41  H   UNL     1      -6.261  -0.168 125.839  0.00  0.00    +0.000 HD
BRANCH  40  42
ATOM     42  C   UNL     1      -7.885   0.031 124.461  0.00  0.00    +0.000 C 
BRANCH  42  43
ATOM     43  N   UNL     1      -7.161  -0.375 123.247  0.00  0.00    +0.000 NA
ATOM     44  H   UNL     1      -6.159  -0.383 123.436  0.00  0.00    +0.000 HD
BRANCH  43  45
ATOM     45  C   UNL     1      -7.594  -1.722 122.846  0.00  0.00    +0.000 C 
BRANCH  45  46
ATOM     46  C   UNL     1      -9.109  -1.814 122.938  0.00  0.00    +0.000 C 
ATOM     47  N   UNL     1      -9.737  -2.980 123.576  0.00  0.00    +0.000 N 
ATOM     48  O   UNL     1      -9.832  -0.884 122.463  0.00  0.00    +0.000 OA
ATOM     49  H   UNL     1      -9.177  -3.701 123.944  0.00  0.00    +0.000 HD
ATOM     50  H   UNL     1     -10.718  -3.040 123.636  0.00  0.00    +0.000 HD
ENDBRANCH  45  46
ENDBRANCH  43  45
ENDBRANCH  42  43
BRANCH  42  51
ATOM     51  C   UNL     1      -7.961   1.548 124.522  0.00  0.00    +0.000 C 
BRANCH  51  52
ATOM     52  C   UNL     1      -7.452   2.133 123.215  0.00  0.00    +0.000 C 
ATOM     53  C   UNL     1      -8.594   2.832 122.495  0.00  0.00    +0.000 C 
ATOM     54  C   UNL     1      -6.347   3.136 123.506  0.00  0.00    +0.000 C 
ENDBRANCH  51  52
ENDBRANCH  42  51
ENDBRANCH  40  42
ENDBRANCH  37  38
ENDBRANCH  14  31
BRANCH   9  55
ATOM     55  N   UNL     1      -2.075   6.110 135.551  0.00  0.00    +0.000 NA
ATOM     56  H   UNL     1      -2.711   6.769 136.001  0.00  0.00    +0.000 HD
ATOM     57  H   UNL     1      -1.141   6.518 135.503  0.00  0.00    +0.000 HD
ENDBRANCH   9  55
BRANCH   1  58
ATOM     58  C   UNL     1      -5.002  -2.526 136.626  0.00  0.00    +0.000 C 
ATOM     59  C   UNL     1      -5.203  -4.016 136.408  0.00  0.00    +0.000 C 
BRANCH  58  61
ATOM     60  C   UNL     1      -7.473  -1.951 137.817  0.00  0.00    +0.000 C 
ATOM     61  C   UNL     1      -6.353  -1.851 136.793  0.00  0.00    +0.000 C 
ENDBRANCH  58  61
ENDBRANCH   1  58
BRANCH  18  62
ATOM     62  C   UNL     1      -3.930   1.364 133.754  0.00  0.00    +0.000 C 
BRANCH  62  63
ATOM     63  C   UNL     1      -4.304   2.043 135.061  0.00  0.00    +0.000 C 
ATOM     64  N   UNL     1      -3.319   2.138 136.148  0.00  0.00    +0.000 N 
ATOM     65  O   UNL     1      -5.468   2.528 135.215  0.00  0.00    +0.000 OA
ATOM     66  H   UNL     1      -2.417   1.762 136.029  0.00  0.00    +0.000 HD
ATOM     67  H   UNL     1      -3.561   2.578 136.994  0.00  0.00    +0.000 HD
ENDBRANCH  62  63
ENDBRANCH  18  62
BRANCH   5  68
ATOM     68  C   UNL     1      -3.572   6.929 136.759  0.00  0.00    +0.000 C 
BRANCH  68  69
ATOM     69  C   UNL     1      -5.078   7.041 136.927  0.00  0.00    +0.000 A 
ATOM     70  C   UNL     1      -5.897   6.033 136.466  0.00  0.00    +0.000 A 
ATOM     71  C   UNL     1      -7.286   6.106 136.619  0.00  0.00    +0.000 A 
ATOM     72  C   UNL     1      -7.812   7.237 137.275  0.00  0.00    +0.000 A 
ATOM     73  C   UNL     1      -6.988   8.249 137.704  0.00  0.00    +0.000 A 
ATOM     74  C   UNL     1      -5.620   8.146 137.538  0.00  0.00    +0.000 A 
BRANCH  72  75
ATOM     75  O   UNL     1      -9.140   7.381 137.489  0.00  0.00    +0.000 OA
ATOM     76  H   UNL     1      -9.445   7.900 138.208  0.00  0.00    +0.000 HD
ENDBRANCH  72  75
ENDBRANCH  68  69
ENDBRANCH   5  68
BRANCH  22  77
ATOM     77  C   UNL     1      -3.790  -2.781 134.966  0.00  0.00    +0.000 C 
BRANCH  77  78
ATOM     78  C   UNL     1      -2.537  -3.233 134.234  0.00  0.00    +0.000 C 
BRANCH  78  79
ATOM     79  C   UNL     1      -1.764  -4.206 135.107  0.00  0.00    +0.000 C 
ATOM     80  N   UNL     1      -1.626  -5.612 134.699  0.00  0.00    +0.000 N 
ATOM     81  O   UNL     1      -1.234  -3.805 136.190  0.00  0.00    +0.000 OA
ATOM     82  H   UNL     1      -2.037  -5.923 133.859  0.00  0.00    +0.000 HD
ATOM     83  H   UNL     1      -1.126  -6.243 135.265  0.00  0.00    +0.000 HD
ENDBRANCH  78  79
ENDBRANCH  77  78
ENDBRANCH  22  77
TORSDOF 19
ENDMDL
MODEL 7
REMARK VINA RESULT:      -7.2      3.869     11.915
REMARK  Name = CHEMBL1630523
REMARK  23 active torsions:
REMARK  status: ('A' for Active; 'I' for Inactive)
REMARK    1  A    between atoms: C_1  and  C_2
REMARK    2  A    between atoms: C_2  and  C_3
REMARK    3  A    between atoms: C_3  and  C_4
REMARK    4  A    between atoms: C_3  and  C_5
REMARK    5  A    between atoms: C_9  and  C_10
REMARK    6  A    between atoms: C_10  and  C_11
REMARK    7  A    between atoms: C_14  and  O_15
REMARK    8  A    between atoms: C_21  and  N_22
REMARK    9  A    between atoms: C_27  and  C_28
REMARK   10  A    between atoms: C_34  and  C_35
REMARK   11  A    between atoms: N_37  and  C_38
REMARK   12  A    between atoms: C_38  and  C_39
REMARK   13  A    between atoms: C_38  and  N_43
REMARK   14  A    between atoms: C_39  and  C_40
REMARK   15  A    between atoms: C_40  and  C_41
REMARK   16  A    between atoms: C_40  and  C_42
REMARK   17  A    between atoms: N_43  and  C_44
REMARK   18  A    between atoms: C_44  and  C_45
REMARK   19  A    between atoms: C_51  and  C_52
REMARK   20  A    between atoms: C_52  and  C_53
REMARK   21  A    between atoms: C_59  and  C_60
REMARK   22  A    between atoms: C_60  and  C_61
REMARK   23  A    between atoms: C_61  and  C_62
REMARK                            x       y       z     vdW  Elec       q    Type
REMARK                         _______ _______ _______ _____ _____    ______ ____
ROOT
ATOM      1  C   UNL     1      -3.598  -2.752 134.411  0.00  0.00    +0.000 C 
ATOM      2  N   UNL     1      -9.908   0.944 124.726  0.00  0.00    +0.000 N 
ATOM      3  C   UNL     1      -8.981   1.325 125.801  0.00  0.00    +0.000 C 
ATOM      4  O   UNL     1      -9.404   1.437 126.995  0.00  0.00    +0.000 OA
ATOM      5  C   UNL     1      -7.517   1.586 125.486  0.00  0.00    +0.000 C 
ATOM      6  N   UNL     1      -7.174   2.967 125.856  0.00  0.00    +0.000 N 
ATOM      7  C   UNL     1      -7.322   3.413 127.249  0.00  0.00    +0.000 C 
ATOM      8  O   UNL     1      -7.026   4.607 127.568  0.00  0.00    +0.000 OA
ATOM      9  C   UNL     1      -7.830   2.446 128.306  0.00  0.00    +0.000 C 
ATOM     10  C   UNL     1      -6.778   2.285 129.392  0.00  0.00    +0.000 C 
ATOM     11  S   UNL     1      -6.446   3.893 130.153  0.00  0.00    +0.000 S 
ATOM     12 SE   UNL     1      -4.890   3.654 131.760  0.00  0.00    +0.000 Se
ATOM     13  C   UNL     1      -4.530   5.396 132.585  0.00  0.00    +0.000 C 
ATOM     14  C   UNL     1      -3.478   5.234 133.671  0.00  0.00    +0.000 C 
ATOM     15  N   UNL     1      -3.969   4.301 134.693  0.00  0.00    +0.000 N 
ATOM     16  C   UNL     1      -4.312   2.920 134.323  0.00  0.00    +0.000 C 
ATOM     17  O   UNL     1      -4.736   2.111 135.208  0.00  0.00    +0.000 OA
ATOM     18  C   UNL     1      -4.158   2.458 132.884  0.00  0.00    +0.000 C 
ATOM     19  N   UNL     1      -3.209   1.338 132.826  0.00  0.00    +0.000 N 
ATOM     20  C   UNL     1      -3.487   0.100 133.568  0.00  0.00    +0.000 C 
ATOM     21  O   UNL     1      -2.665  -0.869 133.518  0.00  0.00    +0.000 OA
ATOM     22  C   UNL     1      -4.756  -0.023 134.394  0.00  0.00    +0.000 C 
ATOM     23  N   UNL     1      -5.561  -1.146 133.892  0.00  0.00    +0.000 N 
ATOM     24  C   UNL     1      -5.005  -2.507 133.893  0.00  0.00    +0.000 C 
ATOM     25  O   UNL     1      -5.701  -3.477 133.459  0.00  0.00    +0.000 OA
ATOM     26  H   UNL     1     -10.500   0.966 123.939  0.00  0.00    +0.000 HD
ATOM     27  H   UNL     1      -6.846   3.593 125.171  0.00  0.00    +0.000 HD
ATOM     28  H   UNL     1      -4.068   4.599 135.627  0.00  0.00    +0.000 HD
ATOM     29  H   UNL     1      -2.386   1.417 132.290  0.00  0.00    +0.000 HD
ATOM     30  H   UNL     1      -6.473  -0.987 133.556  0.00  0.00    +0.000 HD
ENDROOT
BRANCH  14  31
ATOM     31  C   UNL     1      -3.199   6.585 134.311  0.00  0.00    +0.000 C 
ATOM     32  O   UNL     1      -4.035   7.087 135.126  0.00  0.00    +0.000 OA
ATOM     33  N   UNL     1      -1.963   7.312 133.986  0.00  0.00    +0.000 N 
ATOM     34  C   UNL     1      -1.386   7.505 132.644  0.00  0.00    +0.000 C 
ATOM     35  C   UNL     1       0.087   7.374 132.915  0.00  0.00    +0.000 C 
ATOM     36  C   UNL     1       0.276   8.202 134.222  0.00  0.00    +0.000 C 
ATOM     37  C   UNL     1      -1.032   7.966 134.981  0.00  0.00    +0.000 C 
BRANCH  37  38
ATOM     38  C   UNL     1      -1.612   9.287 135.461  0.00  0.00    +0.000 C 
ATOM     39  O   UNL     1      -2.295   9.329 136.533  0.00  0.00    +0.000 OA
ATOM     40  N   UNL     1      -1.384  10.515 134.686  0.00  0.00    +0.000 N 
ATOM     41  H   UNL     1      -0.855  10.482 133.856  0.00  0.00    +0.000 HD
BRANCH  40  42
ATOM     42  C   UNL     1      -1.945  11.792 135.150  0.00  0.00    +0.000 C 
BRANCH  42  43
ATOM     43  N   UNL     1      -2.376  12.587 133.991  0.00  0.00    +0.000 NA
ATOM     44  H   UNL     1      -2.003  13.533 134.070  0.00  0.00    +0.000 HD
BRANCH  43  45
ATOM     45  C   UNL     1      -1.875  11.964 132.757  0.00  0.00    +0.000 C 
BRANCH  45  46
ATOM     46  C   UNL     1      -1.313  13.039 131.840  0.00  0.00    +0.000 C 
ATOM     47  N   UNL     1      -2.061  14.285 131.623  0.00  0.00    +0.000 N 
ATOM     48  O   UNL     1      -0.197  12.859 131.260  0.00  0.00    +0.000 OA
ATOM     49  H   UNL     1      -2.926  14.425 132.072  0.00  0.00    +0.000 HD
ATOM     50  H   UNL     1      -1.698  14.981 131.029  0.00  0.00    +0.000 HD
ENDBRANCH  45  46
ENDBRANCH  43  45
ENDBRANCH  42  43
BRANCH  42  51
ATOM     51  C   UNL     1      -0.885  12.559 135.925  0.00  0.00    +0.000 C 
BRANCH  51  52
ATOM     52  C   UNL     1       0.487  12.244 135.354  0.00  0.00    +0.000 C 
ATOM     53  C   UNL     1       1.077  13.499 134.731  0.00  0.00    +0.000 C 
ATOM     54  C   UNL     1       1.399  11.754 136.467  0.00  0.00    +0.000 C 
ENDBRANCH  51  52
ENDBRANCH  42  51
ENDBRANCH  40  42
ENDBRANCH  37  38
ENDBRANCH  14  31
BRANCH   9  55
ATOM     55  N   UNL     1      -8.099   1.140 127.687  0.00  0.00    +0.000 NA
ATOM     56  H   UNL     1      -7.349   0.912 127.035  0.00  0.00    +0.000 HD
ATOM     57  H   UNL     1      -8.987   1.178 127.185  0.00  0.00    +0.000 HD
ENDBRANCH   9  55
BRANCH   1  58
ATOM     58  C   UNL     1      -2.989  -1.436 134.867  0.00  0.00    +0.000 C 
ATOM     59  C   UNL     1      -2.516  -1.568 136.305  0.00  0.00    +0.000 C 
BRANCH  58  61
ATOM     60  C   UNL     1      -0.308  -1.325 134.058  0.00  0.00    +0.000 C 
ATOM     61  C   UNL     1      -1.808  -1.089 133.975  0.00  0.00    +0.000 C 
ENDBRANCH  58  61
ENDBRANCH   1  58
BRANCH  18  62
ATOM     62  C   UNL     1      -5.508   2.005 132.350  0.00  0.00    +0.000 C 
BRANCH  62  63
ATOM     63  C   UNL     1      -5.072   1.050 131.251  0.00  0.00    +0.000 C 
ATOM     64  N   UNL     1      -5.838  -0.180 131.000  0.00  0.00    +0.000 N 
ATOM     65  O   UNL     1      -4.045   1.313 130.550  0.00  0.00    +0.000 OA
ATOM     66  H   UNL     1      -6.634  -0.384 131.543  0.00  0.00    +0.000 HD
ATOM     67  H   UNL     1      -5.556  -0.798 130.288  0.00  0.00    +0.000 HD
ENDBRANCH  62  63
ENDBRANCH  18  62
BRANCH   5  68
ATOM     68  C   UNL     1      -6.649   0.619 126.274  0.00  0.00    +0.000 C 
BRANCH  68  69
ATOM     69  C   UNL     1      -6.286  -0.512 125.327  0.00  0.00    +0.000 A 
ATOM     70  C   UNL     1      -6.639  -0.435 123.998  0.00  0.00    +0.000 A 
ATOM     71  C   UNL     1      -6.306  -1.457 123.103  0.00  0.00    +0.000 A 
ATOM     72  C   UNL     1      -5.582  -2.557 123.607  0.00  0.00    +0.000 A 
ATOM     73  C   UNL     1      -5.260  -2.636 124.941  0.00  0.00    +0.000 A 
ATOM     74  C   UNL     1      -5.605  -1.609 125.798  0.00  0.00    +0.000 A 
BRANCH  72  75
ATOM     75  O   UNL     1      -5.196  -3.579 122.811  0.00  0.00    +0.000 OA
ATOM     76  H   UNL     1      -4.284  -3.764 122.694  0.00  0.00    +0.000 HD
ENDBRANCH  72  75
ENDBRANCH  68  69
ENDBRANCH   5  68
BRANCH  22  77
ATOM     77  C   UNL     1      -4.391  -0.270 135.848  0.00  0.00    +0.000 C 
BRANCH  77  78
ATOM     78  C   UNL     1      -5.615  -0.051 136.723  0.00  0.00    +0.000 C 
BRANCH  78  79
ATOM     79  C   UNL     1      -6.159  -1.394 137.180  0.00  0.00    +0.000 C 
ATOM     80  N   UNL     1      -5.557  -2.078 138.333  0.00  0.00    +0.000 N 
ATOM     81  O   UNL     1      -7.136  -1.926 136.565  0.00  0.00    +0.000 OA
ATOM     82  H   UNL     1      -4.799  -1.666 138.809  0.00  0.00    +0.000 HD
ATOM     83  H   UNL     1      -5.909  -2.948 138.628  0.00  0.00    +0.000 HD
ENDBRANCH  78  79
ENDBRANCH  77  78
ENDBRANCH  22  77
TORSDOF 19
ENDMDL
MODEL 8
REMARK VINA RESULT:      -7.1      2.855      8.326
REMARK  Name = CHEMBL1630523
REMARK  23 active torsions:
REMARK  status: ('A' for Active; 'I' for Inactive)
REMARK    1  A    between atoms: C_1  and  C_2
REMARK    2  A    between atoms: C_2  and  C_3
REMARK    3  A    between atoms: C_3  and  C_4
REMARK    4  A    between atoms: C_3  and  C_5
REMARK    5  A    between atoms: C_9  and  C_10
REMARK    6  A    between atoms: C_10  and  C_11
REMARK    7  A    between atoms: C_14  and  O_15
REMARK    8  A    between atoms: C_21  and  N_22
REMARK    9  A    between atoms: C_27  and  C_28
REMARK   10  A    between atoms: C_34  and  C_35
REMARK   11  A    between atoms: N_37  and  C_38
REMARK   12  A    between atoms: C_38  and  C_39
REMARK   13  A    between atoms: C_38  and  N_43
REMARK   14  A    between atoms: C_39  and  C_40
REMARK   15  A    between atoms: C_40  and  C_41
REMARK   16  A    between atoms: C_40  and  C_42
REMARK   17  A    between atoms: N_43  and  C_44
REMARK   18  A    between atoms: C_44  and  C_45
REMARK   19  A    between atoms: C_51  and  C_52
REMARK   20  A    between atoms: C_52  and  C_53
REMARK   21  A    between atoms: C_59  and  C_60
REMARK   22  A    between atoms: C_60  and  C_61
REMARK   23  A    between atoms: C_61  and  C_62
REMARK                            x       y       z     vdW  Elec       q    Type
REMARK                         _______ _______ _______ _____ _____    ______ ____
ROOT
ATOM      1  C   UNL     1      -5.242  -3.180 135.772  0.00  0.00    +0.000 C 
ATOM      2  N   UNL     1      -1.266   8.273 136.346  0.00  0.00    +0.000 N 
ATOM      3  C   UNL     1      -1.960   7.257 135.541  0.00  0.00    +0.000 C 
ATOM      4  O   UNL     1      -1.300   6.314 135.001  0.00  0.00    +0.000 OA
ATOM      5  C   UNL     1      -3.467   7.333 135.356  0.00  0.00    +0.000 C 
ATOM      6  N   UNL     1      -3.779   7.457 133.924  0.00  0.00    +0.000 N 
ATOM      7  C   UNL     1      -3.358   6.405 132.987  0.00  0.00    +0.000 C 
ATOM      8  O   UNL     1      -3.628   6.513 131.749  0.00  0.00    +0.000 OA
ATOM      9  C   UNL     1      -2.601   5.190 133.498  0.00  0.00    +0.000 C 
ATOM     10  C   UNL     1      -3.393   3.931 133.185  0.00  0.00    +0.000 C 
ATOM     11  S   UNL     1      -3.621   3.792 131.394  0.00  0.00    +0.000 S 
ATOM     12 SE   UNL     1      -4.793   1.929 130.930  0.00  0.00    +0.000 Se
ATOM     13  C   UNL     1      -5.040   1.777 128.992  0.00  0.00    +0.000 C 
ATOM     14  C   UNL     1      -5.832   0.519 128.678  0.00  0.00    +0.000 C 
ATOM     15  N   UNL     1      -5.100  -0.656 129.171  0.00  0.00    +0.000 N 
ATOM     16  C   UNL     1      -4.788  -0.780 130.603  0.00  0.00    +0.000 C 
ATOM     17  O   UNL     1      -4.156  -1.796 131.030  0.00  0.00    +0.000 OA
ATOM     18  C   UNL     1      -5.223   0.307 131.572  0.00  0.00    +0.000 C 
ATOM     19  N   UNL     1      -6.118  -0.269 132.586  0.00  0.00    +0.000 N 
ATOM     20  C   UNL     1      -5.642  -1.352 133.457  0.00  0.00    +0.000 C 
ATOM     21  O   UNL     1      -6.416  -1.851 134.333  0.00  0.00    +0.000 OA
ATOM     22  C   UNL     1      -4.223  -1.877 133.311  0.00  0.00    +0.000 C 
ATOM     23  N   UNL     1      -3.498  -1.686 134.577  0.00  0.00    +0.000 N 
ATOM     24  C   UNL     1      -3.986  -2.324 135.807  0.00  0.00    +0.000 C 
ATOM     25  O   UNL     1      -3.360  -2.160 136.900  0.00  0.00    +0.000 OA
ATOM     26  H   UNL     1      -0.855   9.114 136.652  0.00  0.00    +0.000 HD
ATOM     27  H   UNL     1      -4.268   8.244 133.594  0.00  0.00    +0.000 HD
ATOM     28  H   UNL     1      -4.818  -1.361 128.544  0.00  0.00    +0.000 HD
ATOM     29  H   UNL     1      -7.038   0.071 132.680  0.00  0.00    +0.000 HD
ATOM     30  H   UNL     1      -2.684  -1.132 134.599  0.00  0.00    +0.000 HD
ENDROOT
BRANCH  14  31
ATOM     31  C   UNL     1      -6.023   0.402 127.175  0.00  0.00    +0.000 C 
ATOM     32  O   UNL     1      -5.541   1.288 126.402  0.00  0.00    +0.000 OA
ATOM     33  N   UNL     1      -6.766  -0.736 126.614  0.00  0.00    +0.000 N 
ATOM     34  C   UNL     1      -8.044  -1.279 127.109  0.00  0.00    +0.000 C 
ATOM     35  C   UNL     1      -7.846  -2.758 126.928  0.00  0.00    +0.000 C 
ATOM     36  C   UNL     1      -7.190  -2.853 125.517  0.00  0.00    +0.000 C 
ATOM     37  C   UNL     1      -6.334  -1.587 125.441  0.00  0.00    +0.000 C 
BRANCH  37  38
ATOM     38  C   UNL     1      -6.585  -0.853 124.133  0.00  0.00    +0.000 C 
ATOM     39  O   UNL     1      -6.391  -1.445 123.025  0.00  0.00    +0.000 OA
ATOM     40  N   UNL     1      -7.054   0.539 124.150  0.00  0.00    +0.000 N 
ATOM     41  H   UNL     1      -7.206   0.998 125.008  0.00  0.00    +0.000 HD
BRANCH  40  42
ATOM     42  C   UNL     1      -7.298   1.248 122.886  0.00  0.00    +0.000 C 
BRANCH  42  43
ATOM     43  N   UNL     1      -6.363   2.377 122.769  0.00  0.00    +0.000 NA
ATOM     44  H   UNL     1      -5.538   2.083 122.246  0.00  0.00    +0.000 HD
BRANCH  43  45
ATOM     45  C   UNL     1      -7.021   3.487 122.063  0.00  0.00    +0.000 C 
BRANCH  45  46
ATOM     46  C   UNL     1      -6.223   3.837 120.817  0.00  0.00    +0.000 C 
ATOM     47  N   UNL     1      -6.918   4.285 119.602  0.00  0.00    +0.000 N 
ATOM     48  O   UNL     1      -4.956   3.742 120.826  0.00  0.00    +0.000 OA
ATOM     49  H   UNL     1      -7.900   4.359 119.594  0.00  0.00    +0.000 HD
ATOM     50  H   UNL     1      -6.402   4.513 118.794  0.00  0.00    +0.000 HD
ENDBRANCH  45  46
ENDBRANCH  43  45
ENDBRANCH  42  43
BRANCH  42  51
ATOM     51  C   UNL     1      -8.726   1.769 122.863  0.00  0.00    +0.000 C 
BRANCH  51  52
ATOM     52  C   UNL     1      -9.656   0.719 123.448  0.00  0.00    +0.000 C 
ATOM     53  C   UNL     1     -10.844   1.405 124.104  0.00  0.00    +0.000 C 
ATOM     54  C   UNL     1     -10.148  -0.196 122.339  0.00  0.00    +0.000 C 
ENDBRANCH  51  52
ENDBRANCH  42  51
ENDBRANCH  40  42
ENDBRANCH  37  38
ENDBRANCH  14  31
BRANCH   9  55
ATOM     55  N   UNL     1      -2.416   5.304 134.952  0.00  0.00    +0.000 NA
ATOM     56  H   UNL     1      -2.888   6.143 135.290  0.00  0.00    +0.000 HD
ATOM     57  H   UNL     1      -1.420   5.365 135.165  0.00  0.00    +0.000 HD
ENDBRANCH   9  55
BRANCH   1  58
ATOM     58  C   UNL     1      -5.793  -3.213 134.356  0.00  0.00    +0.000 C 
ATOM     59  C   UNL     1      -6.002  -4.656 133.928  0.00  0.00    +0.000 C 
BRANCH  58  61
ATOM     60  C   UNL     1      -8.569  -2.901 134.126  0.00  0.00    +0.000 C 
ATOM     61  C   UNL     1      -7.121  -2.475 134.312  0.00  0.00    +0.000 C 
ENDBRANCH  58  61
ENDBRANCH   1  58
BRANCH  18  62
ATOM     62  C   UNL     1      -3.999   0.897 132.255  0.00  0.00    +0.000 C 
BRANCH  62  63
ATOM     63  C   UNL     1      -4.603   1.358 133.571  0.00  0.00    +0.000 C 
ATOM     64  N   UNL     1      -5.894   2.061 133.581  0.00  0.00    +0.000 N 
ATOM     65  O   UNL     1      -3.993   1.135 134.663  0.00  0.00    +0.000 OA
ATOM     66  H   UNL     1      -6.367   2.234 132.735  0.00  0.00    +0.000 HD
ATOM     67  H   UNL     1      -6.285   2.359 134.434  0.00  0.00    +0.000 HD
ENDBRANCH  62  63
ENDBRANCH  18  62
BRANCH   5  68
ATOM     68  C   UNL     1      -4.110   6.072 135.907  0.00  0.00    +0.000 C 
BRANCH  68  69
ATOM     69  C   UNL     1      -5.525   6.447 136.314  0.00  0.00    +0.000 A 
ATOM     70  C   UNL     1      -6.593   5.716 135.840  0.00  0.00    +0.000 A 
ATOM     71  C   UNL     1      -7.904   6.032 136.209  0.00  0.00    +0.000 A 
ATOM     72  C   UNL     1      -8.091   7.113 137.095  0.00  0.00    +0.000 A 
ATOM     73  C   UNL     1      -7.021   7.853 137.538  0.00  0.00    +0.000 A 
ATOM     74  C   UNL     1      -5.738   7.513 137.154  0.00  0.00    +0.000 A 
BRANCH  72  75
ATOM     75  O   UNL     1      -9.320   7.476 137.525  0.00  0.00    +0.000 OA
ATOM     76  H   UNL     1      -9.420   7.904 138.353  0.00  0.00    +0.000 HD
ENDBRANCH  72  75
ENDBRANCH  68  69
ENDBRANCH   5  68
BRANCH  22  77
ATOM     77  C   UNL     1      -4.263  -3.356 132.968  0.00  0.00    +0.000 C 
BRANCH  77  78
ATOM     78  C   UNL     1      -2.864  -3.831 132.608  0.00  0.00    +0.000 C 
BRANCH  78  79
ATOM     79  C   UNL     1      -2.385  -4.829 133.648  0.00  0.00    +0.000 C 
ATOM     80  N   UNL     1      -1.252  -4.494 134.522  0.00  0.00    +0.000 N 
ATOM     81  O   UNL     1      -2.964  -5.955 133.763  0.00  0.00    +0.000 OA
ATOM     82  H   UNL     1      -0.803  -3.622 134.433  0.00  0.00    +0.000 HD
ATOM     83  H   UNL     1      -0.941  -5.141 135.196  0.00  0.00    +0.000 HD
ENDBRANCH  78  79
ENDBRANCH  77  78
ENDBRANCH  22  77
TORSDOF 19
ENDMDL
MODEL 9
REMARK VINA RESULT:      -7.0      3.473     11.879
REMARK  Name = CHEMBL1630523
REMARK  23 active torsions:
REMARK  status: ('A' for Active; 'I' for Inactive)
REMARK    1  A    between atoms: C_1  and  C_2
REMARK    2  A    between atoms: C_2  and  C_3
REMARK    3  A    between atoms: C_3  and  C_4
REMARK    4  A    between atoms: C_3  and  C_5
REMARK    5  A    between atoms: C_9  and  C_10
REMARK    6  A    between atoms: C_10  and  C_11
REMARK    7  A    between atoms: C_14  and  O_15
REMARK    8  A    between atoms: C_21  and  N_22
REMARK    9  A    between atoms: C_27  and  C_28
REMARK   10  A    between atoms: C_34  and  C_35
REMARK   11  A    between atoms: N_37  and  C_38
REMARK   12  A    between atoms: C_38  and  C_39
REMARK   13  A    between atoms: C_38  and  N_43
REMARK   14  A    between atoms: C_39  and  C_40
REMARK   15  A    between atoms: C_40  and  C_41
REMARK   16  A    between atoms: C_40  and  C_42
REMARK   17  A    between atoms: N_43  and  C_44
REMARK   18  A    between atoms: C_44  and  C_45
REMARK   19  A    between atoms: C_51  and  C_52
REMARK   20  A    between atoms: C_52  and  C_53
REMARK   21  A    between atoms: C_59  and  C_60
REMARK   22  A    between atoms: C_60  and  C_61
REMARK   23  A    between atoms: C_61  and  C_62
REMARK                            x       y       z     vdW  Elec       q    Type
REMARK                         _______ _______ _______ _____ _____    ______ ____
ROOT
ATOM      1  C   UNL     1      -3.742  -3.650 133.290  0.00  0.00    +0.000 C 
ATOM      2  N   UNL     1      -9.650   1.635 124.100  0.00  0.00    +0.000 N 
ATOM      3  C   UNL     1      -8.948   1.829 125.378  0.00  0.00    +0.000 C 
ATOM      4  O   UNL     1      -9.509   1.494 126.468  0.00  0.00    +0.000 OA
ATOM      5  C   UNL     1      -7.552   2.431 125.395  0.00  0.00    +0.000 C 
ATOM      6  N   UNL     1      -7.563   3.671 126.185  0.00  0.00    +0.000 N 
ATOM      7  C   UNL     1      -7.952   3.637 127.602  0.00  0.00    +0.000 C 
ATOM      8  O   UNL     1      -7.961   4.709 128.284  0.00  0.00    +0.000 OA
ATOM      9  C   UNL     1      -8.343   2.319 128.250  0.00  0.00    +0.000 C 
ATOM     10  C   UNL     1      -7.403   2.024 129.408  0.00  0.00    +0.000 C 
ATOM     11  S   UNL     1      -7.515   3.356 130.629  0.00  0.00    +0.000 S 
ATOM     12 SE   UNL     1      -6.123   2.920 132.342  0.00  0.00    +0.000 Se
ATOM     13  C   UNL     1      -6.245   4.361 133.665  0.00  0.00    +0.000 C 
ATOM     14  C   UNL     1      -5.304   4.067 134.823  0.00  0.00    +0.000 C 
ATOM     15  N   UNL     1      -5.683   2.794 135.450  0.00  0.00    +0.000 N 
ATOM     16  C   UNL     1      -5.673   1.554 134.660  0.00  0.00    +0.000 C 
ATOM     17  O   UNL     1      -5.999   0.452 135.203  0.00  0.00    +0.000 OA
ATOM     18  C   UNL     1      -5.270   1.589 133.195  0.00  0.00    +0.000 C 
ATOM     19  N   UNL     1      -4.097   0.729 132.988  0.00  0.00    +0.000 N 
ATOM     20  C   UNL     1      -4.172  -0.705 133.301  0.00  0.00    +0.000 C 
ATOM     21  O   UNL     1      -3.157  -1.449 133.122  0.00  0.00    +0.000 OA
ATOM     22  C   UNL     1      -5.464  -1.299 133.838  0.00  0.00    +0.000 C 
ATOM     23  N   UNL     1      -5.944  -2.341 132.918  0.00  0.00    +0.000 N 
ATOM     24  C   UNL     1      -5.106  -3.514 132.634  0.00  0.00    +0.000 C 
ATOM     25  O   UNL     1      -5.521  -4.414 131.839  0.00  0.00    +0.000 OA
ATOM     26  H   UNL     1     -10.145   1.791 123.263  0.00  0.00    +0.000 HD
ATOM     27  H   UNL     1      -7.310   4.524 125.764  0.00  0.00    +0.000 HD
ATOM     28  H   UNL     1      -5.944   2.770 136.399  0.00  0.00    +0.000 HD
ATOM     29  H   UNL     1      -3.259   1.114 132.639  0.00  0.00    +0.000 HD
ATOM     30  H   UNL     1      -6.828  -2.252 132.492  0.00  0.00    +0.000 HD
ENDROOT
BRANCH  14  31
ATOM     31  C   UNL     1      -5.399   5.185 135.849  0.00  0.00    +0.000 C 
ATOM     32  O   UNL     1      -5.720   6.359 135.482  0.00  0.00    +0.000 OA
ATOM     33  N   UNL     1      -5.118   4.909 137.265  0.00  0.00    +0.000 N 
ATOM     34  C   UNL     1      -3.990   4.124 137.799  0.00  0.00    +0.000 C 
ATOM     35  C   UNL     1      -4.636   3.387 138.940  0.00  0.00    +0.000 C 
ATOM     36  C   UNL     1      -5.508   4.487 139.617  0.00  0.00    +0.000 C 
ATOM     37  C   UNL     1      -5.960   5.353 138.439  0.00  0.00    +0.000 C 
BRANCH  37  38
ATOM     38  C   UNL     1      -5.720   6.824 138.739  0.00  0.00    +0.000 C 
ATOM     39  O   UNL     1      -4.801   7.166 139.549  0.00  0.00    +0.000 OA
ATOM     40  N   UNL     1      -6.548   7.851 138.092  0.00  0.00    +0.000 N 
ATOM     41  H   UNL     1      -7.259   7.586 137.464  0.00  0.00    +0.000 HD
BRANCH  40  42
ATOM     42  C   UNL     1      -6.316   9.273 138.380  0.00  0.00    +0.000 C 
BRANCH  42  43
ATOM     43  N   UNL     1      -7.582  10.011 138.262  0.00  0.00    +0.000 NA
ATOM     44  H   UNL     1      -7.415  10.899 137.789  0.00  0.00    +0.000 HD
BRANCH  43  45
ATOM     45  C   UNL     1      -8.541   9.214 137.482  0.00  0.00    +0.000 C 
BRANCH  45  46
ATOM     46  C   UNL     1      -9.923   9.332 138.106  0.00  0.00    +0.000 C 
ATOM     47  N   UNL     1     -11.094   8.785 137.406  0.00  0.00    +0.000 N 
ATOM     48  O   UNL     1     -10.064   9.904 139.231  0.00  0.00    +0.000 OA
ATOM     49  H   UNL     1     -10.984   8.342 136.534  0.00  0.00    +0.000 HD
ATOM     50  H   UNL     1     -11.989   8.862 137.810  0.00  0.00    +0.000 HD
ENDBRANCH  45  46
ENDBRANCH  43  45
ENDBRANCH  42  43
BRANCH  42  51
ATOM     51  C   UNL     1      -5.308   9.834 137.390  0.00  0.00    +0.000 C 
BRANCH  51  52
ATOM     52  C   UNL     1      -4.068  10.298 138.137  0.00  0.00    +0.000 C 
ATOM     53  C   UNL     1      -2.838  10.053 137.278  0.00  0.00    +0.000 C 
ATOM     54  C   UNL     1      -4.187  11.782 138.441  0.00  0.00    +0.000 C 
ENDBRANCH  51  52
ENDBRANCH  42  51
ENDBRANCH  40  42
ENDBRANCH  37  38
ENDBRANCH  14  31
BRANCH   9  55
ATOM     55  N   UNL     1      -8.252   1.238 127.258  0.00  0.00    +0.000 NA
ATOM     56  H   UNL     1      -7.679   0.482 127.631  0.00  0.00    +0.000 HD
ATOM     57  H   UNL     1      -7.828   1.596 126.402  0.00  0.00    +0.000 HD
ENDBRANCH   9  55
BRANCH   1  58
ATOM     58  C   UNL     1      -3.489  -2.449 134.187  0.00  0.00    +0.000 C 
ATOM     59  C   UNL     1      -3.135  -2.928 135.585  0.00  0.00    +0.000 C 
BRANCH  58  61
ATOM     60  C   UNL     1      -0.897  -1.394 134.047  0.00  0.00    +0.000 C 
ATOM     61  C   UNL     1      -2.338  -1.631 133.625  0.00  0.00    +0.000 C 
ENDBRANCH  58  61
ENDBRANCH   1  58
BRANCH  18  62
ATOM     62  C   UNL     1      -6.423   1.087 132.340  0.00  0.00    +0.000 C 
BRANCH  62  63
ATOM     63  C   UNL     1      -5.672   0.587 131.117  0.00  0.00    +0.000 C 
ATOM     64  N   UNL     1      -6.159  -0.592 130.387  0.00  0.00    +0.000 N 
ATOM     65  O   UNL     1      -4.622   1.188 130.726  0.00  0.00    +0.000 OA
ATOM     66  H   UNL     1      -6.972  -1.057 130.690  0.00  0.00    +0.000 HD
ATOM     67  H   UNL     1      -5.673  -0.915 129.595  0.00  0.00    +0.000 HD
ENDBRANCH  62  63
ENDBRANCH  18  62
BRANCH   5  68
ATOM     68  C   UNL     1      -6.582   1.442 126.017  0.00  0.00    +0.000 C 
BRANCH  68  69
ATOM     69  C   UNL     1      -5.298   2.206 126.293  0.00  0.00    +0.000 A 
ATOM     70  C   UNL     1      -4.570   1.937 127.431  0.00  0.00    +0.000 A 
ATOM     71  C   UNL     1      -3.378   2.618 127.703  0.00  0.00    +0.000 A 
ATOM     72  C   UNL     1      -2.943   3.573 126.762  0.00  0.00    +0.000 A 
ATOM     73  C   UNL     1      -3.692   3.853 125.644  0.00  0.00    +0.000 A 
ATOM     74  C   UNL     1      -4.865   3.162 125.406  0.00  0.00    +0.000 A 
BRANCH  72  75
ATOM     75  O   UNL     1      -1.791   4.262 126.929  0.00  0.00    +0.000 OA
ATOM     76  H   UNL     1      -1.240   4.081 127.665  0.00  0.00    +0.000 HD
ENDBRANCH  72  75
ENDBRANCH  68  69
ENDBRANCH   5  68
BRANCH  22  77
ATOM     77  C   UNL     1      -5.210  -1.909 135.206  0.00  0.00    +0.000 C 
BRANCH  77  78
ATOM     78  C   UNL     1      -6.500  -2.508 135.743  0.00  0.00    +0.000 C 
BRANCH  78  79
ATOM     79  C   UNL     1      -6.787  -1.938 137.121  0.00  0.00    +0.000 C 
ATOM     80  N   UNL     1      -5.767  -1.138 137.815  0.00  0.00    +0.000 N 
ATOM     81  O   UNL     1      -7.911  -2.151 137.676  0.00  0.00    +0.000 OA
ATOM     82  H   UNL     1      -4.896  -0.973 137.386  0.00  0.00    +0.000 HD
ATOM     83  H   UNL     1      -5.953  -0.769 138.708  0.00  0.00    +0.000 HD
ENDBRANCH  78  79
ENDBRANCH  77  78
ENDBRANCH  22  77
TORSDOF 19
ENDMDL
