MODEL 1
REMARK VINA RESULT:      -8.3      0.000      0.000
REMARK  Name = CHEMBL381024
REMARK  12 active torsions:
REMARK  status: ('A' for Active; 'I' for Inactive)
REMARK    1  A    between atoms: CD1_1  and  CG_2
REMARK    2  A    between atoms: CG_2  and  CD2_3
REMARK    3  A    between atoms: CG_2  and  CB_4
REMARK    4  A    between atoms: CB_4  and  CA_5
REMARK    5  A    between atoms: C_9  and  C_10
REMARK    6  A    between atoms: N_21  and  C_22
REMARK    7  A    between atoms: C_22  and  C_23
REMARK    8  A    between atoms: C_22  and  C_30
REMARK    9  A    between atoms: N_25  and  C_26
REMARK   10  A    between atoms: C_26  and  C_27
REMARK   11  A    between atoms: C_26  and  C_28
REMARK   12  A    between atoms: C_26  and  C_29
REMARK                            x       y       z     vdW  Elec       q    Type
REMARK                         _______ _______ _______ _____ _____    ______ ____
ROOT
ATOM      1  CA  LEU A   2      -7.453   2.500 126.464  0.00  0.00    +0.000 C 
ATOM      2  C   LEU A   2      -7.476   3.982 126.919  0.00  0.00    +0.000 C 
ATOM      3  O   LEU A   2      -7.368   4.965 126.230  0.00  0.00    +0.000 OA
ATOM      4  N   UNK A   1      -7.631   4.080 128.259  0.00  0.00    +0.000 N 
ATOM      5  C   UNK A   1      -8.503   3.113 128.856  0.00  0.00    +0.000 C 
ATOM      6  C   UNK A   1      -7.901   1.713 128.710  0.00  0.00    +0.000 C 
ATOM      7  O   UNK A   1      -8.166   0.900 129.594  0.00  0.00    +0.000 OA
ATOM      8  N   LEU A   2      -7.168   1.472 127.546  0.00  0.00    +0.000 N 
ATOM      9  H   UNK A   1      -7.560   5.034 128.590  0.00  0.00    +0.000 HD
ENDROOT
BRANCH   5  10
ATOM     10  C   UNK A   1      -8.717   3.360 130.350  0.00  0.00    +0.000 C 
ATOM     11  C   UNK A   1     -10.208   3.364 130.705  0.00  0.00    +0.000 C 
ATOM     12  C   UNK A   1     -10.538   4.817 130.538  0.00  0.00    +0.000 A 
ATOM     13  C   UNK A   1     -11.773   5.372 130.263  0.00  0.00    +0.000 A 
ATOM     14  C   UNK A   1     -11.833   6.741 129.999  0.00  0.00    +0.000 A 
ATOM     15  C   UNK A   1     -10.670   7.528 129.999  0.00  0.00    +0.000 A 
ATOM     16  C   UNK A   1      -9.424   6.960 130.262  0.00  0.00    +0.000 A 
ATOM     17  C   UNK A   1      -9.376   5.605 130.543  0.00  0.00    +0.000 A 
ATOM     18  C   UNK A   1      -8.160   4.755 130.747  0.00  0.00    +0.000 C 
ENDBRANCH   5  10
BRANCH   1  19
ATOM     19  CB  LEU A   2      -6.426   2.533 125.411  0.00  0.00    +0.000 C 
BRANCH  19  21
ATOM     20  CD1 LEU A   2      -6.318   3.161 123.257  0.00  0.00    +0.000 C 
ATOM     21  CG  LEU A   2      -7.068   2.196 124.080  0.00  0.00    +0.000 C 
ATOM     22  CD2 LEU A   2      -7.035   0.925 123.209  0.00  0.00    +0.000 C 
ENDBRANCH  19  21
ENDBRANCH   1  19
BRANCH   8  23
ATOM     23  C   UNK A   0      -6.329   0.146 127.332  0.00  0.00    +0.000 C 
BRANCH  23  24
ATOM     24  C   UNK A   0      -7.097  -0.935 126.475  0.00  0.00    +0.000 A 
ATOM     25  C   UNK A   0      -6.427  -1.812 125.603  0.00  0.00    +0.000 A 
ATOM     26  C   UNK A   0      -7.147  -2.547 124.636  0.00  0.00    +0.000 A 
ATOM     27  C   UNK A   0      -8.540  -2.512 124.602  0.00  0.00    +0.000 A 
ATOM     28 CL   UNK A   0      -9.438  -3.409 123.448  0.00  0.00    +0.000 Cl
ATOM     29  C   UNK A   0      -9.225  -1.747 125.514  0.00  0.00    +0.000 A 
ATOM     30  C   UNK A   0      -8.507  -0.985 126.420  0.00  0.00    +0.000 A 
ENDBRANCH  23  24
BRANCH  23  31
ATOM     31  C   UNK A   0      -5.772  -0.599 128.715  0.00  0.00    +0.000 C 
ATOM     32  O   UNK A   0      -4.698  -0.267 129.241  0.00  0.00    +0.000 OA
ATOM     33  N   UNK A   0      -6.370  -1.743 129.242  0.00  0.00    +0.000 N 
ATOM     34  H   UNK A   0      -7.296  -1.924 128.877  0.00  0.00    +0.000 HD
BRANCH  33  35
ATOM     35  C   UNK A   0      -5.655  -2.743 130.303  0.00  0.00    +0.000 C 
ATOM     36  C   UNK A   0      -5.740  -2.166 131.761  0.00  0.00    +0.000 C 
ATOM     37  C   UNK A   0      -6.490  -3.968 130.069  0.00  0.00    +0.000 C 
ATOM     38  C   UNK A   0      -4.072  -3.435 130.118  0.00  0.00    +0.000 C 
ENDBRANCH  33  35
ENDBRANCH  23  31
ENDBRANCH   8  23
TORSDOF 7
ENDMDL
MODEL 2
REMARK VINA RESULT:      -8.3      2.975      8.368
REMARK  Name = CHEMBL381024
REMARK  12 active torsions:
REMARK  status: ('A' for Active; 'I' for Inactive)
REMARK    1  A    between atoms: CD1_1  and  CG_2
REMARK    2  A    between atoms: CG_2  and  CD2_3
REMARK    3  A    between atoms: CG_2  and  CB_4
REMARK    4  A    between atoms: CB_4  and  CA_5
REMARK    5  A    between atoms: C_9  and  C_10
REMARK    6  A    between atoms: N_21  and  C_22
REMARK    7  A    between atoms: C_22  and  C_23
REMARK    8  A    between atoms: C_22  and  C_30
REMARK    9  A    between atoms: N_25  and  C_26
REMARK   10  A    between atoms: C_26  and  C_27
REMARK   11  A    between atoms: C_26  and  C_28
REMARK   12  A    between atoms: C_26  and  C_29
REMARK                            x       y       z     vdW  Elec       q    Type
REMARK                         _______ _______ _______ _____ _____    ______ ____
ROOT
ATOM      1  CA  LEU A   2      -7.306   1.949 131.561  0.00  0.00    +0.000 C 
ATOM      2  C   LEU A   2      -6.431   0.676 131.703  0.00  0.00    +0.000 C 
ATOM      3  O   LEU A   2      -5.849   0.289 132.684  0.00  0.00    +0.000 OA
ATOM      4  N   UNK A   1      -6.369  -0.007 130.537  0.00  0.00    +0.000 N 
ATOM      5  C   UNK A   1      -7.572  -0.023 129.762  0.00  0.00    +0.000 C 
ATOM      6  C   UNK A   1      -7.898   1.394 129.280  0.00  0.00    +0.000 C 
ATOM      7  O   UNK A   1      -8.492   1.492 128.208  0.00  0.00    +0.000 OA
ATOM      8  N   LEU A   2      -7.555   2.436 130.144  0.00  0.00    +0.000 N 
ATOM      9  H   UNK A   1      -5.732  -0.792 130.580  0.00  0.00    +0.000 HD
ENDROOT
BRANCH   5  10
ATOM     10  C   UNK A   1      -7.458  -0.907 128.518  0.00  0.00    +0.000 C 
ATOM     11  C   UNK A   1      -7.936  -2.335 128.806  0.00  0.00    +0.000 C 
ATOM     12  C   UNK A   1      -6.657  -2.984 129.241  0.00  0.00    +0.000 A 
ATOM     13  C   UNK A   1      -6.511  -4.093 130.053  0.00  0.00    +0.000 A 
ATOM     14  C   UNK A   1      -5.222  -4.445 130.457  0.00  0.00    +0.000 A 
ATOM     15  C   UNK A   1      -4.109  -3.684 130.064  0.00  0.00    +0.000 A 
ATOM     16  C   UNK A   1      -4.264  -2.557 129.258  0.00  0.00    +0.000 A 
ATOM     17  C   UNK A   1      -5.543  -2.227 128.844  0.00  0.00    +0.000 A 
ATOM     18  C   UNK A   1      -5.972  -1.016 128.075  0.00  0.00    +0.000 C 
ENDBRANCH   5  10
BRANCH   1  19
ATOM     19  CB  LEU A   2      -6.555   2.913 132.381  0.00  0.00    +0.000 C 
BRANCH  19  21
ATOM     20  CD1 LEU A   2      -6.974   4.746 133.608  0.00  0.00    +0.000 C 
ATOM     21  CG  LEU A   2      -7.414   3.341 133.555  0.00  0.00    +0.000 C 
ATOM     22  CD2 LEU A   2      -8.941   3.468 133.726  0.00  0.00    +0.000 C 
ENDBRANCH  19  21
ENDBRANCH   1  19
BRANCH   8  23
ATOM     23  C   UNK A   0      -7.653   3.958 129.716  0.00  0.00    +0.000 C 
BRANCH  23  24
ATOM     24  C   UNK A   0      -8.938   4.675 130.288  0.00  0.00    +0.000 A 
ATOM     25  C   UNK A   0     -10.206   4.065 130.265  0.00  0.00    +0.000 A 
ATOM     26  C   UNK A   0     -11.370   4.830 130.494  0.00  0.00    +0.000 A 
ATOM     27  C   UNK A   0     -11.284   6.172 130.862  0.00  0.00    +0.000 A 
ATOM     28 CL   UNK A   0     -12.683   7.118 131.162  0.00  0.00    +0.000 Cl
ATOM     29  C   UNK A   0     -10.052   6.764 130.997  0.00  0.00    +0.000 A 
ATOM     30  C   UNK A   0      -8.919   6.021 130.714  0.00  0.00    +0.000 A 
ENDBRANCH  23  24
BRANCH  23  31
ATOM     31  C   UNK A   0      -7.581   4.264 128.079  0.00  0.00    +0.000 C 
ATOM     32  O   UNK A   0      -8.484   4.888 127.499  0.00  0.00    +0.000 OA
ATOM     33  N   UNK A   0      -6.622   3.685 127.250  0.00  0.00    +0.000 N 
ATOM     34  H   UNK A   0      -5.839   3.285 127.751  0.00  0.00    +0.000 HD
BRANCH  33  35
ATOM     35  C   UNK A   0      -6.744   3.595 125.633  0.00  0.00    +0.000 C 
ATOM     36  C   UNK A   0      -6.153   4.883 124.956  0.00  0.00    +0.000 C 
ATOM     37  C   UNK A   0      -5.939   2.349 125.407  0.00  0.00    +0.000 C 
ATOM     38  C   UNK A   0      -8.184   3.171 124.758  0.00  0.00    +0.000 C 
ENDBRANCH  33  35
ENDBRANCH  23  31
ENDBRANCH   8  23
TORSDOF 7
ENDMDL
MODEL 3
REMARK VINA RESULT:      -8.2      3.318      8.182
REMARK  Name = CHEMBL381024
REMARK  12 active torsions:
REMARK  status: ('A' for Active; 'I' for Inactive)
REMARK    1  A    between atoms: CD1_1  and  CG_2
REMARK    2  A    between atoms: CG_2  and  CD2_3
REMARK    3  A    between atoms: CG_2  and  CB_4
REMARK    4  A    between atoms: CB_4  and  CA_5
REMARK    5  A    between atoms: C_9  and  C_10
REMARK    6  A    between atoms: N_21  and  C_22
REMARK    7  A    between atoms: C_22  and  C_23
REMARK    8  A    between atoms: C_22  and  C_30
REMARK    9  A    between atoms: N_25  and  C_26
REMARK   10  A    between atoms: C_26  and  C_27
REMARK   11  A    between atoms: C_26  and  C_28
REMARK   12  A    between atoms: C_26  and  C_29
REMARK                            x       y       z     vdW  Elec       q    Type
REMARK                         _______ _______ _______ _____ _____    ______ ____
ROOT
ATOM      1  CA  LEU A   2      -8.103   2.007 129.792  0.00  0.00    +0.000 C 
ATOM      2  C   LEU A   2      -7.565   0.683 129.189  0.00  0.00    +0.000 C 
ATOM      3  O   LEU A   2      -7.859  -0.442 129.504  0.00  0.00    +0.000 OA
ATOM      4  N   UNK A   1      -6.662   0.923 128.211  0.00  0.00    +0.000 N 
ATOM      5  C   UNK A   1      -6.936   2.054 127.377  0.00  0.00    +0.000 C 
ATOM      6  C   UNK A   1      -6.853   3.340 128.204  0.00  0.00    +0.000 C 
ATOM      7  O   UNK A   1      -6.493   4.357 127.614  0.00  0.00    +0.000 OA
ATOM      8  N   LEU A   2      -7.267   3.249 129.534  0.00  0.00    +0.000 N 
ATOM      9  H   UNK A   1      -6.231   0.076 127.864  0.00  0.00    +0.000 HD
ENDROOT
BRANCH   5  10
ATOM     10  C   UNK A   1      -5.935   2.191 126.227  0.00  0.00    +0.000 C 
ATOM     11  C   UNK A   1      -6.648   2.214 124.870  0.00  0.00    +0.000 C 
ATOM     12  C   UNK A   1      -6.662   0.755 124.529  0.00  0.00    +0.000 A 
ATOM     13  C   UNK A   1      -7.542   0.095 123.693  0.00  0.00    +0.000 A 
ATOM     14  C   UNK A   1      -7.468  -1.298 123.629  0.00  0.00    +0.000 A 
ATOM     15  C   UNK A   1      -6.537  -2.007 124.405  0.00  0.00    +0.000 A 
ATOM     16  C   UNK A   1      -5.661  -1.338 125.258  0.00  0.00    +0.000 A 
ATOM     17  C   UNK A   1      -5.726   0.044 125.299  0.00  0.00    +0.000 A 
ATOM     18  C   UNK A   1      -4.975   0.970 126.206  0.00  0.00    +0.000 C 
ENDBRANCH   5  10
BRANCH   1  19
ATOM     19  CB  LEU A   2      -8.201   1.660 131.218  0.00  0.00    +0.000 C 
BRANCH  19  21
ATOM     20  CD1 LEU A   2      -9.325   2.521 132.962  0.00  0.00    +0.000 C 
ATOM     21  CG  LEU A   2      -9.631   1.861 131.681  0.00  0.00    +0.000 C 
ATOM     22  CD2 LEU A   2     -10.783   2.726 131.132  0.00  0.00    +0.000 C 
ENDBRANCH  19  21
ENDBRANCH   1  19
BRANCH   8  23
ATOM     23  C   UNK A   0      -7.068   4.433 130.567  0.00  0.00    +0.000 C 
BRANCH  23  24
ATOM     24  C   UNK A   0      -8.339   5.362 130.689  0.00  0.00    +0.000 A 
ATOM     25  C   UNK A   0      -8.801   5.837 131.930  0.00  0.00    +0.000 A 
ATOM     26  C   UNK A   0     -10.090   6.400 132.044  0.00  0.00    +0.000 A 
ATOM     27  C   UNK A   0     -10.884   6.605 130.916  0.00  0.00    +0.000 A 
ATOM     28 CL   UNK A   0     -12.447   7.302 131.027  0.00  0.00    +0.000 Cl
ATOM     29  C   UNK A   0     -10.413   6.248 129.677  0.00  0.00    +0.000 A 
ATOM     30  C   UNK A   0      -9.171   5.644 129.583  0.00  0.00    +0.000 A 
ENDBRANCH  23  24
BRANCH  23  31
ATOM     31  C   UNK A   0      -5.742   5.411 130.313  0.00  0.00    +0.000 C 
ATOM     32  O   UNK A   0      -5.854   6.645 130.236  0.00  0.00    +0.000 OA
ATOM     33  N   UNK A   0      -4.487   4.900 129.985  0.00  0.00    +0.000 N 
ATOM     34  H   UNK A   0      -4.390   3.910 130.168  0.00  0.00    +0.000 HD
BRANCH  33  35
ATOM     35  C   UNK A   0      -3.289   5.773 129.322  0.00  0.00    +0.000 C 
ATOM     36  C   UNK A   0      -2.327   6.335 130.429  0.00  0.00    +0.000 C 
ATOM     37  C   UNK A   0      -2.682   4.712 128.451  0.00  0.00    +0.000 C 
ATOM     38  C   UNK A   0      -3.499   7.030 128.140  0.00  0.00    +0.000 C 
ENDBRANCH  33  35
ENDBRANCH  23  31
ENDBRANCH   8  23
TORSDOF 7
ENDMDL
MODEL 4
REMARK VINA RESULT:      -7.8      3.565      8.203
REMARK  Name = CHEMBL381024
REMARK  12 active torsions:
REMARK  status: ('A' for Active; 'I' for Inactive)
REMARK    1  A    between atoms: CD1_1  and  CG_2
REMARK    2  A    between atoms: CG_2  and  CD2_3
REMARK    3  A    between atoms: CG_2  and  CB_4
REMARK    4  A    between atoms: CB_4  and  CA_5
REMARK    5  A    between atoms: C_9  and  C_10
REMARK    6  A    between atoms: N_21  and  C_22
REMARK    7  A    between atoms: C_22  and  C_23
REMARK    8  A    between atoms: C_22  and  C_30
REMARK    9  A    between atoms: N_25  and  C_26
REMARK   10  A    between atoms: C_26  and  C_27
REMARK   11  A    between atoms: C_26  and  C_28
REMARK   12  A    between atoms: C_26  and  C_29
REMARK                            x       y       z     vdW  Elec       q    Type
REMARK                         _______ _______ _______ _____ _____    ______ ____
ROOT
ATOM      1  CA  LEU A   2      -5.187   1.735 128.067  0.00  0.00    +0.000 C 
ATOM      2  C   LEU A   2      -5.627   0.281 127.756  0.00  0.00    +0.000 C 
ATOM      3  O   LEU A   2      -5.292  -0.407 126.825  0.00  0.00    +0.000 OA
ATOM      4  N   UNK A   1      -6.493  -0.179 128.689  0.00  0.00    +0.000 N 
ATOM      5  C   UNK A   1      -6.237   0.242 130.033  0.00  0.00    +0.000 C 
ATOM      6  C   UNK A   1      -6.426   1.757 130.147  0.00  0.00    +0.000 C 
ATOM      7  O   UNK A   1      -6.808   2.188 131.234  0.00  0.00    +0.000 OA
ATOM      8  N   LEU A   2      -6.073   2.511 129.026  0.00  0.00    +0.000 N 
ATOM      9  H   UNK A   1      -6.862  -1.092 128.460  0.00  0.00    +0.000 HD
ENDROOT
BRANCH   5  10
ATOM     10  C   UNK A   1      -7.186  -0.409 131.042  0.00  0.00    +0.000 C 
ATOM     11  C   UNK A   1      -6.422  -0.944 132.259  0.00  0.00    +0.000 C 
ATOM     12  C   UNK A   1      -6.121  -2.344 131.816  0.00  0.00    +0.000 A 
ATOM     13  C   UNK A   1      -5.092  -3.159 132.247  0.00  0.00    +0.000 A 
ATOM     14  C   UNK A   1      -4.904  -4.379 131.594  0.00  0.00    +0.000 A 
ATOM     15  C   UNK A   1      -5.726  -4.757 130.520  0.00  0.00    +0.000 A 
ATOM     16  C   UNK A   1      -6.753  -3.924 130.079  0.00  0.00    +0.000 A 
ATOM     17  C   UNK A   1      -6.947  -2.726 130.746  0.00  0.00    +0.000 A 
ATOM     18  C   UNK A   1      -7.901  -1.627 130.394  0.00  0.00    +0.000 C 
ENDBRANCH   5  10
BRANCH   1  19
ATOM     19  CB  LEU A   2      -5.142   2.321 126.718  0.00  0.00    +0.000 C 
BRANCH  19  21
ATOM     20  CD1 LEU A   2      -4.049   4.159 126.031  0.00  0.00    +0.000 C 
ATOM     21  CG  LEU A   2      -3.726   2.776 126.423  0.00  0.00    +0.000 C 
ATOM     22  CD2 LEU A   2      -2.493   2.969 127.327  0.00  0.00    +0.000 C 
ENDBRANCH  19  21
ENDBRANCH   1  19
BRANCH   8  23
ATOM     23  C   UNK A   0      -6.382   4.060 128.916  0.00  0.00    +0.000 C 
BRANCH  23  24
ATOM     24  C   UNK A   0      -5.488   4.936 129.879  0.00  0.00    +0.000 A 
ATOM     25  C   UNK A   0      -6.008   6.036 130.587  0.00  0.00    +0.000 A 
ATOM     26  C   UNK A   0      -5.139   6.971 131.189  0.00  0.00    +0.000 A 
ATOM     27  C   UNK A   0      -3.760   6.765 131.199  0.00  0.00    +0.000 A 
ATOM     28 CL   UNK A   0      -2.686   7.879 131.939  0.00  0.00    +0.000 Cl
ATOM     29  C   UNK A   0      -3.235   5.643 130.608  0.00  0.00    +0.000 A 
ATOM     30  C   UNK A   0      -4.090   4.761 129.970  0.00  0.00    +0.000 A 
ENDBRANCH  23  24
BRANCH  23  31
ATOM     31  C   UNK A   0      -7.972   4.508 129.147  0.00  0.00    +0.000 C 
ATOM     32  O   UNK A   0      -8.634   5.035 128.238  0.00  0.00    +0.000 OA
ATOM     33  N   UNK A   0      -8.579   4.493 130.402  0.00  0.00    +0.000 N 
ATOM     34  H   UNK A   0      -8.071   3.958 131.093  0.00  0.00    +0.000 HD
BRANCH  33  35
ATOM     35  C   UNK A   0      -9.943   5.295 130.767  0.00  0.00    +0.000 C 
ATOM     36  C   UNK A   0     -11.209   4.457 130.363  0.00  0.00    +0.000 C 
ATOM     37  C   UNK A   0      -9.739   5.440 132.247  0.00  0.00    +0.000 C 
ATOM     38  C   UNK A   0     -10.273   6.952 130.359  0.00  0.00    +0.000 C 
ENDBRANCH  33  35
ENDBRANCH  23  31
ENDBRANCH   8  23
TORSDOF 7
ENDMDL
MODEL 5
REMARK VINA RESULT:      -7.8      2.751      4.589
REMARK  Name = CHEMBL381024
REMARK  12 active torsions:
REMARK  status: ('A' for Active; 'I' for Inactive)
REMARK    1  A    between atoms: CD1_1  and  CG_2
REMARK    2  A    between atoms: CG_2  and  CD2_3
REMARK    3  A    between atoms: CG_2  and  CB_4
REMARK    4  A    between atoms: CB_4  and  CA_5
REMARK    5  A    between atoms: C_9  and  C_10
REMARK    6  A    between atoms: N_21  and  C_22
REMARK    7  A    between atoms: C_22  and  C_23
REMARK    8  A    between atoms: C_22  and  C_30
REMARK    9  A    between atoms: N_25  and  C_26
REMARK   10  A    between atoms: C_26  and  C_27
REMARK   11  A    between atoms: C_26  and  C_28
REMARK   12  A    between atoms: C_26  and  C_29
REMARK                            x       y       z     vdW  Elec       q    Type
REMARK                         _______ _______ _______ _____ _____    ______ ____
ROOT
ATOM      1  CA  LEU A   2      -7.484   2.991 128.421  0.00  0.00    +0.000 C 
ATOM      2  C   LEU A   2      -7.939   4.341 127.808  0.00  0.00    +0.000 C 
ATOM      3  O   LEU A   2      -7.898   4.675 126.651  0.00  0.00    +0.000 OA
ATOM      4  N   UNK A   1      -8.415   5.175 128.761  0.00  0.00    +0.000 N 
ATOM      5  C   UNK A   1      -9.163   4.554 129.812  0.00  0.00    +0.000 C 
ATOM      6  C   UNK A   1      -8.248   3.635 130.627  0.00  0.00    +0.000 C 
ATOM      7  O   UNK A   1      -8.521   3.493 131.817  0.00  0.00    +0.000 OA
ATOM      8  N   LEU A   2      -7.233   2.987 129.919  0.00  0.00    +0.000 N 
ATOM      9  H   UNK A   1      -8.635   6.093 128.398  0.00  0.00    +0.000 HD
ENDROOT
BRANCH   5  10
ATOM     10  C   UNK A   1      -9.763   5.571 130.785  0.00  0.00    +0.000 C 
ATOM     11  C   UNK A   1     -11.295   5.513 130.775  0.00  0.00    +0.000 C 
ATOM     12  C   UNK A   1     -11.614   6.519 129.711  0.00  0.00    +0.000 A 
ATOM     13  C   UNK A   1     -12.751   6.584 128.930  0.00  0.00    +0.000 A 
ATOM     14  C   UNK A   1     -12.782   7.516 127.892  0.00  0.00    +0.000 A 
ATOM     15  C   UNK A   1     -11.681   8.352 127.639  0.00  0.00    +0.000 A 
ATOM     16  C   UNK A   1     -10.529   8.271 128.420  0.00  0.00    +0.000 A 
ATOM     17  C   UNK A   1     -10.516   7.359 129.462  0.00  0.00    +0.000 A 
ATOM     18  C   UNK A   1      -9.369   7.013 130.361  0.00  0.00    +0.000 C 
ENDBRANCH   5  10
BRANCH   1  19
ATOM     19  CB  LEU A   2      -6.276   2.704 127.631  0.00  0.00    +0.000 C 
BRANCH  19  21
ATOM     20  CD1 LEU A   2      -5.140   1.074 126.582  0.00  0.00    +0.000 C 
ATOM     21  CG  LEU A   2      -6.540   1.506 126.739  0.00  0.00    +0.000 C 
ATOM     22  CD2 LEU A   2      -7.270   0.172 126.990  0.00  0.00    +0.000 C 
ENDBRANCH  19  21
ENDBRANCH   1  19
BRANCH   8  23
ATOM     23  C   UNK A   0      -6.094   2.156 130.641  0.00  0.00    +0.000 C 
BRANCH  23  24
ATOM     24  C   UNK A   0      -6.343   0.598 130.588  0.00  0.00    +0.000 A 
ATOM     25  C   UNK A   0      -5.315  -0.313 130.283  0.00  0.00    +0.000 A 
ATOM     26  C   UNK A   0      -5.621  -1.649 129.945  0.00  0.00    +0.000 A 
ATOM     27  C   UNK A   0      -6.930  -2.124 130.019  0.00  0.00    +0.000 A 
ATOM     28 CL   UNK A   0      -7.326  -3.746 129.629  0.00  0.00    +0.000 Cl
ATOM     29  C   UNK A   0      -7.939  -1.282 130.419  0.00  0.00    +0.000 A 
ATOM     30  C   UNK A   0      -7.636   0.041 130.693  0.00  0.00    +0.000 A 
ENDBRANCH  23  24
BRANCH  23  31
ATOM     31  C   UNK A   0      -5.779   2.570 132.225  0.00  0.00    +0.000 C 
ATOM     32  O   UNK A   0      -6.030   1.791 133.159  0.00  0.00    +0.000 OA
ATOM     33  N   UNK A   0      -5.404   3.858 132.602  0.00  0.00    +0.000 N 
ATOM     34  H   UNK A   0      -5.094   4.434 131.831  0.00  0.00    +0.000 HD
BRANCH  33  35
ATOM     35  C   UNK A   0      -5.494   4.431 134.119  0.00  0.00    +0.000 C 
ATOM     36  C   UNK A   0      -4.329   3.858 135.004  0.00  0.00    +0.000 C 
ATOM     37  C   UNK A   0      -5.386   5.898 133.822  0.00  0.00    +0.000 C 
ATOM     38  C   UNK A   0      -6.927   4.442 135.103  0.00  0.00    +0.000 C 
ENDBRANCH  33  35
ENDBRANCH  23  31
ENDBRANCH   8  23
TORSDOF 7
ENDMDL
MODEL 6
REMARK VINA RESULT:      -7.6      2.597      3.176
REMARK  Name = CHEMBL381024
REMARK  12 active torsions:
REMARK  status: ('A' for Active; 'I' for Inactive)
REMARK    1  A    between atoms: CD1_1  and  CG_2
REMARK    2  A    between atoms: CG_2  and  CD2_3
REMARK    3  A    between atoms: CG_2  and  CB_4
REMARK    4  A    between atoms: CB_4  and  CA_5
REMARK    5  A    between atoms: C_9  and  C_10
REMARK    6  A    between atoms: N_21  and  C_22
REMARK    7  A    between atoms: C_22  and  C_23
REMARK    8  A    between atoms: C_22  and  C_30
REMARK    9  A    between atoms: N_25  and  C_26
REMARK   10  A    between atoms: C_26  and  C_27
REMARK   11  A    between atoms: C_26  and  C_28
REMARK   12  A    between atoms: C_26  and  C_29
REMARK                            x       y       z     vdW  Elec       q    Type
REMARK                         _______ _______ _______ _____ _____    ______ ____
ROOT
ATOM      1  CA  LEU A   2      -6.637   2.596 128.143  0.00  0.00    +0.000 C 
ATOM      2  C   LEU A   2      -6.465   3.396 129.460  0.00  0.00    +0.000 C 
ATOM      3  O   LEU A   2      -6.127   4.546 129.584  0.00  0.00    +0.000 OA
ATOM      4  N   UNK A   1      -6.741   2.628 130.539  0.00  0.00    +0.000 N 
ATOM      5  C   UNK A   1      -7.815   1.696 130.379  0.00  0.00    +0.000 C 
ATOM      6  C   UNK A   1      -7.438   0.644 129.331  0.00  0.00    +0.000 C 
ATOM      7  O   UNK A   1      -7.923  -0.477 129.471  0.00  0.00    +0.000 OA
ATOM      8  N   LEU A   2      -6.638   1.083 128.275  0.00  0.00    +0.000 N 
ATOM      9  H   UNK A   1      -6.550   3.102 131.412  0.00  0.00    +0.000 HD
ENDROOT
BRANCH   5  10
ATOM     10  C   UNK A   1      -8.141   0.947 131.673  0.00  0.00    +0.000 C 
ATOM     11  C   UNK A   1      -9.362   1.554 132.373  0.00  0.00    +0.000 C 
ATOM     12  C   UNK A   1      -8.709   2.568 133.262  0.00  0.00    +0.000 A 
ATOM     13  C   UNK A   1      -9.271   3.720 133.778  0.00  0.00    +0.000 A 
ATOM     14  C   UNK A   1      -8.440   4.606 134.466  0.00  0.00    +0.000 A 
ATOM     15  C   UNK A   1      -7.069   4.341 134.614  0.00  0.00    +0.000 A 
ATOM     16  C   UNK A   1      -6.503   3.185 134.078  0.00  0.00    +0.000 A 
ATOM     17  C   UNK A   1      -7.339   2.301 133.416  0.00  0.00    +0.000 A 
ATOM     18  C   UNK A   1      -6.953   1.062 132.669  0.00  0.00    +0.000 C 
ENDBRANCH   5  10
BRANCH   1  19
ATOM     19  CB  LEU A   2      -5.514   3.107 127.341  0.00  0.00    +0.000 C 
BRANCH  19  21
ATOM     20  CD1 LEU A   2      -5.279   4.896 126.004  0.00  0.00    +0.000 C 
ATOM     21  CG  LEU A   2      -6.045   3.638 126.024  0.00  0.00    +0.000 C 
ATOM     22  CD2 LEU A   2      -5.897   3.139 124.574  0.00  0.00    +0.000 C 
ENDBRANCH  19  21
ENDBRANCH   1  19
BRANCH   8  23
ATOM     23  C   UNK A   0      -6.008   0.085 127.218  0.00  0.00    +0.000 C 
BRANCH  23  24
ATOM     24  C   UNK A   0      -6.981  -0.229 126.014  0.00  0.00    +0.000 A 
ATOM     25  C   UNK A   0      -6.503  -0.525 124.724  0.00  0.00    +0.000 A 
ATOM     26  C   UNK A   0      -7.377  -0.498 123.616  0.00  0.00    +0.000 A 
ATOM     27  C   UNK A   0      -8.746  -0.297 123.787  0.00  0.00    +0.000 A 
ATOM     28 CL   UNK A   0      -9.829  -0.277 122.458  0.00  0.00    +0.000 Cl
ATOM     29  C   UNK A   0      -9.254  -0.112 125.050  0.00  0.00    +0.000 A 
ATOM     30  C   UNK A   0      -8.381  -0.083 126.124  0.00  0.00    +0.000 A 
ENDBRANCH  23  24
BRANCH  23  31
ATOM     31  C   UNK A   0      -5.457  -1.369 127.821  0.00  0.00    +0.000 C 
ATOM     32  O   UNK A   0      -6.036  -2.436 127.565  0.00  0.00    +0.000 OA
ATOM     33  N   UNK A   0      -4.451  -1.446 128.783  0.00  0.00    +0.000 N 
ATOM     34  H   UNK A   0      -3.920  -0.592 128.887  0.00  0.00    +0.000 HD
BRANCH  33  35
ATOM     35  C   UNK A   0      -4.166  -2.752 129.706  0.00  0.00    +0.000 C 
ATOM     36  C   UNK A   0      -3.223  -3.766 128.964  0.00  0.00    +0.000 C 
ATOM     37  C   UNK A   0      -3.540  -2.071 130.888  0.00  0.00    +0.000 C 
ATOM     38  C   UNK A   0      -5.382  -3.687 130.523  0.00  0.00    +0.000 C 
ENDBRANCH  33  35
ENDBRANCH  23  31
ENDBRANCH   8  23
TORSDOF 7
ENDMDL
MODEL 7
REMARK VINA RESULT:      -7.6      3.951      6.811
REMARK  Name = CHEMBL381024
REMARK  12 active torsions:
REMARK  status: ('A' for Active; 'I' for Inactive)
REMARK    1  A    between atoms: CD1_1  and  CG_2
REMARK    2  A    between atoms: CG_2  and  CD2_3
REMARK    3  A    between atoms: CG_2  and  CB_4
REMARK    4  A    between atoms: CB_4  and  CA_5
REMARK    5  A    between atoms: C_9  and  C_10
REMARK    6  A    between atoms: N_21  and  C_22
REMARK    7  A    between atoms: C_22  and  C_23
REMARK    8  A    between atoms: C_22  and  C_30
REMARK    9  A    between atoms: N_25  and  C_26
REMARK   10  A    between atoms: C_26  and  C_27
REMARK   11  A    between atoms: C_26  and  C_28
REMARK   12  A    between atoms: C_26  and  C_29
REMARK                            x       y       z     vdW  Elec       q    Type
REMARK                         _______ _______ _______ _____ _____    ______ ____
ROOT
ATOM      1  CA  LEU A   2      -6.761   3.499 131.224  0.00  0.00    +0.000 C 
ATOM      2  C   LEU A   2      -6.575   4.885 131.894  0.00  0.00    +0.000 C 
ATOM      3  O   LEU A   2      -6.949   5.232 132.986  0.00  0.00    +0.000 OA
ATOM      4  N   UNK A   1      -5.913   5.738 131.079  0.00  0.00    +0.000 N 
ATOM      5  C   UNK A   1      -4.870   5.156 130.288  0.00  0.00    +0.000 C 
ATOM      6  C   UNK A   1      -5.471   4.166 129.287  0.00  0.00    +0.000 C 
ATOM      7  O   UNK A   1      -4.877   4.027 128.219  0.00  0.00    +0.000 OA
ATOM      8  N   LEU A   2      -6.596   3.458 129.715  0.00  0.00    +0.000 N 
ATOM      9  H   UNK A   1      -5.857   6.674 131.458  0.00  0.00    +0.000 HD
ENDROOT
BRANCH   5  10
ATOM     10  C   UNK A   1      -4.095   6.200 129.481  0.00  0.00    +0.000 C 
ATOM     11  C   UNK A   1      -2.599   5.866 129.433  0.00  0.00    +0.000 C 
ATOM     12  C   UNK A   1      -2.102   6.602 130.640  0.00  0.00    +0.000 A 
ATOM     13  C   UNK A   1      -0.972   6.328 131.385  0.00  0.00    +0.000 A 
ATOM     14  C   UNK A   1      -0.771   7.048 132.564  0.00  0.00    +0.000 A 
ATOM     15  C   UNK A   1      -1.701   8.013 132.987  0.00  0.00    +0.000 A 
ATOM     16  C   UNK A   1      -2.848   8.275 132.240  0.00  0.00    +0.000 A 
ATOM     17  C   UNK A   1      -3.028   7.571 131.061  0.00  0.00    +0.000 A 
ATOM     18  C   UNK A   1      -4.219   7.595 130.153  0.00  0.00    +0.000 C 
ENDBRANCH   5  10
BRANCH   1  19
ATOM     19  CB  LEU A   2      -8.117   3.139 131.669  0.00  0.00    +0.000 C 
BRANCH  19  21
ATOM     20  CD1 LEU A   2      -9.257   1.218 131.898  0.00  0.00    +0.000 C 
ATOM     21  CG  LEU A   2      -8.052   1.849 132.463  0.00  0.00    +0.000 C 
ATOM     22  CD2 LEU A   2      -7.041   0.686 132.465  0.00  0.00    +0.000 C 
ENDBRANCH  19  21
ENDBRANCH   1  19
BRANCH   8  23
ATOM     23  C   UNK A   0      -7.441   2.540 128.739  0.00  0.00    +0.000 C 
BRANCH  23  24
ATOM     24  C   UNK A   0      -6.975   1.032 128.757  0.00  0.00    +0.000 A 
ATOM     25  C   UNK A   0      -7.888  -0.034 128.649  0.00  0.00    +0.000 A 
ATOM     26  C   UNK A   0      -7.490  -1.349 128.971  0.00  0.00    +0.000 A 
ATOM     27  C   UNK A   0      -6.163  -1.640 129.285  0.00  0.00    +0.000 A 
ATOM     28 CL   UNK A   0      -5.652  -3.233 129.663  0.00  0.00    +0.000 Cl
ATOM     29  C   UNK A   0      -5.228  -0.633 129.292  0.00  0.00    +0.000 A 
ATOM     30  C   UNK A   0      -5.640   0.662 129.032  0.00  0.00    +0.000 A 
ENDBRANCH  23  24
BRANCH  23  31
ATOM     31  C   UNK A   0      -7.514   3.035 127.149  0.00  0.00    +0.000 C 
ATOM     32  O   UNK A   0      -8.308   3.916 126.782  0.00  0.00    +0.000 OA
ATOM     33  N   UNK A   0      -6.842   2.368 126.126  0.00  0.00    +0.000 N 
ATOM     34  H   UNK A   0      -6.120   1.740 126.455  0.00  0.00    +0.000 HD
BRANCH  33  35
ATOM     35  C   UNK A   0      -7.193   2.521 124.548  0.00  0.00    +0.000 C 
ATOM     36  C   UNK A   0      -6.309   3.637 123.884  0.00  0.00    +0.000 C 
ATOM     37  C   UNK A   0      -6.873   1.125 124.101  0.00  0.00    +0.000 C 
ATOM     38  C   UNK A   0      -8.793   2.675 123.888  0.00  0.00    +0.000 C 
ENDBRANCH  33  35
ENDBRANCH  23  31
ENDBRANCH   8  23
TORSDOF 7
ENDMDL
MODEL 8
REMARK VINA RESULT:      -7.4      7.545      9.786
REMARK  Name = CHEMBL381024
REMARK  12 active torsions:
REMARK  status: ('A' for Active; 'I' for Inactive)
REMARK    1  A    between atoms: CD1_1  and  CG_2
REMARK    2  A    between atoms: CG_2  and  CD2_3
REMARK    3  A    between atoms: CG_2  and  CB_4
REMARK    4  A    between atoms: CB_4  and  CA_5
REMARK    5  A    between atoms: C_9  and  C_10
REMARK    6  A    between atoms: N_21  and  C_22
REMARK    7  A    between atoms: C_22  and  C_23
REMARK    8  A    between atoms: C_22  and  C_30
REMARK    9  A    between atoms: N_25  and  C_26
REMARK   10  A    between atoms: C_26  and  C_27
REMARK   11  A    between atoms: C_26  and  C_28
REMARK   12  A    between atoms: C_26  and  C_29
REMARK                            x       y       z     vdW  Elec       q    Type
REMARK                         _______ _______ _______ _____ _____    ______ ____
ROOT
ATOM      1  CA  LEU A   2      -3.142   7.766 135.295  0.00  0.00    +0.000 C 
ATOM      2  C   LEU A   2      -3.391   8.076 136.794  0.00  0.00    +0.000 C 
ATOM      3  O   LEU A   2      -2.847   8.909 137.473  0.00  0.00    +0.000 OA
ATOM      4  N   UNK A   1      -4.339   7.261 137.311  0.00  0.00    +0.000 N 
ATOM      5  C   UNK A   1      -5.425   6.938 136.436  0.00  0.00    +0.000 C 
ATOM      6  C   UNK A   1      -4.910   6.111 135.254  0.00  0.00    +0.000 C 
ATOM      7  O   UNK A   1      -5.693   5.302 134.761  0.00  0.00    +0.000 OA
ATOM      8  N   LEU A   2      -3.623   6.411 134.803  0.00  0.00    +0.000 N 
ATOM      9  H   UNK A   1      -4.455   7.385 138.309  0.00  0.00    +0.000 HD
ENDROOT
BRANCH   5  10
ATOM     10  C   UNK A   1      -6.509   6.109 137.128  0.00  0.00    +0.000 C 
ATOM     11  C   UNK A   1      -7.896   6.416 136.550  0.00  0.00    +0.000 C 
ATOM     12  C   UNK A   1      -8.341   7.531 137.447  0.00  0.00    +0.000 A 
ATOM     13  C   UNK A   1      -9.265   8.519 137.165  0.00  0.00    +0.000 A 
ATOM     14  C   UNK A   1      -9.424   9.552 138.090  0.00  0.00    +0.000 A 
ATOM     15  C   UNK A   1      -8.655   9.594 139.264  0.00  0.00    +0.000 A 
ATOM     16  C   UNK A   1      -7.712   8.604 139.537  0.00  0.00    +0.000 A 
ATOM     17  C   UNK A   1      -7.576   7.571 138.625  0.00  0.00    +0.000 A 
ATOM     18  C   UNK A   1      -6.568   6.463 138.640  0.00  0.00    +0.000 C 
ENDBRANCH   5  10
BRANCH   1  19
ATOM     19  CB  LEU A   2      -1.683   7.932 135.200  0.00  0.00    +0.000 C 
BRANCH  19  21
ATOM     20  CD1 LEU A   2      -0.233   8.376 133.544  0.00  0.00    +0.000 C 
ATOM     21  CG  LEU A   2      -1.373   9.034 134.206  0.00  0.00    +0.000 C 
ATOM     22  CD2 LEU A   2      -2.165   9.600 133.011  0.00  0.00    +0.000 C 
ENDBRANCH  19  21
ENDBRANCH   1  19
BRANCH   8  23
ATOM     23  C   UNK A   0      -2.877   5.527 133.721  0.00  0.00    +0.000 C 
BRANCH  23  24
ATOM     24  C   UNK A   0      -2.990   6.119 132.261  0.00  0.00    +0.000 A 
ATOM     25  C   UNK A   0      -4.176   6.709 131.784  0.00  0.00    +0.000 A 
ATOM     26  C   UNK A   0      -4.349   6.947 130.403  0.00  0.00    +0.000 A 
ATOM     27  C   UNK A   0      -3.311   6.717 129.501  0.00  0.00    +0.000 A 
ATOM     28 CL   UNK A   0      -3.490   7.014 127.822  0.00  0.00    +0.000 Cl
ATOM     29  C   UNK A   0      -2.105   6.242 129.957  0.00  0.00    +0.000 A 
ATOM     30  C   UNK A   0      -1.965   5.957 131.304  0.00  0.00    +0.000 A 
ENDBRANCH  23  24
BRANCH  23  31
ATOM     31  C   UNK A   0      -3.319   3.921 133.657  0.00  0.00    +0.000 C 
ATOM     32  O   UNK A   0      -3.832   3.432 132.638  0.00  0.00    +0.000 OA
ATOM     33  N   UNK A   0      -3.315   3.099 134.782  0.00  0.00    +0.000 N 
ATOM     34  H   UNK A   0      -2.790   3.475 135.560  0.00  0.00    +0.000 HD
BRANCH  33  35
ATOM     35  C   UNK A   0      -4.114   1.688 134.887  0.00  0.00    +0.000 C 
ATOM     36  C   UNK A   0      -3.356   0.557 134.104  0.00  0.00    +0.000 C 
ATOM     37  C   UNK A   0      -4.105   1.525 136.379  0.00  0.00    +0.000 C 
ATOM     38  C   UNK A   0      -5.812   1.472 134.585  0.00  0.00    +0.000 C 
ENDBRANCH  33  35
ENDBRANCH  23  31
ENDBRANCH   8  23
TORSDOF 7
ENDMDL
MODEL 9
REMARK VINA RESULT:      -7.3      3.336      7.275
REMARK  Name = CHEMBL381024
REMARK  12 active torsions:
REMARK  status: ('A' for Active; 'I' for Inactive)
REMARK    1  A    between atoms: CD1_1  and  CG_2
REMARK    2  A    between atoms: CG_2  and  CD2_3
REMARK    3  A    between atoms: CG_2  and  CB_4
REMARK    4  A    between atoms: CB_4  and  CA_5
REMARK    5  A    between atoms: C_9  and  C_10
REMARK    6  A    between atoms: N_21  and  C_22
REMARK    7  A    between atoms: C_22  and  C_23
REMARK    8  A    between atoms: C_22  and  C_30
REMARK    9  A    between atoms: N_25  and  C_26
REMARK   10  A    between atoms: C_26  and  C_27
REMARK   11  A    between atoms: C_26  and  C_28
REMARK   12  A    between atoms: C_26  and  C_29
REMARK                            x       y       z     vdW  Elec       q    Type
REMARK                         _______ _______ _______ _____ _____    ______ ____
ROOT
ATOM      1  CA  LEU A   2      -7.652   1.422 128.327  0.00  0.00    +0.000 C 
ATOM      2  C   LEU A   2      -8.410   0.803 127.124  0.00  0.00    +0.000 C 
ATOM      3  O   LEU A   2      -9.345   1.270 126.523  0.00  0.00    +0.000 OA
ATOM      4  N   UNK A   1      -7.894  -0.402 126.788  0.00  0.00    +0.000 N 
ATOM      5  C   UNK A   1      -6.472  -0.522 126.904  0.00  0.00    +0.000 C 
ATOM      6  C   UNK A   1      -6.060  -0.401 128.374  0.00  0.00    +0.000 C 
ATOM      7  O   UNK A   1      -5.054  -1.019 128.721  0.00  0.00    +0.000 OA
ATOM      8  N   LEU A   2      -6.824   0.461 129.163  0.00  0.00    +0.000 N 
ATOM      9  H   UNK A   1      -8.428  -0.865 126.064  0.00  0.00    +0.000 HD
ENDROOT
BRANCH   5  10
ATOM     10  C   UNK A   1      -5.955  -1.871 126.400  0.00  0.00    +0.000 C 
ATOM     11  C   UNK A   1      -5.474  -1.774 124.947  0.00  0.00    +0.000 C 
ATOM     12  C   UNK A   1      -6.732  -2.112 124.205  0.00  0.00    +0.000 A 
ATOM     13  C   UNK A   1      -7.070  -1.751 122.916  0.00  0.00    +0.000 A 
ATOM     14  C   UNK A   1      -8.358  -2.045 122.467  0.00  0.00    +0.000 A 
ATOM     15  C   UNK A   1      -9.289  -2.675 123.310  0.00  0.00    +0.000 A 
ATOM     16  C   UNK A   1      -8.948  -3.023 124.616  0.00  0.00    +0.000 A 
ATOM     17  C   UNK A   1      -7.661  -2.747 125.045  0.00  0.00    +0.000 A 
ATOM     18  C   UNK A   1      -7.098  -2.924 126.422  0.00  0.00    +0.000 C 
ENDBRANCH   5  10
BRANCH   1  19
ATOM     19  CB  LEU A   2      -8.755   2.041 129.079  0.00  0.00    +0.000 C 
BRANCH  19  21
ATOM     20  CD1 LEU A   2      -9.013   3.727 130.541  0.00  0.00    +0.000 C 
ATOM     21  CG  LEU A   2      -8.517   3.536 129.167  0.00  0.00    +0.000 C 
ATOM     22  CD2 LEU A   2      -7.226   4.379 129.163  0.00  0.00    +0.000 C 
ENDBRANCH  19  21
ENDBRANCH   1  19
BRANCH   8  23
ATOM     23  C   UNK A   0      -6.646   0.554 130.734  0.00  0.00    +0.000 C 
BRANCH  23  24
ATOM     24  C   UNK A   0      -5.759   1.781 131.180  0.00  0.00    +0.000 A 
ATOM     25  C   UNK A   0      -4.582   2.140 130.496  0.00  0.00    +0.000 A 
ATOM     26  C   UNK A   0      -3.658   3.031 131.084  0.00  0.00    +0.000 A 
ATOM     27  C   UNK A   0      -3.944   3.663 132.293  0.00  0.00    +0.000 A 
ATOM     28 CL   UNK A   0      -2.845   4.762 133.019  0.00  0.00    +0.000 Cl
ATOM     29  C   UNK A   0      -5.135   3.412 132.929  0.00  0.00    +0.000 A 
ATOM     30  C   UNK A   0      -6.008   2.493 132.373  0.00  0.00    +0.000 A 
ENDBRANCH  23  24
BRANCH  23  31
ATOM     31  C   UNK A   0      -6.049  -0.810 131.484  0.00  0.00    +0.000 C 
ATOM     32  O   UNK A   0      -5.072  -0.751 132.248  0.00  0.00    +0.000 OA
ATOM     33  N   UNK A   0      -6.478  -2.094 131.156  0.00  0.00    +0.000 N 
ATOM     34  H   UNK A   0      -7.342  -2.113 130.630  0.00  0.00    +0.000 HD
BRANCH  33  35
ATOM     35  C   UNK A   0      -5.666  -3.452 131.522  0.00  0.00    +0.000 C 
ATOM     36  C   UNK A   0      -6.096  -4.000 132.930  0.00  0.00    +0.000 C 
ATOM     37  C   UNK A   0      -6.100  -4.303 130.364  0.00  0.00    +0.000 C 
ATOM     38  C   UNK A   0      -3.944  -3.655 131.398  0.00  0.00    +0.000 C 
ENDBRANCH  33  35
ENDBRANCH  23  31
ENDBRANCH   8  23
TORSDOF 7
ENDMDL
