MODEL 1
REMARK VINA RESULT:      -8.9      0.000      0.000
REMARK  Name = CHEMBL3814617
REMARK  24 active torsions:
REMARK  status: ('A' for Active; 'I' for Inactive)
REMARK    1  A    between atoms: C_1  and  C_2
REMARK    2  A    between atoms: C_2  and  C_3
REMARK    3  A    between atoms: C_3  and  C_4
REMARK    4  A    between atoms: C_3  and  C_5
REMARK    5  A    between atoms: C_9  and  C_10
REMARK    6  A    between atoms: C_10  and  C_11
REMARK    7  A    between atoms: C_14  and  O_15
REMARK    8  A    between atoms: C_21  and  N_22
REMARK    9  A    between atoms: C_27  and  C_28
REMARK   10  A    between atoms: C_34  and  C_35
REMARK   11  A    between atoms: N_37  and  C_38
REMARK   12  A    between atoms: C_38  and  C_39
REMARK   13  A    between atoms: C_38  and  C_43
REMARK   14  A    between atoms: C_39  and  C_40
REMARK   15  A    between atoms: C_40  and  C_41
REMARK   16  A    between atoms: C_40  and  C_42
REMARK   17  A    between atoms: N_45  and  C_46
REMARK   18  A    between atoms: C_46  and  C_47
REMARK   19  A    between atoms: C_53  and  C_54
REMARK   20  A    between atoms: C_54  and  C_55
REMARK   21  A    between atoms: N_58  and  C_59
REMARK   22  A    between atoms: C_62  and  C_63
REMARK   23  A    between atoms: C_63  and  C_64
REMARK   24  A    between atoms: C_64  and  C_65
REMARK                            x       y       z     vdW  Elec       q    Type
REMARK                         _______ _______ _______ _____ _____    ______ ____
ROOT
ATOM      1  C   UNL     1      -6.488   0.767 128.323  0.00  0.00    +0.000 C 
ATOM      2  N   UNL     1      -6.812   1.472 126.206  0.00  0.00    +0.000 N 
ATOM      3  C   UNL     1      -7.226   2.171 124.570  0.00  0.00    +0.000 C 
ATOM      4  O   UNL     1      -8.025   3.027 123.659  0.00  0.00    +0.000 OA
ATOM      5  C   UNL     1      -6.739   1.477 123.451  0.00  0.00    +0.000 C 
ATOM      6  N   UNL     1      -6.041   2.947 123.800  0.00  0.00    +0.000 N 
ATOM      7  C   UNL     1      -6.357   4.072 124.755  0.00  0.00    +0.000 C 
ATOM      8  O   UNL     1      -5.353   4.635 125.193  0.00  0.00    +0.000 OA
ATOM      9  C   UNL     1      -7.991   4.289 125.465  0.00  0.00    +0.000 C 
ATOM     10  C   UNL     1      -7.972   3.898 126.905  0.00  0.00    +0.000 C 
ATOM     11  S   UNL     1      -6.524   4.869 127.512  0.00  0.00    +0.000 S 
ATOM     12  S   UNL     1      -5.771   4.155 129.214  0.00  0.00    +0.000 S 
ATOM     13  C   UNL     1      -5.670   5.445 130.784  0.00  0.00    +0.000 C 
ATOM     14  C   UNL     1      -5.922   5.072 132.214  0.00  0.00    +0.000 C 
ATOM     15  N   UNL     1      -7.406   5.347 132.702  0.00  0.00    +0.000 N 
ATOM     16  C   UNL     1      -8.661   4.880 132.339  0.00  0.00    +0.000 C 
ATOM     17  O   UNL     1      -9.765   5.038 132.827  0.00  0.00    +0.000 OA
ATOM     18  C   UNL     1      -8.778   4.007 131.223  0.00  0.00    +0.000 C 
ATOM     19  N   UNL     1      -8.950   2.340 131.834  0.00  0.00    +0.000 N 
ATOM     20  C   UNL     1     -10.289   2.008 131.874  0.00  0.00    +0.000 C 
ATOM     21  C   UNL     1      -8.435   0.979 130.972  0.00  0.00    +0.000 C 
ATOM     22  O   UNL     1      -7.608   0.988 129.922  0.00  0.00    +0.000 OA
ATOM     23  C   UNL     1      -8.400  -0.392 131.784  0.00  0.00    +0.000 C 
ATOM     24  N   UNL     1      -8.044  -1.152 130.376  0.00  0.00    +0.000 N 
ATOM     25  C   UNL     1      -7.089  -0.888 129.106  0.00  0.00    +0.000 C 
ATOM     26  O   UNL     1      -6.334  -1.899 129.051  0.00  0.00    +0.000 OA
ATOM     27  H   UNL     1      -7.685   2.140 125.727  0.00  0.00    +0.000 HD
ATOM     28  H   UNL     1      -5.112   2.916 123.479  0.00  0.00    +0.000 HD
ATOM     29  H   UNL     1      -7.494   6.009 133.457  0.00  0.00    +0.000 HD
ATOM     30  H   UNL     1      -8.698  -1.891 130.287  0.00  0.00    +0.000 HD
ENDROOT
BRANCH  14  31
ATOM     31  C   UNL     1      -4.959   5.963 133.006  0.00  0.00    +0.000 C 
ATOM     32  O   UNL     1      -4.632   6.968 132.377  0.00  0.00    +0.000 OA
ATOM     33  N   UNL     1      -4.653   5.601 134.347  0.00  0.00    +0.000 N 
ATOM     34  C   UNL     1      -4.243   4.297 134.823  0.00  0.00    +0.000 C 
ATOM     35  C   UNL     1      -4.829   4.203 136.193  0.00  0.00    +0.000 C 
ATOM     36  C   UNL     1      -4.447   5.534 136.754  0.00  0.00    +0.000 C 
ATOM     37  C   UNL     1      -4.431   6.480 135.551  0.00  0.00    +0.000 C 
BRANCH  37  38
ATOM     38  C   UNL     1      -2.953   6.951 135.739  0.00  0.00    +0.000 C 
ATOM     39  O   UNL     1      -2.294   6.453 136.662  0.00  0.00    +0.000 OA
ATOM     40  N   UNL     1      -2.366   7.659 134.652  0.00  0.00    +0.000 N 
ATOM     41  H   UNL     1      -2.923   8.152 133.954  0.00  0.00    +0.000 HD
BRANCH  40  42
ATOM     42  C   UNL     1      -0.881   7.665 134.400  0.00  0.00    +0.000 C 
BRANCH  42  43
ATOM     43  C   UNL     1      -0.372   9.134 134.244  0.00  0.00    +0.000 C 
ATOM     44  O   UNL     1       0.394   9.613 135.082  0.00  0.00    +0.000 OA
ATOM     45  N   UNL     1      -0.804   9.866 133.153  0.00  0.00    +0.000 N 
ATOM     46  H   UNL     1      -1.433   9.465 132.482  0.00  0.00    +0.000 HD
BRANCH  45  47
ATOM     47  C   UNL     1      -0.368  11.246 132.919  0.00  0.00    +0.000 C 
BRANCH  47  48
ATOM     48  C   UNL     1      -1.497  12.218 132.516  0.00  0.00    +0.000 C 
ATOM     49  N   UNL     1      -1.349  12.920 131.342  0.00  0.00    +0.000 N 
ATOM     50  O   UNL     1      -2.500  12.370 133.211  0.00  0.00    +0.000 OA
ATOM     51  H   UNL     1      -0.570  12.863 130.713  0.00  0.00    +0.000 HD
ATOM     52  H   UNL     1      -2.075  13.566 131.052  0.00  0.00    +0.000 HD
ENDBRANCH  47  48
ENDBRANCH  45  47
ENDBRANCH  42  43
BRANCH  42  53
ATOM     53  C   UNL     1      -0.425   6.858 133.153  0.00  0.00    +0.000 C 
BRANCH  53  54
ATOM     54  C   UNL     1      -1.558   6.138 132.437  0.00  0.00    +0.000 C 
ATOM     55  C   UNL     1      -1.450   6.293 130.968  0.00  0.00    +0.000 C 
ATOM     56  C   UNL     1      -1.461   4.661 132.430  0.00  0.00    +0.000 C 
ENDBRANCH  53  54
ENDBRANCH  42  53
ENDBRANCH  40  42
ENDBRANCH  37  38
ENDBRANCH  14  31
BRANCH   9  57
ATOM     57  N   UNL     1      -9.353   3.598 125.010  0.00  0.00    +0.000 NA
ATOM     58  H   UNL     1     -10.024   3.387 125.753  0.00  0.00    +0.000 HD
ATOM     59  H   UNL     1      -9.067   2.594 125.090  0.00  0.00    +0.000 HD
ENDBRANCH   9  57
BRANCH   1  60
ATOM     60  C   UNL     1      -5.524   0.680 130.152  0.00  0.00    +0.000 C 
ATOM     61  C   UNL     1      -4.479   0.169 131.745  0.00  0.00    +0.000 C 
BRANCH  60  63
ATOM     62  C   UNL     1      -3.478   2.047 128.942  0.00  0.00    +0.000 C 
ATOM     63  C   UNL     1      -3.765   0.500 129.941  0.00  0.00    +0.000 C 
ENDBRANCH  60  63
ENDBRANCH   1  60
BRANCH  18  64
ATOM     64  C   UNL     1      -9.242   4.286 129.761  0.00  0.00    +0.000 C 
BRANCH  64  65
ATOM     65  C   UNL     1      -9.943   5.626 129.526  0.00  0.00    +0.000 C 
ATOM     66  N   UNL     1     -11.179   5.821 130.024  0.00  0.00    +0.000 N 
ATOM     67  O   UNL     1      -9.360   6.593 129.066  0.00  0.00    +0.000 OA
ATOM     68  H   UNL     1     -11.120   5.217 130.798  0.00  0.00    +0.000 HD
ATOM     69  H   UNL     1     -11.395   6.705 130.540  0.00  0.00    +0.000 HD
ENDBRANCH  64  65
ENDBRANCH  18  64
BRANCH   5  70
ATOM     70  C   UNL     1      -8.033   0.749 124.207  0.00  0.00    +0.000 C 
BRANCH  70  71
ATOM     71  C   UNL     1      -8.102  -0.664 124.558  0.00  0.00    +0.000 A 
ATOM     72  C   UNL     1      -8.919  -1.260 125.495  0.00  0.00    +0.000 A 
ATOM     73  C   UNL     1      -8.895  -2.638 125.542  0.00  0.00    +0.000 A 
ATOM     74  C   UNL     1      -8.008  -3.332 124.716  0.00  0.00    +0.000 A 
ATOM     75  C   UNL     1      -7.098  -2.685 123.904  0.00  0.00    +0.000 A 
ATOM     76  C   UNL     1      -7.116  -1.341 123.847  0.00  0.00    +0.000 A 
BRANCH  74  77
ATOM     77  O   UNL     1      -7.947  -4.685 124.637  0.00  0.00    +0.000 OA
ATOM     78  H   UNL     1      -7.125  -4.968 124.215  0.00  0.00    +0.000 HD
ENDBRANCH  74  77
ENDBRANCH  70  71
ENDBRANCH   5  70
BRANCH  23  79
ATOM     79  C   UNL     1      -7.458  -0.758 133.105  0.00  0.00    +0.000 C 
BRANCH  79  80
ATOM     80  C   UNL     1      -7.498  -2.200 133.691  0.00  0.00    +0.000 C 
BRANCH  80  81
ATOM     81  C   UNL     1      -6.638  -3.242 133.072  0.00  0.00    +0.000 C 
ATOM     82  N   UNL     1      -6.482  -4.370 133.802  0.00  0.00    +0.000 N 
ATOM     83  O   UNL     1      -6.047  -3.038 132.014  0.00  0.00    +0.000 OA
ATOM     84  H   UNL     1      -6.874  -4.512 134.719  0.00  0.00    +0.000 HD
ATOM     85  H   UNL     1      -5.974  -5.130 133.384  0.00  0.00    +0.000 HD
ENDBRANCH  80  81
ENDBRANCH  79  80
ENDBRANCH  23  79
TORSDOF 19
ENDMDL
MODEL 2
REMARK VINA RESULT:      -8.8      3.161      6.625
REMARK  Name = CHEMBL3814617
REMARK  24 active torsions:
REMARK  status: ('A' for Active; 'I' for Inactive)
REMARK    1  A    between atoms: C_1  and  C_2
REMARK    2  A    between atoms: C_2  and  C_3
REMARK    3  A    between atoms: C_3  and  C_4
REMARK    4  A    between atoms: C_3  and  C_5
REMARK    5  A    between atoms: C_9  and  C_10
REMARK    6  A    between atoms: C_10  and  C_11
REMARK    7  A    between atoms: C_14  and  O_15
REMARK    8  A    between atoms: C_21  and  N_22
REMARK    9  A    between atoms: C_27  and  C_28
REMARK   10  A    between atoms: C_34  and  C_35
REMARK   11  A    between atoms: N_37  and  C_38
REMARK   12  A    between atoms: C_38  and  C_39
REMARK   13  A    between atoms: C_38  and  C_43
REMARK   14  A    between atoms: C_39  and  C_40
REMARK   15  A    between atoms: C_40  and  C_41
REMARK   16  A    between atoms: C_40  and  C_42
REMARK   17  A    between atoms: N_45  and  C_46
REMARK   18  A    between atoms: C_46  and  C_47
REMARK   19  A    between atoms: C_53  and  C_54
REMARK   20  A    between atoms: C_54  and  C_55
REMARK   21  A    between atoms: N_58  and  C_59
REMARK   22  A    between atoms: C_62  and  C_63
REMARK   23  A    between atoms: C_63  and  C_64
REMARK   24  A    between atoms: C_64  and  C_65
REMARK                            x       y       z     vdW  Elec       q    Type
REMARK                         _______ _______ _______ _____ _____    ______ ____
ROOT
ATOM      1  C   UNL     1      -7.492   1.875 131.401  0.00  0.00    +0.000 C 
ATOM      2  N   UNL     1      -6.866  -0.272 131.112  0.00  0.00    +0.000 N 
ATOM      3  C   UNL     1      -6.195  -1.935 130.763  0.00  0.00    +0.000 C 
ATOM      4  O   UNL     1      -5.241  -2.869 130.115  0.00  0.00    +0.000 OA
ATOM      5  C   UNL     1      -7.047  -3.020 131.020  0.00  0.00    +0.000 C 
ATOM      6  N   UNL     1      -5.748  -2.812 132.040  0.00  0.00    +0.000 N 
ATOM      7  C   UNL     1      -4.525  -1.928 132.033  0.00  0.00    +0.000 C 
ATOM      8  O   UNL     1      -4.171  -1.578 133.159  0.00  0.00    +0.000 OA
ATOM      9  C   UNL     1      -3.909  -1.164 130.531  0.00  0.00    +0.000 C 
ATOM     10  C   UNL     1      -4.205   0.298 130.550  0.00  0.00    +0.000 C 
ATOM     11  S   UNL     1      -3.541   0.768 132.208  0.00  0.00    +0.000 S 
ATOM     12  S   UNL     1      -4.299   2.482 132.888  0.00  0.00    +0.000 S 
ATOM     13  C   UNL     1      -2.968   3.947 133.360  0.00  0.00    +0.000 C 
ATOM     14  C   UNL     1      -3.187   5.411 133.119  0.00  0.00    +0.000 C 
ATOM     15  N   UNL     1      -2.562   5.943 131.762  0.00  0.00    +0.000 N 
ATOM     16  C   UNL     1      -2.762   5.672 130.416  0.00  0.00    +0.000 C 
ATOM     17  O   UNL     1      -2.334   6.196 129.404  0.00  0.00    +0.000 OA
ATOM     18  C   UNL     1      -3.655   4.629 130.047  0.00  0.00    +0.000 C 
ATOM     19  N   UNL     1      -5.201   5.367 129.553  0.00  0.00    +0.000 N 
ATOM     20  C   UNL     1      -5.227   5.492 128.180  0.00  0.00    +0.000 C 
ATOM     21  C   UNL     1      -6.693   4.586 129.708  0.00  0.00    +0.000 C 
ATOM     22  O   UNL     1      -6.931   3.502 130.454  0.00  0.00    +0.000 OA
ATOM     23  C   UNL     1      -7.985   5.493 129.494  0.00  0.00    +0.000 C 
ATOM     24  N   UNL     1      -8.891   4.130 129.591  0.00  0.00    +0.000 N 
ATOM     25  C   UNL     1      -8.923   2.803 130.503  0.00  0.00    +0.000 C 
ATOM     26  O   UNL     1     -10.077   2.789 131.016  0.00  0.00    +0.000 OA
ATOM     27  H   UNL     1      -6.052  -0.759 130.378  0.00  0.00    +0.000 HD
ATOM     28  H   UNL     1      -6.003  -3.171 132.919  0.00  0.00    +0.000 HD
ATOM     29  H   UNL     1      -1.852   6.651 131.865  0.00  0.00    +0.000 HD
ATOM     30  H   UNL     1      -9.471   4.126 128.789  0.00  0.00    +0.000 HD
ENDROOT
BRANCH  14  31
ATOM     31  C   UNL     1      -2.484   6.092 134.299  0.00  0.00    +0.000 C 
ATOM     32  O   UNL     1      -1.268   6.178 134.128  0.00  0.00    +0.000 OA
ATOM     33  N   UNL     1      -3.284   6.615 135.351  0.00  0.00    +0.000 N 
ATOM     34  C   UNL     1      -4.353   5.934 136.051  0.00  0.00    +0.000 C 
ATOM     35  C   UNL     1      -5.328   7.017 136.378  0.00  0.00    +0.000 C 
ATOM     36  C   UNL     1      -4.412   8.065 136.921  0.00  0.00    +0.000 C 
ATOM     37  C   UNL     1      -3.094   7.867 136.169  0.00  0.00    +0.000 C 
BRANCH  37  38
ATOM     38  C   UNL     1      -2.211   7.674 137.444  0.00  0.00    +0.000 C 
ATOM     39  O   UNL     1      -2.423   8.409 138.417  0.00  0.00    +0.000 OA
ATOM     40  N   UNL     1      -1.463   6.465 137.524  0.00  0.00    +0.000 N 
ATOM     41  H   UNL     1      -1.208   5.922 136.700  0.00  0.00    +0.000 HD
BRANCH  40  42
ATOM     42  C   UNL     1      -1.061   5.850 138.840  0.00  0.00    +0.000 C 
BRANCH  42  43
ATOM     43  C   UNL     1       0.393   5.287 138.743  0.00  0.00    +0.000 C 
ATOM     44  O   UNL     1       0.764   4.400 139.514  0.00  0.00    +0.000 OA
ATOM     45  N   UNL     1       1.236   5.808 137.778  0.00  0.00    +0.000 N 
ATOM     46  H   UNL     1       0.922   6.535 137.160  0.00  0.00    +0.000 HD
BRANCH  45  47
ATOM     47  C   UNL     1       2.612   5.331 137.604  0.00  0.00    +0.000 C 
BRANCH  47  48
ATOM     48  C   UNL     1       3.576   6.361 136.979  0.00  0.00    +0.000 C 
ATOM     49  N   UNL     1       3.509   7.658 137.433  0.00  0.00    +0.000 N 
ATOM     50  O   UNL     1       4.382   6.047 136.106  0.00  0.00    +0.000 OA
ATOM     51  H   UNL     1       2.887   8.006 138.139  0.00  0.00    +0.000 HD
ATOM     52  H   UNL     1       4.131   8.357 137.041  0.00  0.00    +0.000 HD
ENDBRANCH  47  48
ENDBRANCH  45  47
ENDBRANCH  42  43
BRANCH  42  53
ATOM     53  C   UNL     1      -1.991   4.711 139.341  0.00  0.00    +0.000 C 
BRANCH  53  54
ATOM     54  C   UNL     1      -2.936   5.133 140.457  0.00  0.00    +0.000 C 
ATOM     55  C   UNL     1      -2.413   6.311 141.187  0.00  0.00    +0.000 C 
ATOM     56  C   UNL     1      -4.186   5.788 140.010  0.00  0.00    +0.000 C 
ENDBRANCH  53  54
ENDBRANCH  42  53
ENDBRANCH  40  42
ENDBRANCH  37  38
ENDBRANCH  14  31
BRANCH   9  57
ATOM     57  N   UNL     1      -4.309  -1.506 129.026  0.00  0.00    +0.000 NA
ATOM     58  H   UNL     1      -3.538  -1.742 128.395  0.00  0.00    +0.000 HD
ATOM     59  H   UNL     1      -4.249  -0.545 128.614  0.00  0.00    +0.000 HD
ENDBRANCH   9  57
BRANCH   1  60
ATOM     60  C   UNL     1      -7.678   3.660 132.431  0.00  0.00    +0.000 C 
ATOM     61  C   UNL     1      -8.307   5.237 133.434  0.00  0.00    +0.000 C 
BRANCH  60  63
ATOM     62  C   UNL     1      -6.586   3.093 134.882  0.00  0.00    +0.000 C 
ATOM     63  C   UNL     1      -8.250   3.384 134.094  0.00  0.00    +0.000 C 
ENDBRANCH  60  63
ENDBRANCH   1  60
BRANCH  18  64
ATOM     64  C   UNL     1      -3.371   3.173 129.568  0.00  0.00    +0.000 C 
BRANCH  64  65
ATOM     65  C   UNL     1      -3.014   3.013 128.088  0.00  0.00    +0.000 C 
ATOM     66  N   UNL     1      -3.750   2.190 127.317  0.00  0.00    +0.000 N 
ATOM     67  O   UNL     1      -2.208   3.738 127.532  0.00  0.00    +0.000 OA
ATOM     68  H   UNL     1      -4.603   2.261 127.802  0.00  0.00    +0.000 HD
ATOM     69  H   UNL     1      -4.081   2.518 126.381  0.00  0.00    +0.000 HD
ENDBRANCH  64  65
ENDBRANCH  18  64
BRANCH   5  70
ATOM     70  C   UNL     1      -7.424  -2.155 129.646  0.00  0.00    +0.000 C 
BRANCH  70  71
ATOM     71  C   UNL     1      -8.115  -2.702 128.485  0.00  0.00    +0.000 A 
ATOM     72  C   UNL     1      -8.859  -3.860 128.416  0.00  0.00    +0.000 A 
ATOM     73  C   UNL     1      -9.531  -4.087 127.234  0.00  0.00    +0.000 A 
ATOM     74  C   UNL     1      -9.360  -3.196 126.171  0.00  0.00    +0.000 A 
ATOM     75  C   UNL     1      -8.482  -2.132 126.236  0.00  0.00    +0.000 A 
ATOM     76  C   UNL     1      -7.826  -1.899 127.386  0.00  0.00    +0.000 A 
BRANCH  74  77
ATOM     77  O   UNL     1     -10.020  -3.290 124.990  0.00  0.00    +0.000 OA
ATOM     78  H   UNL     1     -10.844  -2.786 125.014  0.00  0.00    +0.000 HD
ENDBRANCH  74  77
ENDBRANCH  70  71
ENDBRANCH   5  70
BRANCH  23  79
ATOM     79  C   UNL     1      -8.468   6.794 130.411  0.00  0.00    +0.000 C 
BRANCH  79  80
ATOM     80  C   UNL     1      -9.963   7.230 130.384  0.00  0.00    +0.000 C 
BRANCH  80  81
ATOM     81  C   UNL     1     -11.010   6.177 130.451  0.00  0.00    +0.000 C 
ATOM     82  N   UNL     1     -11.287   5.716 131.692  0.00  0.00    +0.000 N 
ATOM     83  O   UNL     1     -11.512   5.707 129.432  0.00  0.00    +0.000 OA
ATOM     84  H   UNL     1     -10.810   6.015 132.529  0.00  0.00    +0.000 HD
ATOM     85  H   UNL     1     -12.044   5.062 131.790  0.00  0.00    +0.000 HD
ENDBRANCH  80  81
ENDBRANCH  79  80
ENDBRANCH  23  79
TORSDOF 19
ENDMDL
MODEL 3
REMARK VINA RESULT:      -8.7      2.911      6.836
REMARK  Name = CHEMBL3814617
REMARK  24 active torsions:
REMARK  status: ('A' for Active; 'I' for Inactive)
REMARK    1  A    between atoms: C_1  and  C_2
REMARK    2  A    between atoms: C_2  and  C_3
REMARK    3  A    between atoms: C_3  and  C_4
REMARK    4  A    between atoms: C_3  and  C_5
REMARK    5  A    between atoms: C_9  and  C_10
REMARK    6  A    between atoms: C_10  and  C_11
REMARK    7  A    between atoms: C_14  and  O_15
REMARK    8  A    between atoms: C_21  and  N_22
REMARK    9  A    between atoms: C_27  and  C_28
REMARK   10  A    between atoms: C_34  and  C_35
REMARK   11  A    between atoms: N_37  and  C_38
REMARK   12  A    between atoms: C_38  and  C_39
REMARK   13  A    between atoms: C_38  and  C_43
REMARK   14  A    between atoms: C_39  and  C_40
REMARK   15  A    between atoms: C_40  and  C_41
REMARK   16  A    between atoms: C_40  and  C_42
REMARK   17  A    between atoms: N_45  and  C_46
REMARK   18  A    between atoms: C_46  and  C_47
REMARK   19  A    between atoms: C_53  and  C_54
REMARK   20  A    between atoms: C_54  and  C_55
REMARK   21  A    between atoms: N_58  and  C_59
REMARK   22  A    between atoms: C_62  and  C_63
REMARK   23  A    between atoms: C_63  and  C_64
REMARK   24  A    between atoms: C_64  and  C_65
REMARK                            x       y       z     vdW  Elec       q    Type
REMARK                         _______ _______ _______ _____ _____    ______ ____
ROOT
ATOM      1  C   UNL     1      -7.606   1.939 131.441  0.00  0.00    +0.000 C 
ATOM      2  N   UNL     1      -6.910  -0.193 131.206  0.00  0.00    +0.000 N 
ATOM      3  C   UNL     1      -6.177  -1.839 130.911  0.00  0.00    +0.000 C 
ATOM      4  O   UNL     1      -5.158  -2.752 130.335  0.00  0.00    +0.000 OA
ATOM      5  C   UNL     1      -7.018  -2.944 131.115  0.00  0.00    +0.000 C 
ATOM      6  N   UNL     1      -5.797  -2.701 132.220  0.00  0.00    +0.000 N 
ATOM      7  C   UNL     1      -4.598  -1.788 132.292  0.00  0.00    +0.000 C 
ATOM      8  O   UNL     1      -4.330  -1.426 133.438  0.00  0.00    +0.000 OA
ATOM      9  C   UNL     1      -3.900  -1.013 130.832  0.00  0.00    +0.000 C 
ATOM     10  C   UNL     1      -4.231   0.441 130.824  0.00  0.00    +0.000 C 
ATOM     11  S   UNL     1      -3.694   0.932 132.521  0.00  0.00    +0.000 S 
ATOM     12  S   UNL     1      -4.537   2.628 133.140  0.00  0.00    +0.000 S 
ATOM     13  C   UNL     1      -3.278   4.127 133.695  0.00  0.00    +0.000 C 
ATOM     14  C   UNL     1      -3.515   5.584 133.433  0.00  0.00    +0.000 C 
ATOM     15  N   UNL     1      -2.812   6.128 132.119  0.00  0.00    +0.000 N 
ATOM     16  C   UNL     1      -2.912   5.848 130.764  0.00  0.00    +0.000 C 
ATOM     17  O   UNL     1      -2.430   6.379 129.781  0.00  0.00    +0.000 OA
ATOM     18  C   UNL     1      -3.753   4.782 130.339  0.00  0.00    +0.000 C 
ATOM     19  N   UNL     1      -5.280   5.481 129.738  0.00  0.00    +0.000 N 
ATOM     20  C   UNL     1      -5.214   5.601 128.365  0.00  0.00    +0.000 C 
ATOM     21  C   UNL     1      -6.759   4.664 129.794  0.00  0.00    +0.000 C 
ATOM     22  O   UNL     1      -7.022   3.577 130.527  0.00  0.00    +0.000 OA
ATOM     23  C   UNL     1      -8.055   5.539 129.488  0.00  0.00    +0.000 C 
ATOM     24  N   UNL     1      -8.932   4.154 129.530  0.00  0.00    +0.000 N 
ATOM     25  C   UNL     1      -8.995   2.829 130.444  0.00  0.00    +0.000 C 
ATOM     26  O   UNL     1     -10.180   2.789 130.877  0.00  0.00    +0.000 OA
ATOM     27  H   UNL     1      -6.037  -0.662 130.532  0.00  0.00    +0.000 HD
ATOM     28  H   UNL     1      -6.102  -3.064 133.081  0.00  0.00    +0.000 HD
ATOM     29  H   UNL     1      -2.127   6.853 132.267  0.00  0.00    +0.000 HD
ATOM     30  H   UNL     1      -9.456   4.133 128.690  0.00  0.00    +0.000 HD
ENDROOT
BRANCH  14  31
ATOM     31  C   UNL     1      -2.911   6.286 134.654  0.00  0.00    +0.000 C 
ATOM     32  O   UNL     1      -3.065   5.635 135.687  0.00  0.00    +0.000 OA
ATOM     33  N   UNL     1      -2.185   7.491 134.450  0.00  0.00    +0.000 N 
ATOM     34  C   UNL     1      -2.610   8.642 133.681  0.00  0.00    +0.000 C 
ATOM     35  C   UNL     1      -1.346   9.185 133.101  0.00  0.00    +0.000 C 
ATOM     36  C   UNL     1      -0.459   9.177 134.303  0.00  0.00    +0.000 C 
ATOM     37  C   UNL     1      -0.946   7.994 135.145  0.00  0.00    +0.000 C 
BRANCH  37  38
ATOM     38  C   UNL     1      -1.226   8.825 136.438  0.00  0.00    +0.000 C 
ATOM     39  O   UNL     1      -0.524   9.822 136.656  0.00  0.00    +0.000 OA
ATOM     40  N   UNL     1      -2.466   8.584 137.094  0.00  0.00    +0.000 N 
ATOM     41  H   UNL     1      -2.985   7.713 136.984  0.00  0.00    +0.000 HD
BRANCH  40  42
ATOM     42  C   UNL     1      -3.151   9.628 137.938  0.00  0.00    +0.000 C 
BRANCH  42  43
ATOM     43  C   UNL     1      -4.521   9.083 138.454  0.00  0.00    +0.000 C 
ATOM     44  O   UNL     1      -4.736   9.002 139.664  0.00  0.00    +0.000 OA
ATOM     45  N   UNL     1      -5.468   8.699 137.522  0.00  0.00    +0.000 N 
ATOM     46  H   UNL     1      -5.276   8.764 136.538  0.00  0.00    +0.000 HD
BRANCH  45  47
ATOM     47  C   UNL     1      -6.786   8.189 137.913  0.00  0.00    +0.000 C 
BRANCH  47  48
ATOM     48  C   UNL     1      -7.066   6.733 137.485  0.00  0.00    +0.000 C 
ATOM     49  N   UNL     1      -8.282   6.461 136.900  0.00  0.00    +0.000 N 
ATOM     50  O   UNL     1      -6.241   5.838 137.655  0.00  0.00    +0.000 OA
ATOM     51  H   UNL     1      -9.014   7.124 136.723  0.00  0.00    +0.000 HD
ATOM     52  H   UNL     1      -8.494   5.514 136.608  0.00  0.00    +0.000 HD
ENDBRANCH  47  48
ENDBRANCH  45  47
ENDBRANCH  42  43
BRANCH  42  53
ATOM     53  C   UNL     1      -3.406  10.983 137.223  0.00  0.00    +0.000 C 
BRANCH  53  54
ATOM     54  C   UNL     1      -2.881  12.191 137.985  0.00  0.00    +0.000 C 
ATOM     55  C   UNL     1      -3.969  12.871 138.727  0.00  0.00    +0.000 C 
ATOM     56  C   UNL     1      -2.070  11.877 139.183  0.00  0.00    +0.000 C 
ENDBRANCH  53  54
ENDBRANCH  42  53
ENDBRANCH  40  42
ENDBRANCH  37  38
ENDBRANCH  14  31
BRANCH   9  57
ATOM     57  N   UNL     1      -4.187  -1.370 129.305  0.00  0.00    +0.000 NA
ATOM     58  H   UNL     1      -3.724  -2.206 128.940  0.00  0.00    +0.000 HD
ATOM     59  H   UNL     1      -3.406  -0.836 128.858  0.00  0.00    +0.000 HD
ENDBRANCH   9  57
BRANCH   1  60
ATOM     60  C   UNL     1      -7.905   3.722 132.448  0.00  0.00    +0.000 C 
ATOM     61  C   UNL     1      -8.633   5.272 133.427  0.00  0.00    +0.000 C 
BRANCH  60  63
ATOM     62  C   UNL     1      -6.838   3.655 134.974  0.00  0.00    +0.000 C 
ATOM     63  C   UNL     1      -8.475   3.433 134.110  0.00  0.00    +0.000 C 
ENDBRANCH  60  63
ENDBRANCH   1  60
BRANCH  18  64
ATOM     64  C   UNL     1      -3.402   3.332 129.888  0.00  0.00    +0.000 C 
BRANCH  64  65
ATOM     65  C   UNL     1      -3.058   3.157 128.407  0.00  0.00    +0.000 C 
ATOM     66  N   UNL     1      -3.762   2.282 127.665  0.00  0.00    +0.000 N 
ATOM     67  O   UNL     1      -2.297   3.910 127.823  0.00  0.00    +0.000 OA
ATOM     68  H   UNL     1      -4.611   2.321 128.160  0.00  0.00    +0.000 HD
ATOM     69  H   UNL     1      -4.123   2.572 126.727  0.00  0.00    +0.000 HD
ENDBRANCH  64  65
ENDBRANCH  18  64
BRANCH   5  70
ATOM     70  C   UNL     1      -7.321  -2.093 129.714  0.00  0.00    +0.000 C 
BRANCH  70  71
ATOM     71  C   UNL     1      -8.014  -2.630 128.550  0.00  0.00    +0.000 A 
ATOM     72  C   UNL     1      -8.727  -3.807 128.463  0.00  0.00    +0.000 A 
ATOM     73  C   UNL     1      -9.410  -4.023 127.285  0.00  0.00    +0.000 A 
ATOM     74  C   UNL     1      -9.280  -3.103 126.243  0.00  0.00    +0.000 A 
ATOM     75  C   UNL     1      -8.431  -2.017 126.321  0.00  0.00    +0.000 A 
ATOM     76  C   UNL     1      -7.763  -1.794 127.467  0.00  0.00    +0.000 A 
BRANCH  74  77
ATOM     77  O   UNL     1      -9.954  -3.187 125.069  0.00  0.00    +0.000 OA
ATOM     78  H   UNL     1     -10.560  -2.442 124.966  0.00  0.00    +0.000 HD
ENDBRANCH  74  77
ENDBRANCH  70  71
ENDBRANCH   5  70
BRANCH  23  79
ATOM     79  C   UNL     1      -8.631   6.830 130.365  0.00  0.00    +0.000 C 
BRANCH  79  80
ATOM     80  C   UNL     1     -10.112   7.272 130.182  0.00  0.00    +0.000 C 
BRANCH  80  81
ATOM     81  C   UNL     1     -11.187   6.277 130.439  0.00  0.00    +0.000 C 
ATOM     82  N   UNL     1     -11.584   6.175 131.728  0.00  0.00    +0.000 N 
ATOM     83  O   UNL     1     -11.606   5.544 129.546  0.00  0.00    +0.000 OA
ATOM     84  H   UNL     1     -11.177   6.694 132.490  0.00  0.00    +0.000 HD
ATOM     85  H   UNL     1     -12.362   5.573 131.930  0.00  0.00    +0.000 HD
ENDBRANCH  80  81
ENDBRANCH  79  80
ENDBRANCH  23  79
TORSDOF 19
ENDMDL
MODEL 4
REMARK VINA RESULT:      -8.7      1.931      3.304
REMARK  Name = CHEMBL3814617
REMARK  24 active torsions:
REMARK  status: ('A' for Active; 'I' for Inactive)
REMARK    1  A    between atoms: C_1  and  C_2
REMARK    2  A    between atoms: C_2  and  C_3
REMARK    3  A    between atoms: C_3  and  C_4
REMARK    4  A    between atoms: C_3  and  C_5
REMARK    5  A    between atoms: C_9  and  C_10
REMARK    6  A    between atoms: C_10  and  C_11
REMARK    7  A    between atoms: C_14  and  O_15
REMARK    8  A    between atoms: C_21  and  N_22
REMARK    9  A    between atoms: C_27  and  C_28
REMARK   10  A    between atoms: C_34  and  C_35
REMARK   11  A    between atoms: N_37  and  C_38
REMARK   12  A    between atoms: C_38  and  C_39
REMARK   13  A    between atoms: C_38  and  C_43
REMARK   14  A    between atoms: C_39  and  C_40
REMARK   15  A    between atoms: C_40  and  C_41
REMARK   16  A    between atoms: C_40  and  C_42
REMARK   17  A    between atoms: N_45  and  C_46
REMARK   18  A    between atoms: C_46  and  C_47
REMARK   19  A    between atoms: C_53  and  C_54
REMARK   20  A    between atoms: C_54  and  C_55
REMARK   21  A    between atoms: N_58  and  C_59
REMARK   22  A    between atoms: C_62  and  C_63
REMARK   23  A    between atoms: C_63  and  C_64
REMARK   24  A    between atoms: C_64  and  C_65
REMARK                            x       y       z     vdW  Elec       q    Type
REMARK                         _______ _______ _______ _____ _____    ______ ____
ROOT
ATOM      1  C   UNL     1      -6.466   0.351 128.474  0.00  0.00    +0.000 C 
ATOM      2  N   UNL     1      -6.691   1.357 126.468  0.00  0.00    +0.000 N 
ATOM      3  C   UNL     1      -6.990   2.321 124.946  0.00  0.00    +0.000 C 
ATOM      4  O   UNL     1      -7.601   3.437 124.183  0.00  0.00    +0.000 OA
ATOM      5  C   UNL     1      -6.716   1.672 123.731  0.00  0.00    +0.000 C 
ATOM      6  N   UNL     1      -5.685   2.895 124.192  0.00  0.00    +0.000 N 
ATOM      7  C   UNL     1      -5.699   3.940 125.280  0.00  0.00    +0.000 C 
ATOM      8  O   UNL     1      -4.577   4.206 125.714  0.00  0.00    +0.000 OA
ATOM      9  C   UNL     1      -7.212   4.435 126.109  0.00  0.00    +0.000 C 
ATOM     10  C   UNL     1      -7.233   3.882 127.494  0.00  0.00    +0.000 C 
ATOM     11  S   UNL     1      -5.580   4.422 128.112  0.00  0.00    +0.000 S 
ATOM     12  S   UNL     1      -4.953   3.358 129.677  0.00  0.00    +0.000 S 
ATOM     13  C   UNL     1      -4.501   4.397 131.368  0.00  0.00    +0.000 C 
ATOM     14  C   UNL     1      -4.782   3.923 132.763  0.00  0.00    +0.000 C 
ATOM     15  N   UNL     1      -6.144   4.466 133.368  0.00  0.00    +0.000 N 
ATOM     16  C   UNL     1      -7.485   4.342 133.035  0.00  0.00    +0.000 C 
ATOM     17  O   UNL     1      -8.505   4.686 133.604  0.00  0.00    +0.000 OA
ATOM     18  C   UNL     1      -7.840   3.657 131.840  0.00  0.00    +0.000 C 
ATOM     19  N   UNL     1      -8.372   2.011 132.278  0.00  0.00    +0.000 N 
ATOM     20  C   UNL     1      -9.748   1.987 132.365  0.00  0.00    +0.000 C 
ATOM     21  C   UNL     1      -8.216   0.681 131.245  0.00  0.00    +0.000 C 
ATOM     22  O   UNL     1      -7.447   0.628 130.153  0.00  0.00    +0.000 OA
ATOM     23  C   UNL     1      -8.471  -0.749 131.901  0.00  0.00    +0.000 C 
ATOM     24  N   UNL     1      -8.350  -1.397 130.400  0.00  0.00    +0.000 N 
ATOM     25  C   UNL     1      -7.405  -1.207 129.109  0.00  0.00    +0.000 C 
ATOM     26  O   UNL     1      -6.907  -2.348 128.900  0.00  0.00    +0.000 OA
ATOM     27  H   UNL     1      -7.402   2.257 126.119  0.00  0.00    +0.000 HD
ATOM     28  H   UNL     1      -4.801   2.694 123.813  0.00  0.00    +0.000 HD
ATOM     29  H   UNL     1      -6.050   5.036 134.194  0.00  0.00    +0.000 HD
ATOM     30  H   UNL     1      -9.160  -1.953 130.273  0.00  0.00    +0.000 HD
ENDROOT
BRANCH  14  31
ATOM     31  C   UNL     1      -3.612   4.473 133.585  0.00  0.00    +0.000 C 
ATOM     32  O   UNL     1      -3.402   3.806 134.598  0.00  0.00    +0.000 OA
ATOM     33  N   UNL     1      -2.872   5.567 133.060  0.00  0.00    +0.000 N 
ATOM     34  C   UNL     1      -3.406   6.801 132.524  0.00  0.00    +0.000 C 
ATOM     35  C   UNL     1      -2.450   7.178 131.441  0.00  0.00    +0.000 C 
ATOM     36  C   UNL     1      -1.144   6.985 132.141  0.00  0.00    +0.000 C 
ATOM     37  C   UNL     1      -1.393   5.851 133.138  0.00  0.00    +0.000 C 
BRANCH  37  38
ATOM     38  C   UNL     1      -0.959   6.655 134.405  0.00  0.00    +0.000 C 
ATOM     39  O   UNL     1      -0.033   7.469 134.291  0.00  0.00    +0.000 OA
ATOM     40  N   UNL     1      -1.862   6.645 135.506  0.00  0.00    +0.000 N 
ATOM     41  H   UNL     1      -2.555   5.910 135.641  0.00  0.00    +0.000 HD
BRANCH  40  42
ATOM     42  C   UNL     1      -1.920   7.766 136.512  0.00  0.00    +0.000 C 
BRANCH  42  43
ATOM     43  C   UNL     1      -3.349   7.847 137.138  0.00  0.00    +0.000 C 
ATOM     44  O   UNL     1      -3.554   8.562 138.120  0.00  0.00    +0.000 OA
ATOM     45  N   UNL     1      -4.362   7.100 136.562  0.00  0.00    +0.000 N 
ATOM     46  H   UNL     1      -4.180   6.516 135.766  0.00  0.00    +0.000 HD
BRANCH  45  47
ATOM     47  C   UNL     1      -5.736   7.124 137.073  0.00  0.00    +0.000 C 
BRANCH  47  48
ATOM     48  C   UNL     1      -6.639   5.988 136.547  0.00  0.00    +0.000 C 
ATOM     49  N   UNL     1      -7.956   6.287 136.284  0.00  0.00    +0.000 N 
ATOM     50  O   UNL     1      -6.209   4.851 136.364  0.00  0.00    +0.000 OA
ATOM     51  H   UNL     1      -8.394   7.182 136.403  0.00  0.00    +0.000 HD
ATOM     52  H   UNL     1      -8.572   5.561 135.937  0.00  0.00    +0.000 HD
ENDBRANCH  47  48
ENDBRANCH  45  47
ENDBRANCH  42  43
BRANCH  42  53
ATOM     53  C   UNL     1      -1.555   9.168 135.952  0.00  0.00    +0.000 C 
BRANCH  53  54
ATOM     54  C   UNL     1      -2.640   9.786 135.083  0.00  0.00    +0.000 C 
ATOM     55  C   UNL     1      -2.971  11.158 135.533  0.00  0.00    +0.000 C 
ATOM     56  C   UNL     1      -2.209  10.184 133.724  0.00  0.00    +0.000 C 
ENDBRANCH  53  54
ENDBRANCH  42  53
ENDBRANCH  40  42
ENDBRANCH  37  38
ENDBRANCH  14  31
BRANCH   9  57
ATOM     57  N   UNL     1      -8.712   4.129 125.666  0.00  0.00    +0.000 NA
ATOM     58  H   UNL     1      -9.379   4.900 125.762  0.00  0.00    +0.000 HD
ATOM     59  H   UNL     1      -9.092   3.791 126.582  0.00  0.00    +0.000 HD
ENDBRANCH   9  57
BRANCH   1  60
ATOM     60  C   UNL     1      -5.484  -0.169 130.219  0.00  0.00    +0.000 C 
ATOM     61  C   UNL     1      -4.459  -1.061 131.649  0.00  0.00    +0.000 C 
BRANCH  60  63
ATOM     62  C   UNL     1      -3.877  -2.151 129.216  0.00  0.00    +0.000 C 
ATOM     63  C   UNL     1      -3.748  -0.432 129.924  0.00  0.00    +0.000 C 
ENDBRANCH  60  63
ENDBRANCH   1  60
BRANCH  18  64
ATOM     64  C   UNL     1      -8.278   4.205 130.448  0.00  0.00    +0.000 C 
BRANCH  64  65
ATOM     65  C   UNL     1      -9.123   5.480 130.468  0.00  0.00    +0.000 C 
ATOM     66  N   UNL     1     -10.254   5.512 131.196  0.00  0.00    +0.000 N 
ATOM     67  O   UNL     1      -8.721   6.533 130.000  0.00  0.00    +0.000 OA
ATOM     68  H   UNL     1     -10.000   4.861 131.888  0.00  0.00    +0.000 HD
ATOM     69  H   UNL     1     -10.444   6.329 131.821  0.00  0.00    +0.000 HD
ENDBRANCH  64  65
ENDBRANCH  18  64
BRANCH   5  70
ATOM     70  C   UNL     1      -8.116   1.171 124.482  0.00  0.00    +0.000 C 
BRANCH  70  71
ATOM     71  C   UNL     1      -8.594  -0.206 124.515  0.00  0.00    +0.000 A 
ATOM     72  C   UNL     1      -8.977  -0.938 125.619  0.00  0.00    +0.000 A 
ATOM     73  C   UNL     1      -9.527  -2.178 125.371  0.00  0.00    +0.000 A 
ATOM     74  C   UNL     1      -9.587  -2.646 124.057  0.00  0.00    +0.000 A 
ATOM     75  C   UNL     1      -9.049  -1.941 122.998  0.00  0.00    +0.000 A 
ATOM     76  C   UNL     1      -8.515  -0.728 123.228  0.00  0.00    +0.000 A 
BRANCH  74  77
ATOM     77  O   UNL     1     -10.162  -3.820 123.696  0.00  0.00    +0.000 OA
ATOM     78  H   UNL     1     -10.849  -4.075 124.325  0.00  0.00    +0.000 HD
ENDBRANCH  74  77
ENDBRANCH  70  71
ENDBRANCH   5  70
BRANCH  23  79
ATOM     79  C   UNL     1      -7.593  -1.473 133.114  0.00  0.00    +0.000 C 
BRANCH  79  80
ATOM     80  C   UNL     1      -7.606  -3.024 133.239  0.00  0.00    +0.000 C 
BRANCH  80  81
ATOM     81  C   UNL     1      -6.399  -3.781 132.813  0.00  0.00    +0.000 C 
ATOM     82  N   UNL     1      -6.294  -3.999 131.482  0.00  0.00    +0.000 N 
ATOM     83  O   UNL     1      -5.612  -4.246 133.635  0.00  0.00    +0.000 OA
ATOM     84  H   UNL     1      -6.985  -3.716 130.804  0.00  0.00    +0.000 HD
ATOM     85  H   UNL     1      -5.455  -4.437 131.145  0.00  0.00    +0.000 HD
ENDBRANCH  80  81
ENDBRANCH  79  80
ENDBRANCH  23  79
TORSDOF 19
ENDMDL
MODEL 5
REMARK VINA RESULT:      -8.5      4.278      9.849
REMARK  Name = CHEMBL3814617
REMARK  24 active torsions:
REMARK  status: ('A' for Active; 'I' for Inactive)
REMARK    1  A    between atoms: C_1  and  C_2
REMARK    2  A    between atoms: C_2  and  C_3
REMARK    3  A    between atoms: C_3  and  C_4
REMARK    4  A    between atoms: C_3  and  C_5
REMARK    5  A    between atoms: C_9  and  C_10
REMARK    6  A    between atoms: C_10  and  C_11
REMARK    7  A    between atoms: C_14  and  O_15
REMARK    8  A    between atoms: C_21  and  N_22
REMARK    9  A    between atoms: C_27  and  C_28
REMARK   10  A    between atoms: C_34  and  C_35
REMARK   11  A    between atoms: N_37  and  C_38
REMARK   12  A    between atoms: C_38  and  C_39
REMARK   13  A    between atoms: C_38  and  C_43
REMARK   14  A    between atoms: C_39  and  C_40
REMARK   15  A    between atoms: C_40  and  C_41
REMARK   16  A    between atoms: C_40  and  C_42
REMARK   17  A    between atoms: N_45  and  C_46
REMARK   18  A    between atoms: C_46  and  C_47
REMARK   19  A    between atoms: C_53  and  C_54
REMARK   20  A    between atoms: C_54  and  C_55
REMARK   21  A    between atoms: N_58  and  C_59
REMARK   22  A    between atoms: C_62  and  C_63
REMARK   23  A    between atoms: C_63  and  C_64
REMARK   24  A    between atoms: C_64  and  C_65
REMARK                            x       y       z     vdW  Elec       q    Type
REMARK                         _______ _______ _______ _____ _____    ______ ____
ROOT
ATOM      1  C   UNL     1      -7.824   1.920 129.288  0.00  0.00    +0.000 C 
ATOM      2  N   UNL     1      -7.825   1.044 127.210  0.00  0.00    +0.000 N 
ATOM      3  C   UNL     1      -7.644   0.233 125.584  0.00  0.00    +0.000 C 
ATOM      4  O   UNL     1      -6.929  -0.614 124.597  0.00  0.00    +0.000 OA
ATOM      5  C   UNL     1      -8.427   0.747 124.538  0.00  0.00    +0.000 C 
ATOM      6  N   UNL     1      -8.841  -0.751 125.135  0.00  0.00    +0.000 N 
ATOM      7  C   UNL     1      -8.198  -1.726 126.089  0.00  0.00    +0.000 C 
ATOM      8  O   UNL     1      -9.013  -2.354 126.766  0.00  0.00    +0.000 OA
ATOM      9  C   UNL     1      -6.444  -1.678 126.465  0.00  0.00    +0.000 C 
ATOM     10  C   UNL     1      -6.236  -1.147 127.843  0.00  0.00    +0.000 C 
ATOM     11  S   UNL     1      -7.395  -2.212 128.807  0.00  0.00    +0.000 S 
ATOM     12  S   UNL     1      -7.894  -1.418 130.566  0.00  0.00    +0.000 S 
ATOM     13  C   UNL     1      -7.515  -2.543 132.219  0.00  0.00    +0.000 C 
ATOM     14  C   UNL     1      -7.044  -1.999 133.534  0.00  0.00    +0.000 C 
ATOM     15  N   UNL     1      -5.470  -2.048 133.728  0.00  0.00    +0.000 N 
ATOM     16  C   UNL     1      -4.383  -1.479 133.080  0.00  0.00    +0.000 C 
ATOM     17  O   UNL     1      -3.195  -1.456 133.343  0.00  0.00    +0.000 OA
ATOM     18  C   UNL     1      -4.603  -0.717 131.899  0.00  0.00    +0.000 C 
ATOM     19  N   UNL     1      -4.541   1.012 132.331  0.00  0.00    +0.000 N 
ATOM     20  C   UNL     1      -3.277   1.500 132.071  0.00  0.00    +0.000 C 
ATOM     21  C   UNL     1      -5.391   2.209 131.491  0.00  0.00    +0.000 C 
ATOM     22  O   UNL     1      -6.397   1.996 130.637  0.00  0.00    +0.000 OA
ATOM     23  C   UNL     1      -5.453   3.642 132.184  0.00  0.00    +0.000 C 
ATOM     24  N   UNL     1      -6.173   4.207 130.824  0.00  0.00    +0.000 N 
ATOM     25  C   UNL     1      -7.311   3.706 129.801  0.00  0.00    +0.000 C 
ATOM     26  O   UNL     1      -8.191   4.611 129.824  0.00  0.00    +0.000 OA
ATOM     27  H   UNL     1      -6.979   0.436 126.616  0.00  0.00    +0.000 HD
ATOM     28  H   UNL     1      -9.810  -0.861 125.010  0.00  0.00    +0.000 HD
ATOM     29  H   UNL     1      -5.150  -2.614 134.497  0.00  0.00    +0.000 HD
ATOM     30  H   UNL     1      -5.654   5.004 130.547  0.00  0.00    +0.000 HD
ENDROOT
BRANCH  14  31
ATOM     31  C   UNL     1      -7.708  -2.909 134.573  0.00  0.00    +0.000 C 
ATOM     32  O   UNL     1      -8.636  -3.560 134.096  0.00  0.00    +0.000 OA
ATOM     33  N   UNL     1      -7.138  -2.975 135.874  0.00  0.00    +0.000 N 
ATOM     34  C   UNL     1      -6.763  -1.860 136.717  0.00  0.00    +0.000 C 
ATOM     35  C   UNL     1      -5.570  -2.350 137.469  0.00  0.00    +0.000 C 
ATOM     36  C   UNL     1      -6.048  -3.696 137.908  0.00  0.00    +0.000 C 
ATOM     37  C   UNL     1      -7.005  -4.154 136.804  0.00  0.00    +0.000 C 
BRANCH  37  38
ATOM     38  C   UNL     1      -8.234  -4.376 137.742  0.00  0.00    +0.000 C 
ATOM     39  O   UNL     1      -8.040  -4.400 138.964  0.00  0.00    +0.000 OA
ATOM     40  N   UNL     1      -9.521  -4.201 137.157  0.00  0.00    +0.000 N 
ATOM     41  H   UNL     1      -9.684  -4.285 136.154  0.00  0.00    +0.000 HD
BRANCH  40  42
ATOM     42  C   UNL     1     -10.727  -3.796 137.966  0.00  0.00    +0.000 C 
BRANCH  42  43
ATOM     43  C   UNL     1     -10.407  -2.510 138.792  0.00  0.00    +0.000 C 
ATOM     44  O   UNL     1     -10.362  -1.412 138.233  0.00  0.00    +0.000 OA
ATOM     45  N   UNL     1     -10.179  -2.641 140.150  0.00  0.00    +0.000 N 
ATOM     46  H   UNL     1     -10.212  -3.542 140.591  0.00  0.00    +0.000 HD
BRANCH  45  47
ATOM     47  C   UNL     1      -9.885  -1.488 141.007  0.00  0.00    +0.000 C 
BRANCH  47  48
ATOM     48  C   UNL     1      -8.443  -1.444 141.556  0.00  0.00    +0.000 C 
ATOM     49  N   UNL     1      -7.448  -2.000 140.786  0.00  0.00    +0.000 N 
ATOM     50  O   UNL     1      -8.179  -0.933 142.643  0.00  0.00    +0.000 OA
ATOM     51  H   UNL     1      -7.568  -2.438 139.891  0.00  0.00    +0.000 HD
ATOM     52  H   UNL     1      -6.491  -1.986 141.121  0.00  0.00    +0.000 HD
ENDBRANCH  47  48
ENDBRANCH  45  47
ENDBRANCH  42  43
BRANCH  42  53
ATOM     53  C   UNL     1     -11.255  -4.882 138.942  0.00  0.00    +0.000 C 
BRANCH  53  54
ATOM     54  C   UNL     1     -12.751  -5.136 138.831  0.00  0.00    +0.000 C 
ATOM     55  C   UNL     1     -13.117  -6.452 139.406  0.00  0.00    +0.000 C 
ATOM     56  C   UNL     1     -13.596  -4.341 139.749  0.00  0.00    +0.000 C 
ENDBRANCH  53  54
ENDBRANCH  42  53
ENDBRANCH  40  42
ENDBRANCH  37  38
ENDBRANCH  14  31
BRANCH   9  57
ATOM     57  N   UNL     1      -5.300  -0.885 125.688  0.00  0.00    +0.000 NA
ATOM     58  H   UNL     1      -4.341  -1.208 125.841  0.00  0.00    +0.000 HD
ATOM     59  H   UNL     1      -5.086  -0.153 126.406  0.00  0.00    +0.000 HD
ENDBRANCH   9  57
BRANCH   1  60
ATOM     60  C   UNL     1      -8.420   2.083 131.263  0.00  0.00    +0.000 C 
ATOM     61  C   UNL     1      -9.279   2.562 132.973  0.00  0.00    +0.000 C 
BRANCH  60  63
ATOM     62  C   UNL     1     -10.854   3.087 130.500  0.00  0.00    +0.000 C 
ATOM     63  C   UNL     1     -10.137   1.654 131.452  0.00  0.00    +0.000 C 
ENDBRANCH  60  63
ENDBRANCH   1  60
BRANCH  18  64
ATOM     64  C   UNL     1      -4.397  -1.089 130.400  0.00  0.00    +0.000 C 
BRANCH  64  65
ATOM     65  C   UNL     1      -3.779  -2.463 130.130  0.00  0.00    +0.000 C 
ATOM     66  N   UNL     1      -2.545  -2.538 129.598  0.00  0.00    +0.000 N 
ATOM     67  O   UNL     1      -4.279  -3.494 130.547  0.00  0.00    +0.000 OA
ATOM     68  H   UNL     1      -2.184  -1.693 129.947  0.00  0.00    +0.000 HD
ATOM     69  H   UNL     1      -1.840  -3.187 130.016  0.00  0.00    +0.000 HD
ENDBRANCH  64  65
ENDBRANCH  18  64
BRANCH   5  70
ATOM     70  C   UNL     1      -7.121   1.695 124.955  0.00  0.00    +0.000 C 
BRANCH  70  71
ATOM     71  C   UNL     1      -6.541   2.729 124.106  0.00  0.00    +0.000 A 
ATOM     72  C   UNL     1      -5.815   3.832 124.501  0.00  0.00    +0.000 A 
ATOM     73  C   UNL     1      -5.253   4.588 123.494  0.00  0.00    +0.000 A 
ATOM     74  C   UNL     1      -5.510   4.249 122.164  0.00  0.00    +0.000 A 
ATOM     75  C   UNL     1      -6.370   3.226 121.817  0.00  0.00    +0.000 A 
ATOM     76  C   UNL     1      -6.920   2.480 122.791  0.00  0.00    +0.000 A 
BRANCH  74  77
ATOM     77  O   UNL     1      -4.959   4.885 121.100  0.00  0.00    +0.000 OA
ATOM     78  H   UNL     1      -4.152   4.439 120.812  0.00  0.00    +0.000 HD
ENDBRANCH  74  77
ENDBRANCH  70  71
ENDBRANCH   5  70
BRANCH  23  79
ATOM     79  C   UNL     1      -6.162   4.030 133.637  0.00  0.00    +0.000 C 
BRANCH  79  80
ATOM     80  C   UNL     1      -5.944   3.095 134.863  0.00  0.00    +0.000 C 
BRANCH  80  81
ATOM     81  C   UNL     1      -4.818   3.388 135.788  0.00  0.00    +0.000 C 
ATOM     82  N   UNL     1      -3.587   3.353 135.228  0.00  0.00    +0.000 N 
ATOM     83  O   UNL     1      -5.005   3.558 136.991  0.00  0.00    +0.000 OA
ATOM     84  H   UNL     1      -3.407   3.112 134.266  0.00  0.00    +0.000 HD
ATOM     85  H   UNL     1      -2.806   3.623 135.800  0.00  0.00    +0.000 HD
ENDBRANCH  80  81
ENDBRANCH  79  80
ENDBRANCH  23  79
TORSDOF 19
ENDMDL
MODEL 6
REMARK VINA RESULT:      -8.4      1.262      2.070
REMARK  Name = CHEMBL3814617
REMARK  24 active torsions:
REMARK  status: ('A' for Active; 'I' for Inactive)
REMARK    1  A    between atoms: C_1  and  C_2
REMARK    2  A    between atoms: C_2  and  C_3
REMARK    3  A    between atoms: C_3  and  C_4
REMARK    4  A    between atoms: C_3  and  C_5
REMARK    5  A    between atoms: C_9  and  C_10
REMARK    6  A    between atoms: C_10  and  C_11
REMARK    7  A    between atoms: C_14  and  O_15
REMARK    8  A    between atoms: C_21  and  N_22
REMARK    9  A    between atoms: C_27  and  C_28
REMARK   10  A    between atoms: C_34  and  C_35
REMARK   11  A    between atoms: N_37  and  C_38
REMARK   12  A    between atoms: C_38  and  C_39
REMARK   13  A    between atoms: C_38  and  C_43
REMARK   14  A    between atoms: C_39  and  C_40
REMARK   15  A    between atoms: C_40  and  C_41
REMARK   16  A    between atoms: C_40  and  C_42
REMARK   17  A    between atoms: N_45  and  C_46
REMARK   18  A    between atoms: C_46  and  C_47
REMARK   19  A    between atoms: C_53  and  C_54
REMARK   20  A    between atoms: C_54  and  C_55
REMARK   21  A    between atoms: N_58  and  C_59
REMARK   22  A    between atoms: C_62  and  C_63
REMARK   23  A    between atoms: C_63  and  C_64
REMARK   24  A    between atoms: C_64  and  C_65
REMARK                            x       y       z     vdW  Elec       q    Type
REMARK                         _______ _______ _______ _____ _____    ______ ____
ROOT
ATOM      1  C   UNL     1      -6.411   0.872 128.244  0.00  0.00    +0.000 C 
ATOM      2  N   UNL     1      -6.715   1.645 126.148  0.00  0.00    +0.000 N 
ATOM      3  C   UNL     1      -7.115   2.398 124.533  0.00  0.00    +0.000 C 
ATOM      4  O   UNL     1      -7.908   3.281 123.642  0.00  0.00    +0.000 OA
ATOM      5  C   UNL     1      -6.612   1.744 123.397  0.00  0.00    +0.000 C 
ATOM      6  N   UNL     1      -5.925   3.205 123.802  0.00  0.00    +0.000 N 
ATOM      7  C   UNL     1      -6.257   4.295 124.791  0.00  0.00    +0.000 C 
ATOM      8  O   UNL     1      -5.261   4.847 125.259  0.00  0.00    +0.000 OA
ATOM      9  C   UNL     1      -7.899   4.481 125.490  0.00  0.00    +0.000 C 
ATOM     10  C   UNL     1      -7.894   4.042 126.916  0.00  0.00    +0.000 C 
ATOM     11  S   UNL     1      -6.458   4.998 127.572  0.00  0.00    +0.000 S 
ATOM     12  S   UNL     1      -5.719   4.230 129.256  0.00  0.00    +0.000 S 
ATOM     13  C   UNL     1      -5.641   5.467 130.870  0.00  0.00    +0.000 C 
ATOM     14  C   UNL     1      -5.907   5.045 132.284  0.00  0.00    +0.000 C 
ATOM     15  N   UNL     1      -7.398   5.297 132.765  0.00  0.00    +0.000 N 
ATOM     16  C   UNL     1      -8.646   4.838 132.372  0.00  0.00    +0.000 C 
ATOM     17  O   UNL     1      -9.756   4.974 132.853  0.00  0.00    +0.000 OA
ATOM     18  C   UNL     1      -8.747   4.002 131.226  0.00  0.00    +0.000 C 
ATOM     19  N   UNL     1      -8.918   2.315 131.779  0.00  0.00    +0.000 N 
ATOM     20  C   UNL     1     -10.255   1.976 131.794  0.00  0.00    +0.000 C 
ATOM     21  C   UNL     1      -8.388   0.986 130.878  0.00  0.00    +0.000 C 
ATOM     22  O   UNL     1      -7.549   1.034 129.838  0.00  0.00    +0.000 OA
ATOM     23  C   UNL     1      -8.354  -0.412 131.643  0.00  0.00    +0.000 C 
ATOM     24  N   UNL     1      -7.980  -1.122 130.215  0.00  0.00    +0.000 N 
ATOM     25  C   UNL     1      -7.012  -0.812 128.965  0.00  0.00    +0.000 C 
ATOM     26  O   UNL     1      -6.252  -1.817 128.885  0.00  0.00    +0.000 OA
ATOM     27  H   UNL     1      -7.586   2.325 125.683  0.00  0.00    +0.000 HD
ATOM     28  H   UNL     1      -4.993   3.188 123.491  0.00  0.00    +0.000 HD
ATOM     29  H   UNL     1      -7.497   5.933 133.540  0.00  0.00    +0.000 HD
ATOM     30  H   UNL     1      -8.629  -1.861 130.094  0.00  0.00    +0.000 HD
ENDROOT
BRANCH  14  31
ATOM     31  C   UNL     1      -4.956   5.913 133.116  0.00  0.00    +0.000 C 
ATOM     32  O   UNL     1      -5.381   6.107 134.255  0.00  0.00    +0.000 OA
ATOM     33  N   UNL     1      -3.709   6.285 132.546  0.00  0.00    +0.000 N 
ATOM     34  C   UNL     1      -3.488   6.854 131.233  0.00  0.00    +0.000 C 
ATOM     35  C   UNL     1      -2.163   6.310 130.813  0.00  0.00    +0.000 C 
ATOM     36  C   UNL     1      -1.358   6.544 132.049  0.00  0.00    +0.000 C 
ATOM     37  C   UNL     1      -2.358   6.426 133.201  0.00  0.00    +0.000 C 
BRANCH  37  38
ATOM     38  C   UNL     1      -2.078   7.841 133.800  0.00  0.00    +0.000 C 
ATOM     39  O   UNL     1      -2.861   8.279 134.654  0.00  0.00    +0.000 OA
ATOM     40  N   UNL     1      -0.780   8.382 133.577  0.00  0.00    +0.000 N 
ATOM     41  H   UNL     1      -0.186   8.082 132.805  0.00  0.00    +0.000 HD
BRANCH  40  42
ATOM     42  C   UNL     1      -0.149   9.380 134.514  0.00  0.00    +0.000 C 
BRANCH  42  43
ATOM     43  C   UNL     1       0.385  10.606 133.705  0.00  0.00    +0.000 C 
ATOM     44  O   UNL     1       1.433  10.513 133.065  0.00  0.00    +0.000 OA
ATOM     45  N   UNL     1      -0.346  11.780 133.732  0.00  0.00    +0.000 N 
ATOM     46  H   UNL     1      -1.195  11.844 134.264  0.00  0.00    +0.000 HD
BRANCH  45  47
ATOM     47  C   UNL     1       0.072  12.975 132.993  0.00  0.00    +0.000 C 
BRANCH  47  48
ATOM     48  C   UNL     1      -0.258  12.948 131.486  0.00  0.00    +0.000 C 
ATOM     49  N   UNL     1      -1.584  12.914 131.121  0.00  0.00    +0.000 N 
ATOM     50  O   UNL     1       0.624  12.956 130.629  0.00  0.00    +0.000 OA
ATOM     51  H   UNL     1      -2.369  12.905 131.746  0.00  0.00    +0.000 HD
ATOM     52  H   UNL     1      -1.831  12.896 130.138  0.00  0.00    +0.000 HD
ENDBRANCH  47  48
ENDBRANCH  45  47
ENDBRANCH  42  43
BRANCH  42  53
ATOM     53  C   UNL     1       1.015   8.823 135.377  0.00  0.00    +0.000 C 
BRANCH  53  54
ATOM     54  C   UNL     1       0.817   7.381 135.822  0.00  0.00    +0.000 C 
ATOM     55  C   UNL     1       2.005   6.875 136.549  0.00  0.00    +0.000 C 
ATOM     56  C   UNL     1      -0.127   7.191 136.946  0.00  0.00    +0.000 C 
ENDBRANCH  53  54
ENDBRANCH  42  53
ENDBRANCH  40  42
ENDBRANCH  37  38
ENDBRANCH  14  31
BRANCH   9  57
ATOM     57  N   UNL     1      -9.253   3.800 124.997  0.00  0.00    +0.000 NA
ATOM     58  H   UNL     1      -9.364   2.805 125.211  0.00  0.00    +0.000 HD
ATOM     59  H   UNL     1      -8.945   3.481 124.048  0.00  0.00    +0.000 HD
ENDBRANCH   9  57
BRANCH   1  60
ATOM     60  C   UNL     1      -5.466   0.727 130.080  0.00  0.00    +0.000 C 
ATOM     61  C   UNL     1      -4.432   0.169 131.664  0.00  0.00    +0.000 C 
BRANCH  60  63
ATOM     62  C   UNL     1      -3.439   2.114 128.861  0.00  0.00    +0.000 C 
ATOM     63  C   UNL     1      -3.703   0.578 129.882  0.00  0.00    +0.000 C 
ENDBRANCH  60  63
ENDBRANCH   1  60
BRANCH  18  64
ATOM     64  C   UNL     1      -9.196   4.328 129.770  0.00  0.00    +0.000 C 
BRANCH  64  65
ATOM     65  C   UNL     1      -9.902   5.671 129.573  0.00  0.00    +0.000 C 
ATOM     66  N   UNL     1     -11.147   5.841 130.056  0.00  0.00    +0.000 N 
ATOM     67  O   UNL     1      -9.318   6.658 129.158  0.00  0.00    +0.000 OA
ATOM     68  H   UNL     1     -11.097   5.209 130.808  0.00  0.00    +0.000 HD
ATOM     69  H   UNL     1     -11.377   6.704 130.601  0.00  0.00    +0.000 HD
ENDBRANCH  64  65
ENDBRANCH  18  64
BRANCH   5  70
ATOM     70  C   UNL     1      -7.911   0.985 124.114  0.00  0.00    +0.000 C 
BRANCH  70  71
ATOM     71  C   UNL     1      -8.092  -0.460 124.187  0.00  0.00    +0.000 A 
ATOM     72  C   UNL     1      -7.746  -1.401 123.241  0.00  0.00    +0.000 A 
ATOM     73  C   UNL     1      -7.892  -2.722 123.608  0.00  0.00    +0.000 A 
ATOM     74  C   UNL     1      -8.443  -3.025 124.855  0.00  0.00    +0.000 A 
ATOM     75  C   UNL     1      -8.918  -2.048 125.708  0.00  0.00    +0.000 A 
ATOM     76  C   UNL     1      -8.776  -0.756 125.362  0.00  0.00    +0.000 A 
BRANCH  74  77
ATOM     77  O   UNL     1      -8.574  -4.285 125.340  0.00  0.00    +0.000 OA
ATOM     78  H   UNL     1      -8.179  -4.359 126.219  0.00  0.00    +0.000 HD
ENDBRANCH  74  77
ENDBRANCH  70  71
ENDBRANCH   5  70
BRANCH  23  79
ATOM     79  C   UNL     1      -7.425  -0.818 132.961  0.00  0.00    +0.000 C 
BRANCH  79  80
ATOM     80  C   UNL     1      -7.396  -2.298 133.444  0.00  0.00    +0.000 C 
BRANCH  80  81
ATOM     81  C   UNL     1      -6.486  -3.251 132.756  0.00  0.00    +0.000 C 
ATOM     82  N   UNL     1      -5.422  -3.660 133.484  0.00  0.00    +0.000 N 
ATOM     83  O   UNL     1      -6.655  -3.562 131.579  0.00  0.00    +0.000 OA
ATOM     84  H   UNL     1      -5.210  -3.334 134.414  0.00  0.00    +0.000 HD
ATOM     85  H   UNL     1      -4.827  -4.365 133.085  0.00  0.00    +0.000 HD
ENDBRANCH  80  81
ENDBRANCH  79  80
ENDBRANCH  23  79
TORSDOF 19
ENDMDL
MODEL 7
REMARK VINA RESULT:      -8.4      2.038      3.875
REMARK  Name = CHEMBL3814617
REMARK  24 active torsions:
REMARK  status: ('A' for Active; 'I' for Inactive)
REMARK    1  A    between atoms: C_1  and  C_2
REMARK    2  A    between atoms: C_2  and  C_3
REMARK    3  A    between atoms: C_3  and  C_4
REMARK    4  A    between atoms: C_3  and  C_5
REMARK    5  A    between atoms: C_9  and  C_10
REMARK    6  A    between atoms: C_10  and  C_11
REMARK    7  A    between atoms: C_14  and  O_15
REMARK    8  A    between atoms: C_21  and  N_22
REMARK    9  A    between atoms: C_27  and  C_28
REMARK   10  A    between atoms: C_34  and  C_35
REMARK   11  A    between atoms: N_37  and  C_38
REMARK   12  A    between atoms: C_38  and  C_39
REMARK   13  A    between atoms: C_38  and  C_43
REMARK   14  A    between atoms: C_39  and  C_40
REMARK   15  A    between atoms: C_40  and  C_41
REMARK   16  A    between atoms: C_40  and  C_42
REMARK   17  A    between atoms: N_45  and  C_46
REMARK   18  A    between atoms: C_46  and  C_47
REMARK   19  A    between atoms: C_53  and  C_54
REMARK   20  A    between atoms: C_54  and  C_55
REMARK   21  A    between atoms: N_58  and  C_59
REMARK   22  A    between atoms: C_62  and  C_63
REMARK   23  A    between atoms: C_63  and  C_64
REMARK   24  A    between atoms: C_64  and  C_65
REMARK                            x       y       z     vdW  Elec       q    Type
REMARK                         _______ _______ _______ _____ _____    ______ ____
ROOT
ATOM      1  C   UNL     1      -6.456   0.357 128.499  0.00  0.00    +0.000 C 
ATOM      2  N   UNL     1      -6.688   1.350 126.488  0.00  0.00    +0.000 N 
ATOM      3  C   UNL     1      -6.994   2.302 124.960  0.00  0.00    +0.000 C 
ATOM      4  O   UNL     1      -7.619   3.406 124.189  0.00  0.00    +0.000 OA
ATOM      5  C   UNL     1      -6.705   1.653 123.749  0.00  0.00    +0.000 C 
ATOM      6  N   UNL     1      -5.696   2.894 124.210  0.00  0.00    +0.000 N 
ATOM      7  C   UNL     1      -5.731   3.944 125.293  0.00  0.00    +0.000 C 
ATOM      8  O   UNL     1      -4.616   4.229 125.731  0.00  0.00    +0.000 OA
ATOM      9  C   UNL     1      -7.256   4.418 126.112  0.00  0.00    +0.000 C 
ATOM     10  C   UNL     1      -7.275   3.871 127.500  0.00  0.00    +0.000 C 
ATOM     11  S   UNL     1      -5.633   4.440 128.124  0.00  0.00    +0.000 S 
ATOM     12  S   UNL     1      -4.997   3.393 129.696  0.00  0.00    +0.000 S 
ATOM     13  C   UNL     1      -4.570   4.446 131.385  0.00  0.00    +0.000 C 
ATOM     14  C   UNL     1      -4.850   3.975 132.780  0.00  0.00    +0.000 C 
ATOM     15  N   UNL     1      -6.223   4.499 133.376  0.00  0.00    +0.000 N 
ATOM     16  C   UNL     1      -7.561   4.352 133.037  0.00  0.00    +0.000 C 
ATOM     17  O   UNL     1      -8.588   4.682 133.600  0.00  0.00    +0.000 OA
ATOM     18  C   UNL     1      -7.899   3.655 131.844  0.00  0.00    +0.000 C 
ATOM     19  N   UNL     1      -8.407   2.004 132.287  0.00  0.00    +0.000 N 
ATOM     20  C   UNL     1      -9.783   1.959 132.367  0.00  0.00    +0.000 C 
ATOM     21  C   UNL     1      -8.225   0.672 131.261  0.00  0.00    +0.000 C 
ATOM     22  O   UNL     1      -7.449   0.626 130.173  0.00  0.00    +0.000 OA
ATOM     23  C   UNL     1      -8.460  -0.759 131.922  0.00  0.00    +0.000 C 
ATOM     24  N   UNL     1      -8.322  -1.412 130.424  0.00  0.00    +0.000 N 
ATOM     25  C   UNL     1      -7.374  -1.213 129.138  0.00  0.00    +0.000 C 
ATOM     26  O   UNL     1      -6.857  -2.347 128.936  0.00  0.00    +0.000 OA
ATOM     27  H   UNL     1      -7.411   2.237 126.131  0.00  0.00    +0.000 HD
ATOM     28  H   UNL     1      -4.806   2.705 123.836  0.00  0.00    +0.000 HD
ATOM     29  H   UNL     1      -6.143   5.074 134.200  0.00  0.00    +0.000 HD
ATOM     30  H   UNL     1      -9.122  -1.982 130.296  0.00  0.00    +0.000 HD
ENDROOT
BRANCH  14  31
ATOM     31  C   UNL     1      -3.692   4.546 133.606  0.00  0.00    +0.000 C 
ATOM     32  O   UNL     1      -3.365   3.799 134.527  0.00  0.00    +0.000 OA
ATOM     33  N   UNL     1      -3.089   5.759 133.173  0.00  0.00    +0.000 N 
ATOM     34  C   UNL     1      -3.766   6.984 132.804  0.00  0.00    +0.000 C 
ATOM     35  C   UNL     1      -2.910   7.568 131.729  0.00  0.00    +0.000 C 
ATOM     36  C   UNL     1      -1.555   7.432 132.343  0.00  0.00    +0.000 C 
ATOM     37  C   UNL     1      -1.641   6.178 133.216  0.00  0.00    +0.000 C 
BRANCH  37  38
ATOM     38  C   UNL     1      -1.215   6.881 134.545  0.00  0.00    +0.000 C 
ATOM     39  O   UNL     1      -0.635   7.972 134.468  0.00  0.00    +0.000 OA
ATOM     40  N   UNL     1      -1.809   6.392 135.743  0.00  0.00    +0.000 N 
ATOM     41  H   UNL     1      -2.192   5.450 135.821  0.00  0.00    +0.000 HD
BRANCH  40  42
ATOM     42  C   UNL     1      -1.993   7.256 136.964  0.00  0.00    +0.000 C 
BRANCH  42  43
ATOM     43  C   UNL     1      -2.088   6.362 138.241  0.00  0.00    +0.000 C 
ATOM     44  O   UNL     1      -1.980   6.868 139.359  0.00  0.00    +0.000 OA
ATOM     45  N   UNL     1      -2.294   5.003 138.078  0.00  0.00    +0.000 N 
ATOM     46  H   UNL     1      -2.373   4.603 137.160  0.00  0.00    +0.000 HD
BRANCH  45  47
ATOM     47  C   UNL     1      -2.410   4.089 139.218  0.00  0.00    +0.000 C 
BRANCH  47  48
ATOM     48  C   UNL     1      -1.993   2.633 138.922  0.00  0.00    +0.000 C 
ATOM     49  N   UNL     1      -0.648   2.343 138.906  0.00  0.00    +0.000 N 
ATOM     50  O   UNL     1      -2.823   1.753 138.705  0.00  0.00    +0.000 OA
ATOM     51  H   UNL     1       0.099   2.992 139.071  0.00  0.00    +0.000 HD
ATOM     52  H   UNL     1      -0.344   1.395 138.715  0.00  0.00    +0.000 HD
ENDBRANCH  47  48
ENDBRANCH  45  47
ENDBRANCH  42  43
BRANCH  42  53
ATOM     53  C   UNL     1      -3.238   8.184 136.927  0.00  0.00    +0.000 C 
BRANCH  53  54
ATOM     54  C   UNL     1      -4.540   7.483 137.284  0.00  0.00    +0.000 C 
ATOM     55  C   UNL     1      -5.614   8.461 137.576  0.00  0.00    +0.000 C 
ATOM     56  C   UNL     1      -5.241   6.838 136.151  0.00  0.00    +0.000 C 
ENDBRANCH  53  54
ENDBRANCH  42  53
ENDBRANCH  40  42
ENDBRANCH  37  38
ENDBRANCH  14  31
BRANCH   9  57
ATOM     57  N   UNL     1      -8.748   4.086 125.664  0.00  0.00    +0.000 NA
ATOM     58  H   UNL     1      -9.199   3.299 126.138  0.00  0.00    +0.000 HD
ATOM     59  H   UNL     1      -8.546   3.406 124.894  0.00  0.00    +0.000 HD
ENDBRANCH   9  57
BRANCH   1  60
ATOM     60  C   UNL     1      -5.475  -0.139 130.252  0.00  0.00    +0.000 C 
ATOM     61  C   UNL     1      -4.448  -1.011 131.693  0.00  0.00    +0.000 C 
BRANCH  60  63
ATOM     62  C   UNL     1      -3.864  -2.114 129.239  0.00  0.00    +0.000 C 
ATOM     63  C   UNL     1      -3.738  -0.401 129.962  0.00  0.00    +0.000 C 
ENDBRANCH  60  63
ENDBRANCH   1  60
BRANCH  18  64
ATOM     64  C   UNL     1      -8.339   4.190 130.448  0.00  0.00    +0.000 C 
BRANCH  64  65
ATOM     65  C   UNL     1      -9.068   5.536 130.446  0.00  0.00    +0.000 C 
ATOM     66  N   UNL     1     -10.247   5.648 131.086  0.00  0.00    +0.000 N 
ATOM     67  O   UNL     1      -8.541   6.560 130.048  0.00  0.00    +0.000 OA
ATOM     68  H   UNL     1     -10.106   4.958 131.772  0.00  0.00    +0.000 HD
ATOM     69  H   UNL     1     -10.415   6.461 131.722  0.00  0.00    +0.000 HD
ENDBRANCH  64  65
ENDBRANCH  18  64
BRANCH   5  70
ATOM     70  C   UNL     1      -8.100   1.133 124.496  0.00  0.00    +0.000 C 
BRANCH  70  71
ATOM     71  C   UNL     1      -8.573  -0.246 124.505  0.00  0.00    +0.000 A 
ATOM     72  C   UNL     1      -8.909  -1.014 125.599  0.00  0.00    +0.000 A 
ATOM     73  C   UNL     1      -9.466  -2.247 125.335  0.00  0.00    +0.000 A 
ATOM     74  C   UNL     1      -9.580  -2.673 124.010  0.00  0.00    +0.000 A 
ATOM     75  C   UNL     1      -9.087  -1.933 122.953  0.00  0.00    +0.000 A 
ATOM     76  C   UNL     1      -8.547  -0.726 123.200  0.00  0.00    +0.000 A 
BRANCH  74  77
ATOM     77  O   UNL     1     -10.167  -3.837 123.636  0.00  0.00    +0.000 OA
ATOM     78  H   UNL     1      -9.545  -4.397 123.154  0.00  0.00    +0.000 HD
ENDBRANCH  74  77
ENDBRANCH  70  71
ENDBRANCH   5  70
BRANCH  23  79
ATOM     79  C   UNL     1      -7.576  -1.463 133.142  0.00  0.00    +0.000 C 
BRANCH  79  80
ATOM     80  C   UNL     1      -7.841  -2.953 133.509  0.00  0.00    +0.000 C 
BRANCH  80  81
ATOM     81  C   UNL     1      -8.205  -3.285 134.912  0.00  0.00    +0.000 C 
ATOM     82  N   UNL     1      -9.004  -4.366 135.060  0.00  0.00    +0.000 N 
ATOM     83  O   UNL     1      -7.870  -2.563 135.848  0.00  0.00    +0.000 OA
ATOM     84  H   UNL     1      -9.375  -4.908 134.295  0.00  0.00    +0.000 HD
ATOM     85  H   UNL     1      -9.208  -4.671 135.996  0.00  0.00    +0.000 HD
ENDBRANCH  80  81
ENDBRANCH  79  80
ENDBRANCH  23  79
TORSDOF 19
ENDMDL
MODEL 8
REMARK VINA RESULT:      -8.1      4.211      9.546
REMARK  Name = CHEMBL3814617
REMARK  24 active torsions:
REMARK  status: ('A' for Active; 'I' for Inactive)
REMARK    1  A    between atoms: C_1  and  C_2
REMARK    2  A    between atoms: C_2  and  C_3
REMARK    3  A    between atoms: C_3  and  C_4
REMARK    4  A    between atoms: C_3  and  C_5
REMARK    5  A    between atoms: C_9  and  C_10
REMARK    6  A    between atoms: C_10  and  C_11
REMARK    7  A    between atoms: C_14  and  O_15
REMARK    8  A    between atoms: C_21  and  N_22
REMARK    9  A    between atoms: C_27  and  C_28
REMARK   10  A    between atoms: C_34  and  C_35
REMARK   11  A    between atoms: N_37  and  C_38
REMARK   12  A    between atoms: C_38  and  C_39
REMARK   13  A    between atoms: C_38  and  C_43
REMARK   14  A    between atoms: C_39  and  C_40
REMARK   15  A    between atoms: C_40  and  C_41
REMARK   16  A    between atoms: C_40  and  C_42
REMARK   17  A    between atoms: N_45  and  C_46
REMARK   18  A    between atoms: C_46  and  C_47
REMARK   19  A    between atoms: C_53  and  C_54
REMARK   20  A    between atoms: C_54  and  C_55
REMARK   21  A    between atoms: N_58  and  C_59
REMARK   22  A    between atoms: C_62  and  C_63
REMARK   23  A    between atoms: C_63  and  C_64
REMARK   24  A    between atoms: C_64  and  C_65
REMARK                            x       y       z     vdW  Elec       q    Type
REMARK                         _______ _______ _______ _____ _____    ______ ____
ROOT
ATOM      1  C   UNL     1      -8.103   1.599 129.419  0.00  0.00    +0.000 C 
ATOM      2  N   UNL     1      -8.129   0.251 127.611  0.00  0.00    +0.000 N 
ATOM      3  C   UNL     1      -7.948  -0.893 126.199  0.00  0.00    +0.000 C 
ATOM      4  O   UNL     1      -7.176  -1.822 125.337  0.00  0.00    +0.000 OA
ATOM      5  C   UNL     1      -8.915  -0.794 125.186  0.00  0.00    +0.000 C 
ATOM      6  N   UNL     1      -8.962  -2.146 126.155  0.00  0.00    +0.000 N 
ATOM      7  C   UNL     1      -8.049  -2.732 127.203  0.00  0.00    +0.000 C 
ATOM      8  O   UNL     1      -8.653  -3.303 128.111  0.00  0.00    +0.000 OA
ATOM      9  C   UNL     1      -6.312  -2.294 127.307  0.00  0.00    +0.000 C 
ATOM     10  C   UNL     1      -6.083  -1.412 128.488  0.00  0.00    +0.000 C 
ATOM     11  S   UNL     1      -6.908  -2.388 129.820  0.00  0.00    +0.000 S 
ATOM     12  S   UNL     1      -7.384  -1.283 131.409  0.00  0.00    +0.000 S 
ATOM     13  C   UNL     1      -6.632  -1.884 133.202  0.00  0.00    +0.000 C 
ATOM     14  C   UNL     1      -6.154  -0.960 134.281  0.00  0.00    +0.000 C 
ATOM     15  N   UNL     1      -4.591  -0.691 134.258  0.00  0.00    +0.000 N 
ATOM     16  C   UNL     1      -3.707  -0.122 133.353  0.00  0.00    +0.000 C 
ATOM     17  O   UNL     1      -2.527   0.167 133.433  0.00  0.00    +0.000 OA
ATOM     18  C   UNL     1      -4.186   0.276 132.074  0.00  0.00    +0.000 C 
ATOM     19  N   UNL     1      -4.429   2.043 132.095  0.00  0.00    +0.000 N 
ATOM     20  C   UNL     1      -3.318   2.660 131.557  0.00  0.00    +0.000 C 
ATOM     21  C   UNL     1      -5.577   2.832 131.136  0.00  0.00    +0.000 C 
ATOM     22  O   UNL     1      -6.598   2.247 130.501  0.00  0.00    +0.000 OA
ATOM     23  C   UNL     1      -5.856   4.361 131.492  0.00  0.00    +0.000 C 
ATOM     24  N   UNL     1      -6.802   4.442 130.155  0.00  0.00    +0.000 N 
ATOM     25  C   UNL     1      -7.910   3.516 129.441  0.00  0.00    +0.000 C 
ATOM     26  O   UNL     1      -8.946   4.236 129.385  0.00  0.00    +0.000 OA
ATOM     27  H   UNL     1      -7.240  -0.331 127.056  0.00  0.00    +0.000 HD
ATOM     28  H   UNL     1      -9.897  -2.447 126.195  0.00  0.00    +0.000 HD
ATOM     29  H   UNL     1      -4.092  -0.986 135.082  0.00  0.00    +0.000 HD
ATOM     30  H   UNL     1      -6.481   5.222 129.636  0.00  0.00    +0.000 HD
ENDROOT
BRANCH  14  31
ATOM     31  C   UNL     1      -6.520  -1.685 135.581  0.00  0.00    +0.000 C 
ATOM     32  O   UNL     1      -7.432  -2.495 135.420  0.00  0.00    +0.000 OA
ATOM     33  N   UNL     1      -5.735  -1.433 136.739  0.00  0.00    +0.000 N 
ATOM     34  C   UNL     1      -5.357  -0.139 137.268  0.00  0.00    +0.000 C 
ATOM     35  C   UNL     1      -4.005  -0.363 137.860  0.00  0.00    +0.000 C 
ATOM     36  C   UNL     1      -4.240  -1.623 138.629  0.00  0.00    +0.000 C 
ATOM     37  C   UNL     1      -5.308  -2.378 137.833  0.00  0.00    +0.000 C 
BRANCH  37  38
ATOM     38  C   UNL     1      -6.326  -2.500 139.011  0.00  0.00    +0.000 C 
ATOM     39  O   UNL     1      -5.907  -2.339 140.165  0.00  0.00    +0.000 OA
ATOM     40  N   UNL     1      -7.708  -2.454 138.667  0.00  0.00    +0.000 N 
ATOM     41  H   UNL     1      -8.049  -2.689 137.736  0.00  0.00    +0.000 HD
BRANCH  40  42
ATOM     42  C   UNL     1      -8.764  -1.974 139.629  0.00  0.00    +0.000 C 
BRANCH  42  43
ATOM     43  C   UNL     1     -10.152  -2.576 139.240  0.00  0.00    +0.000 C 
ATOM     44  O   UNL     1     -11.057  -1.838 138.848  0.00  0.00    +0.000 OA
ATOM     45  N   UNL     1     -10.329  -3.944 139.349  0.00  0.00    +0.000 N 
ATOM     46  H   UNL     1      -9.584  -4.533 139.676  0.00  0.00    +0.000 HD
BRANCH  45  47
ATOM     47  C   UNL     1     -11.592  -4.598 138.993  0.00  0.00    +0.000 C 
BRANCH  47  48
ATOM     48  C   UNL     1     -11.479  -5.646 137.866  0.00  0.00    +0.000 C 
ATOM     49  N   UNL     1     -12.406  -6.662 137.841  0.00  0.00    +0.000 N 
ATOM     50  O   UNL     1     -10.596  -5.587 137.012  0.00  0.00    +0.000 OA
ATOM     51  H   UNL     1     -13.158  -6.792 138.493  0.00  0.00    +0.000 HD
ATOM     52  H   UNL     1     -12.357  -7.365 137.112  0.00  0.00    +0.000 HD
ENDBRANCH  47  48
ENDBRANCH  45  47
ENDBRANCH  42  43
BRANCH  42  53
ATOM     53  C   UNL     1      -8.913  -0.430 139.721  0.00  0.00    +0.000 C 
BRANCH  53  54
ATOM     54  C   UNL     1      -8.565   0.142 141.087  0.00  0.00    +0.000 C 
ATOM     55  C   UNL     1      -8.416  -0.932 142.097  0.00  0.00    +0.000 C 
ATOM     56  C   UNL     1      -7.183   0.654 141.223  0.00  0.00    +0.000 C 
ENDBRANCH  53  54
ENDBRANCH  42  53
ENDBRANCH  40  42
ENDBRANCH  37  38
ENDBRANCH  14  31
BRANCH   9  57
ATOM     57  N   UNL     1      -5.429  -1.534 126.220  0.00  0.00    +0.000 NA
ATOM     58  H   UNL     1      -5.667  -0.553 126.050  0.00  0.00    +0.000 HD
ATOM     59  H   UNL     1      -6.001  -1.738 125.367  0.00  0.00    +0.000 HD
ENDBRANCH   9  57
BRANCH   1  60
ATOM     60  C   UNL     1      -8.527   2.139 131.371  0.00  0.00    +0.000 C 
ATOM     61  C   UNL     1      -9.272   2.905 133.029  0.00  0.00    +0.000 C 
BRANCH  60  63
ATOM     62  C   UNL     1     -11.120   2.756 130.728  0.00  0.00    +0.000 C 
ATOM     63  C   UNL     1     -10.161   1.611 131.842  0.00  0.00    +0.000 C 
ENDBRANCH  60  63
ENDBRANCH   1  60
BRANCH  18  64
ATOM     64  C   UNL     1      -4.055  -0.413 130.683  0.00  0.00    +0.000 C 
BRANCH  64  65
ATOM     65  C   UNL     1      -3.414  -1.802 130.682  0.00  0.00    +0.000 C 
ATOM     66  N   UNL     1      -2.614  -2.160 129.660  0.00  0.00    +0.000 N 
ATOM     67  O   UNL     1      -3.447  -2.534 131.657  0.00  0.00    +0.000 OA
ATOM     68  H   UNL     1      -2.287  -1.266 129.412  0.00  0.00    +0.000 HD
ATOM     69  H   UNL     1      -1.690  -2.608 129.859  0.00  0.00    +0.000 HD
ENDBRANCH  64  65
ENDBRANCH  18  64
BRANCH   5  70
ATOM     70  C   UNL     1      -7.790   0.436 125.191  0.00  0.00    +0.000 C 
BRANCH  70  71
ATOM     71  C   UNL     1      -7.737   1.518 124.215  0.00  0.00    +0.000 A 
ATOM     72  C   UNL     1      -6.701   2.400 123.992  0.00  0.00    +0.000 A 
ATOM     73  C   UNL     1      -6.839   3.246 122.913  0.00  0.00    +0.000 A 
ATOM     74  C   UNL     1      -8.024   3.219 122.173  0.00  0.00    +0.000 A 
ATOM     75  C   UNL     1      -9.097   2.425 122.529  0.00  0.00    +0.000 A 
ATOM     76  C   UNL     1      -8.970   1.593 123.577  0.00  0.00    +0.000 A 
BRANCH  74  77
ATOM     77  O   UNL     1      -8.239   3.963 121.059  0.00  0.00    +0.000 OA
ATOM     78  H   UNL     1      -8.453   4.876 121.290  0.00  0.00    +0.000 HD
ENDBRANCH  74  77
ENDBRANCH  70  71
ENDBRANCH   5  70
BRANCH  23  79
ATOM     79  C   UNL     1      -6.486   4.968 132.907  0.00  0.00    +0.000 C 
BRANCH  79  80
ATOM     80  C   UNL     1      -5.616   4.943 134.198  0.00  0.00    +0.000 C 
BRANCH  80  81
ATOM     81  C   UNL     1      -5.874   3.883 135.207  0.00  0.00    +0.000 C 
ATOM     82  N   UNL     1      -5.709   4.260 136.496  0.00  0.00    +0.000 N 
ATOM     83  O   UNL     1      -6.129   2.728 134.872  0.00  0.00    +0.000 OA
ATOM     84  H   UNL     1      -5.398   5.174 136.785  0.00  0.00    +0.000 HD
ATOM     85  H   UNL     1      -5.950   3.597 137.211  0.00  0.00    +0.000 HD
ENDBRANCH  80  81
ENDBRANCH  79  80
ENDBRANCH  23  79
TORSDOF 19
ENDMDL
MODEL 9
REMARK VINA RESULT:      -8.0      3.783     11.196
REMARK  Name = CHEMBL3814617
REMARK  24 active torsions:
REMARK  status: ('A' for Active; 'I' for Inactive)
REMARK    1  A    between atoms: C_1  and  C_2
REMARK    2  A    between atoms: C_2  and  C_3
REMARK    3  A    between atoms: C_3  and  C_4
REMARK    4  A    between atoms: C_3  and  C_5
REMARK    5  A    between atoms: C_9  and  C_10
REMARK    6  A    between atoms: C_10  and  C_11
REMARK    7  A    between atoms: C_14  and  O_15
REMARK    8  A    between atoms: C_21  and  N_22
REMARK    9  A    between atoms: C_27  and  C_28
REMARK   10  A    between atoms: C_34  and  C_35
REMARK   11  A    between atoms: N_37  and  C_38
REMARK   12  A    between atoms: C_38  and  C_39
REMARK   13  A    between atoms: C_38  and  C_43
REMARK   14  A    between atoms: C_39  and  C_40
REMARK   15  A    between atoms: C_40  and  C_41
REMARK   16  A    between atoms: C_40  and  C_42
REMARK   17  A    between atoms: N_45  and  C_46
REMARK   18  A    between atoms: C_46  and  C_47
REMARK   19  A    between atoms: C_53  and  C_54
REMARK   20  A    between atoms: C_54  and  C_55
REMARK   21  A    between atoms: N_58  and  C_59
REMARK   22  A    between atoms: C_62  and  C_63
REMARK   23  A    between atoms: C_63  and  C_64
REMARK   24  A    between atoms: C_64  and  C_65
REMARK                            x       y       z     vdW  Elec       q    Type
REMARK                         _______ _______ _______ _____ _____    ______ ____
ROOT
ATOM      1  C   UNL     1      -2.956   6.972 132.595  0.00  0.00    +0.000 C 
ATOM      2  N   UNL     1      -2.166   8.265 134.265  0.00  0.00    +0.000 N 
ATOM      3  C   UNL     1      -1.722   9.299 135.704  0.00  0.00    +0.000 C 
ATOM      4  O   UNL     1      -2.033  10.023 136.961  0.00  0.00    +0.000 OA
ATOM      5  C   UNL     1      -0.532  10.037 135.601  0.00  0.00    +0.000 C 
ATOM      6  N   UNL     1      -0.539   8.744 136.649  0.00  0.00    +0.000 N 
ATOM      7  C   UNL     1      -1.605   7.823 137.190  0.00  0.00    +0.000 C 
ATOM      8  O   UNL     1      -1.205   6.674 137.379  0.00  0.00    +0.000 OA
ATOM      9  C   UNL     1      -3.344   8.266 137.178  0.00  0.00    +0.000 C 
ATOM     10  C   UNL     1      -4.059   7.472 136.137  0.00  0.00    +0.000 C 
ATOM     11  S   UNL     1      -3.507   5.762 136.560  0.00  0.00    +0.000 S 
ATOM     12  S   UNL     1      -3.719   4.483 135.046  0.00  0.00    +0.000 S 
ATOM     13  C   UNL     1      -4.850   2.828 135.396  0.00  0.00    +0.000 C 
ATOM     14  C   UNL     1      -5.777   2.199 134.400  0.00  0.00    +0.000 C 
ATOM     15  N   UNL     1      -7.286   2.671 134.532  0.00  0.00    +0.000 N 
ATOM     16  C   UNL     1      -7.949   3.884 134.413  0.00  0.00    +0.000 C 
ATOM     17  O   UNL     1      -9.132   4.173 134.410  0.00  0.00    +0.000 OA
ATOM     18  C   UNL     1      -7.191   5.069 134.206  0.00  0.00    +0.000 C 
ATOM     19  N   UNL     1      -7.274   5.490 132.474  0.00  0.00    +0.000 N 
ATOM     20  C   UNL     1      -8.266   6.429 132.283  0.00  0.00    +0.000 C 
ATOM     21  C   UNL     1      -6.050   6.328 131.664  0.00  0.00    +0.000 C 
ATOM     22  O   UNL     1      -4.802   6.509 132.109  0.00  0.00    +0.000 OA
ATOM     23  C   UNL     1      -6.157   6.361 130.074  0.00  0.00    +0.000 C 
ATOM     24  N   UNL     1      -4.889   7.400 130.066  0.00  0.00    +0.000 N 
ATOM     25  C   UNL     1      -3.476   7.537 130.828  0.00  0.00    +0.000 C 
ATOM     26  O   UNL     1      -2.610   7.544 129.909  0.00  0.00    +0.000 OA
ATOM     27  H   UNL     1      -2.737   8.830 135.155  0.00  0.00    +0.000 HD
ATOM     28  H   UNL     1       0.380   8.398 136.696  0.00  0.00    +0.000 HD
ATOM     29  H   UNL     1      -7.947   1.942 134.749  0.00  0.00    +0.000 HD
ATOM     30  H   UNL     1      -5.172   8.178 129.523  0.00  0.00    +0.000 HD
ENDROOT
BRANCH  14  31
ATOM     31  C   UNL     1      -5.690   0.700 134.705  0.00  0.00    +0.000 C 
ATOM     32  O   UNL     1      -5.148   0.476 135.786  0.00  0.00    +0.000 OA
ATOM     33  N   UNL     1      -6.308  -0.210 133.803  0.00  0.00    +0.000 N 
ATOM     34  C   UNL     1      -6.170  -0.235 132.363  0.00  0.00    +0.000 C 
ATOM     35  C   UNL     1      -7.500  -0.704 131.872  0.00  0.00    +0.000 C 
ATOM     36  C   UNL     1      -7.741  -1.865 132.779  0.00  0.00    +0.000 C 
ATOM     37  C   UNL     1      -7.042  -1.495 134.090  0.00  0.00    +0.000 C 
BRANCH  37  38
ATOM     38  C   UNL     1      -6.127  -2.759 134.145  0.00  0.00    +0.000 C 
ATOM     39  O   UNL     1      -6.666  -3.865 134.292  0.00  0.00    +0.000 OA
ATOM     40  N   UNL     1      -4.787  -2.596 133.692  0.00  0.00    +0.000 N 
ATOM     41  H   UNL     1      -4.321  -1.689 133.673  0.00  0.00    +0.000 HD
BRANCH  40  42
ATOM     42  C   UNL     1      -3.980  -3.737 133.128  0.00  0.00    +0.000 C 
BRANCH  42  43
ATOM     43  C   UNL     1      -2.623  -3.860 133.892  0.00  0.00    +0.000 C 
ATOM     44  O   UNL     1      -1.964  -4.898 133.816  0.00  0.00    +0.000 OA
ATOM     45  N   UNL     1      -2.194  -2.782 134.646  0.00  0.00    +0.000 N 
ATOM     46  H   UNL     1      -2.745  -1.945 134.704  0.00  0.00    +0.000 HD
BRANCH  45  47
ATOM     47  C   UNL     1      -0.928  -2.802 135.385  0.00  0.00    +0.000 C 
BRANCH  47  48
ATOM     48  C   UNL     1       0.286  -2.265 134.597  0.00  0.00    +0.000 C 
ATOM     49  N   UNL     1       0.407  -0.902 134.457  0.00  0.00    +0.000 N 
ATOM     50  O   UNL     1       1.124  -3.019 134.106  0.00  0.00    +0.000 OA
ATOM     51  H   UNL     1      -0.225  -0.213 134.821  0.00  0.00    +0.000 HD
ATOM     52  H   UNL     1       1.194  -0.520 133.945  0.00  0.00    +0.000 HD
ENDBRANCH  47  48
ENDBRANCH  45  47
ENDBRANCH  42  43
BRANCH  42  53
ATOM     53  C   UNL     1      -3.674  -3.634 131.608  0.00  0.00    +0.000 C 
BRANCH  53  54
ATOM     54  C   UNL     1      -4.905  -3.391 130.747  0.00  0.00    +0.000 C 
ATOM     55  C   UNL     1      -4.555  -3.358 129.308  0.00  0.00    +0.000 C 
ATOM     56  C   UNL     1      -5.835  -4.537 130.639  0.00  0.00    +0.000 C 
ENDBRANCH  53  54
ENDBRANCH  42  53
ENDBRANCH  40  42
ENDBRANCH  37  38
ENDBRANCH  14  31
BRANCH   9  57
ATOM     57  N   UNL     1      -3.984   9.702 136.918  0.00  0.00    +0.000 NA
ATOM     58  H   UNL     1      -3.326  10.467 136.747  0.00  0.00    +0.000 HD
ATOM     59  H   UNL     1      -4.015  10.053 137.904  0.00  0.00    +0.000 HD
ENDBRANCH   9  57
BRANCH   1  60
ATOM     60  C   UNL     1      -3.226   5.209 131.546  0.00  0.00    +0.000 C 
ATOM     61  C   UNL     1      -3.041   3.606 130.411  0.00  0.00    +0.000 C 
BRANCH  60  63
ATOM     62  C   UNL     1      -0.717   5.085 132.645  0.00  0.00    +0.000 C 
ATOM     63  C   UNL     1      -2.093   3.952 132.101  0.00  0.00    +0.000 C 
ENDBRANCH  60  63
ENDBRANCH   1  60
BRANCH  18  64
ATOM     64  C   UNL     1      -6.784   6.199 135.199  0.00  0.00    +0.000 C 
BRANCH  64  65
ATOM     65  C   UNL     1      -7.352   6.081 136.615  0.00  0.00    +0.000 C 
ATOM     66  N   UNL     1      -8.609   6.496 136.860  0.00  0.00    +0.000 N 
ATOM     67  O   UNL     1      -6.781   5.457 137.494  0.00  0.00    +0.000 OA
ATOM     68  H   UNL     1      -8.989   6.342 135.966  0.00  0.00    +0.000 HD
ATOM     69  H   UNL     1      -9.258   5.884 137.406  0.00  0.00    +0.000 HD
ENDBRANCH  64  65
ENDBRANCH  18  64
BRANCH   5  70
ATOM     70  C   UNL     1      -1.804  10.648 134.713  0.00  0.00    +0.000 C 
BRANCH  70  71
ATOM     71  C   UNL     1      -1.692  11.716 133.729  0.00  0.00    +0.000 A 
ATOM     72  C   UNL     1      -0.917  11.733 132.589  0.00  0.00    +0.000 A 
ATOM     73  C   UNL     1      -1.094  12.807 131.743  0.00  0.00    +0.000 A 
ATOM     74  C   UNL     1      -1.966  13.832 132.117  0.00  0.00    +0.000 A 
ATOM     75  C   UNL     1      -2.605  13.846 133.341  0.00  0.00    +0.000 A 
ATOM     76  C   UNL     1      -2.443  12.800 134.171  0.00  0.00    +0.000 A 
BRANCH  74  77
ATOM     77  O   UNL     1      -2.260  14.901 131.334  0.00  0.00    +0.000 OA
ATOM     78  H   UNL     1      -3.215  15.036 131.281  0.00  0.00    +0.000 HD
ENDBRANCH  74  77
ENDBRANCH  70  71
ENDBRANCH   5  70
BRANCH  23  79
ATOM     79  C   UNL     1      -6.087   5.067 129.031  0.00  0.00    +0.000 C 
BRANCH  79  80
ATOM     80  C   UNL     1      -7.192   3.972 129.104  0.00  0.00    +0.000 C 
BRANCH  80  81
ATOM     81  C   UNL     1      -8.614   4.402 129.163  0.00  0.00    +0.000 C 
ATOM     82  N   UNL     1      -9.404   3.669 129.980  0.00  0.00    +0.000 N 
ATOM     83  O   UNL     1      -9.040   5.303 128.445  0.00  0.00    +0.000 OA
ATOM     84  H   UNL     1      -9.094   2.861 130.497  0.00  0.00    +0.000 HD
ATOM     85  H   UNL     1     -10.353   3.975 130.110  0.00  0.00    +0.000 HD
ENDBRANCH  80  81
ENDBRANCH  79  80
ENDBRANCH  23  79
TORSDOF 19
ENDMDL
