MODEL 1
REMARK VINA RESULT:     -10.0      0.000      0.000
REMARK  Name = CHEMBL303487
REMARK  9 active torsions:
REMARK  status: ('A' for Active; 'I' for Inactive)
REMARK    1  A    between atoms: C_1  and  O_2
REMARK    2  A    between atoms: O_2  and  C_3
REMARK    3  A    between atoms: C_5  and  O_6
REMARK    4  A    between atoms: O_6  and  C_7
REMARK    5  A    between atoms: N_10  and  C_11
REMARK    6  A    between atoms: C_11  and  C_12
REMARK    7  A    between atoms: C_18  and  C_19
REMARK    8  A    between atoms: C_24  and  C_25
REMARK    9  A    between atoms: C_30  and  N_31
REMARK                            x       y       z     vdW  Elec       q    Type
REMARK                         _______ _______ _______ _____ _____    ______ ____
ROOT
ATOM      1  C   UNL     1      -6.195  -1.266 128.461  0.00  0.00    +0.000 A 
ATOM      2  C   UNL     1      -6.419  -2.146 127.380  0.00  0.00    +0.000 A 
ATOM      3  C   UNL     1      -5.934  -1.851 126.142  0.00  0.00    +0.000 A 
ATOM      4  C   UNL     1      -5.451  -0.581 126.019  0.00  0.00    +0.000 A 
ATOM      5  C   UNL     1      -5.269   0.361 127.020  0.00  0.00    +0.000 A 
ATOM      6  C   UNL     1      -5.584   0.018 128.328  0.00  0.00    +0.000 A 
ENDROOT
BRANCH   6   7
ATOM      7  C   UNL     1      -5.286   1.110 129.374  0.00  0.00    +0.000 C 
ATOM      8  O   UNL     1      -4.094   1.288 129.659  0.00  0.00    +0.000 OA
ATOM      9  N   UNL     1      -6.328   1.938 129.963  0.00  0.00    +0.000 N 
ATOM     10  C   UNL     1      -6.487   3.359 129.439  0.00  0.00    +0.000 C 
ATOM     11  C   UNL     1      -7.330   4.269 130.348  0.00  0.00    +0.000 C 
ATOM     12  C   UNL     1      -9.080   3.730 130.642  0.00  0.00    +0.000 C 
ATOM     13  C   UNL     1      -8.449   2.221 131.400  0.00  0.00    +0.000 C 
ATOM     14  C   UNL     1      -7.573   1.303 130.493  0.00  0.00    +0.000 C 
BRANCH  12  15
ATOM     15  N   UNL     1     -10.692   4.587 130.170  0.00  0.00    +0.000 N 
ATOM     16  C   UNL     1     -10.407   5.369 131.289  0.00  0.00    +0.000 C 
ATOM     17  O   UNL     1     -10.260   4.981 132.503  0.00  0.00    +0.000 OA
ATOM     18  O   UNL     1      -9.985   6.572 130.995  0.00  0.00    +0.000 OA
ATOM     19  C   UNL     1     -11.204   7.186 131.135  0.00  0.00    +0.000 C 
ATOM     20  C   UNL     1     -11.421   7.220 129.676  0.00  0.00    +0.000 A 
ATOM     21  C   UNL     1     -11.769   8.648 129.270  0.00  0.00    +0.000 A 
ATOM     22  C   UNL     1     -12.832   9.104 128.545  0.00  0.00    +0.000 A 
ATOM     23  C   UNL     1     -13.613   8.022 128.249  0.00  0.00    +0.000 A 
ATOM     24  C   UNL     1     -13.130   6.452 128.635  0.00  0.00    +0.000 A 
ATOM     25  C   UNL     1     -11.705   5.919 129.259  0.00  0.00    +0.000 A 
ENDBRANCH  12  15
ENDBRANCH   6   7
BRANCH   1  27
ATOM     26  C   UNL     1      -7.932  -2.322 129.506  0.00  0.00    +0.000 C 
ATOM     27  O   UNL     1      -6.596  -1.937 129.594  0.00  0.00    +0.000 OA
ENDBRANCH   1  27
BRANCH   3  28
ATOM     28  O   UNL     1      -5.884  -2.808 125.188  0.00  0.00    +0.000 OA
BRANCH  28  29
ATOM     29  C   UNL     1      -6.613  -2.764 123.940  0.00  0.00    +0.000 C 
ATOM     30  C   UNL     1      -6.466  -1.604 122.926  0.00  0.00    +0.000 C 
ATOM     31  C   UNL     1      -7.362  -0.384 123.142  0.00  0.00    +0.000 C 
ATOM     32  N   UNL     1      -8.762  -0.777 123.437  0.00  0.00    +0.000 NA
ATOM     33  C   UNL     1      -8.917  -1.900 124.390  0.00  0.00    +0.000 C 
ATOM     34  C   UNL     1      -8.065  -3.118 124.154  0.00  0.00    +0.000 C 
BRANCH  32  35
ATOM     35  C   UNL     1      -9.547   0.416 123.845  0.00  0.00    +0.000 C 
BRANCH  35  36
ATOM     36  C   UNL     1      -8.694   1.603 124.258  0.00  0.00    +0.000 A 
ATOM     37  C   UNL     1      -8.206   2.473 123.267  0.00  0.00    +0.000 A 
ATOM     38  N   UNL     1      -7.125   3.293 123.476  0.00  0.00    +0.000 N 
ATOM     39  O   UNL     1      -6.496   3.792 122.495  0.00  0.00    +0.000 OA
ATOM     40  C   UNL     1      -6.778   3.556 124.770  0.00  0.00    +0.000 A 
ATOM     41  C   UNL     1      -7.462   2.947 125.822  0.00  0.00    +0.000 A 
ATOM     42  C   UNL     1      -8.335   1.879 125.577  0.00  0.00    +0.000 A 
ATOM     43  C   UNL     1      -8.854   1.057 126.720  0.00  0.00    +0.000 C 
ENDBRANCH  35  36
ENDBRANCH  32  35
ENDBRANCH  28  29
ENDBRANCH   3  28
TORSDOF 7
ENDMDL
MODEL 2
REMARK VINA RESULT:     -10.0      3.504      6.295
REMARK  Name = CHEMBL303487
REMARK  9 active torsions:
REMARK  status: ('A' for Active; 'I' for Inactive)
REMARK    1  A    between atoms: C_1  and  O_2
REMARK    2  A    between atoms: O_2  and  C_3
REMARK    3  A    between atoms: C_5  and  O_6
REMARK    4  A    between atoms: O_6  and  C_7
REMARK    5  A    between atoms: N_10  and  C_11
REMARK    6  A    between atoms: C_11  and  C_12
REMARK    7  A    between atoms: C_18  and  C_19
REMARK    8  A    between atoms: C_24  and  C_25
REMARK    9  A    between atoms: C_30  and  N_31
REMARK                            x       y       z     vdW  Elec       q    Type
REMARK                         _______ _______ _______ _____ _____    ______ ____
ROOT
ATOM      1  C   UNL     1      -5.708  -0.070 131.878  0.00  0.00    +0.000 A 
ATOM      2  C   UNL     1      -6.269  -1.365 131.834  0.00  0.00    +0.000 A 
ATOM      3  C   UNL     1      -7.421  -1.591 131.144  0.00  0.00    +0.000 A 
ATOM      4  C   UNL     1      -8.058  -0.457 130.733  0.00  0.00    +0.000 A 
ATOM      5  C   UNL     1      -7.602   0.850 130.807  0.00  0.00    +0.000 A 
ATOM      6  C   UNL     1      -6.342   1.090 131.341  0.00  0.00    +0.000 A 
ENDROOT
BRANCH   6   7
ATOM      7  C   UNL     1      -5.901   2.567 131.321  0.00  0.00    +0.000 C 
ATOM      8  O   UNL     1      -5.561   3.054 132.408  0.00  0.00    +0.000 OA
ATOM      9  N   UNL     1      -5.823   3.347 130.095  0.00  0.00    +0.000 N 
ATOM     10  C   UNL     1      -4.448   3.575 129.484  0.00  0.00    +0.000 C 
ATOM     11  C   UNL     1      -4.409   4.696 128.432  0.00  0.00    +0.000 C 
ATOM     12  C   UNL     1      -5.495   4.457 126.947  0.00  0.00    +0.000 C 
ATOM     13  C   UNL     1      -6.927   4.449 128.043  0.00  0.00    +0.000 C 
ATOM     14  C   UNL     1      -6.964   3.330 129.128  0.00  0.00    +0.000 C 
BRANCH  12  15
ATOM     15  N   UNL     1      -5.018   4.265 125.133  0.00  0.00    +0.000 N 
ATOM     16  C   UNL     1      -5.680   3.044 125.263  0.00  0.00    +0.000 C 
ATOM     17  O   UNL     1      -5.406   2.084 126.068  0.00  0.00    +0.000 OA
ATOM     18  O   UNL     1      -6.855   3.021 124.687  0.00  0.00    +0.000 OA
ATOM     19  C   UNL     1      -6.428   2.429 123.525  0.00  0.00    +0.000 C 
ATOM     20  C   UNL     1      -6.421   3.714 122.802  0.00  0.00    +0.000 A 
ATOM     21  C   UNL     1      -7.227   3.553 121.517  0.00  0.00    +0.000 A 
ATOM     22  C   UNL     1      -6.868   3.842 120.233  0.00  0.00    +0.000 A 
ATOM     23  C   UNL     1      -5.578   4.293 120.265  0.00  0.00    +0.000 A 
ATOM     24  C   UNL     1      -4.767   4.548 121.723  0.00  0.00    +0.000 A 
ATOM     25  C   UNL     1      -5.332   4.455 123.265  0.00  0.00    +0.000 A 
ENDBRANCH  12  15
ENDBRANCH   6   7
BRANCH   1  27
ATOM     26  C   UNL     1      -3.668  -1.086 131.703  0.00  0.00    +0.000 C 
ATOM     27  O   UNL     1      -4.460  -0.210 132.442  0.00  0.00    +0.000 OA
ENDBRANCH   1  27
BRANCH   3  28
ATOM     28  O   UNL     1      -7.798  -2.856 130.850  0.00  0.00    +0.000 OA
BRANCH  28  29
ATOM     29  C   UNL     1      -7.224  -3.659 129.792  0.00  0.00    +0.000 C 
ATOM     30  C   UNL     1      -5.721  -3.609 129.425  0.00  0.00    +0.000 C 
ATOM     31  C   UNL     1      -5.293  -2.533 128.426  0.00  0.00    +0.000 C 
ATOM     32  N   UNL     1      -6.218  -2.460 127.269  0.00  0.00    +0.000 NA
ATOM     33  C   UNL     1      -7.658  -2.528 127.603  0.00  0.00    +0.000 C 
ATOM     34  C   UNL     1      -8.088  -3.613 128.554  0.00  0.00    +0.000 C 
BRANCH  32  35
ATOM     35  C   UNL     1      -5.893  -1.275 126.435  0.00  0.00    +0.000 C 
BRANCH  35  36
ATOM     36  C   UNL     1      -6.641  -1.227 125.114  0.00  0.00    +0.000 A 
ATOM     37  C   UNL     1      -7.775  -0.405 124.998  0.00  0.00    +0.000 A 
ATOM     38  N   UNL     1      -8.730  -0.602 124.032  0.00  0.00    +0.000 N 
ATOM     39  O   UNL     1      -9.886  -0.096 124.156  0.00  0.00    +0.000 OA
ATOM     40  C   UNL     1      -8.375  -1.340 122.940  0.00  0.00    +0.000 A 
ATOM     41  C   UNL     1      -7.110  -1.923 122.863  0.00  0.00    +0.000 A 
ATOM     42  C   UNL     1      -6.284  -1.977 123.993  0.00  0.00    +0.000 A 
ATOM     43  C   UNL     1      -5.053  -2.835 123.983  0.00  0.00    +0.000 C 
ENDBRANCH  35  36
ENDBRANCH  32  35
ENDBRANCH  28  29
ENDBRANCH   3  28
TORSDOF 7
ENDMDL
MODEL 3
REMARK VINA RESULT:     -10.0      2.452      8.230
REMARK  Name = CHEMBL303487
REMARK  9 active torsions:
REMARK  status: ('A' for Active; 'I' for Inactive)
REMARK    1  A    between atoms: C_1  and  O_2
REMARK    2  A    between atoms: O_2  and  C_3
REMARK    3  A    between atoms: C_5  and  O_6
REMARK    4  A    between atoms: O_6  and  C_7
REMARK    5  A    between atoms: N_10  and  C_11
REMARK    6  A    between atoms: C_11  and  C_12
REMARK    7  A    between atoms: C_18  and  C_19
REMARK    8  A    between atoms: C_24  and  C_25
REMARK    9  A    between atoms: C_30  and  N_31
REMARK                            x       y       z     vdW  Elec       q    Type
REMARK                         _______ _______ _______ _____ _____    ______ ____
ROOT
ATOM      1  C   UNL     1      -6.828  -0.576 130.936  0.00  0.00    +0.000 A 
ATOM      2  C   UNL     1      -6.766   0.509 131.837  0.00  0.00    +0.000 A 
ATOM      3  C   UNL     1      -7.464   1.652 131.586  0.00  0.00    +0.000 A 
ATOM      4  C   UNL     1      -7.999   1.715 130.332  0.00  0.00    +0.000 A 
ATOM      5  C   UNL     1      -8.036   0.717 129.370  0.00  0.00    +0.000 A 
ATOM      6  C   UNL     1      -7.492  -0.524 129.673  0.00  0.00    +0.000 A 
ENDROOT
BRANCH   6   7
ATOM      7  C   UNL     1      -7.639  -1.584 128.563  0.00  0.00    +0.000 C 
ATOM      8  O   UNL     1      -8.080  -2.688 128.912  0.00  0.00    +0.000 OA
ATOM      9  N   UNL     1      -7.340  -1.306 127.167  0.00  0.00    +0.000 N 
ATOM     10  C   UNL     1      -8.510  -1.059 126.225  0.00  0.00    +0.000 C 
ATOM     11  C   UNL     1      -8.141  -1.148 124.734  0.00  0.00    +0.000 C 
ATOM     12  C   UNL     1      -6.860   0.054 124.139  0.00  0.00    +0.000 C 
ATOM     13  C   UNL     1      -5.686  -0.686 125.289  0.00  0.00    +0.000 C 
ATOM     14  C   UNL     1      -6.062  -0.621 126.802  0.00  0.00    +0.000 C 
BRANCH  12  15
ATOM     15  N   UNL     1      -7.017   1.439 122.869  0.00  0.00    +0.000 N 
ATOM     16  C   UNL     1      -6.941   2.254 123.999  0.00  0.00    +0.000 C 
ATOM     17  O   UNL     1      -7.727   2.268 125.012  0.00  0.00    +0.000 OA
ATOM     18  O   UNL     1      -5.788   2.859 124.132  0.00  0.00    +0.000 OA
ATOM     19  C   UNL     1      -6.185   4.042 123.561  0.00  0.00    +0.000 C 
ATOM     20  C   UNL     1      -5.536   3.712 122.280  0.00  0.00    +0.000 A 
ATOM     21  C   UNL     1      -4.632   4.873 121.879  0.00  0.00    +0.000 A 
ATOM     22  C   UNL     1      -4.591   5.568 120.705  0.00  0.00    +0.000 A 
ATOM     23  C   UNL     1      -5.570   5.059 119.899  0.00  0.00    +0.000 A 
ATOM     24  C   UNL     1      -6.473   3.706 120.352  0.00  0.00    +0.000 A 
ATOM     25  C   UNL     1      -6.300   2.723 121.659  0.00  0.00    +0.000 A 
ENDBRANCH  12  15
ENDBRANCH   6   7
BRANCH   1  27
ATOM     26  C   UNL     1      -7.090  -2.265 132.453  0.00  0.00    +0.000 C 
ATOM     27  O   UNL     1      -6.219  -1.636 131.568  0.00  0.00    +0.000 OA
ENDBRANCH   1  27
BRANCH   3  28
ATOM     28  O   UNL     1      -7.648   2.564 132.567  0.00  0.00    +0.000 OA
BRANCH  28  29
ATOM     29  C   UNL     1      -8.931   3.107 132.954  0.00  0.00    +0.000 C 
ATOM     30  C   UNL     1     -10.127   3.207 131.976  0.00  0.00    +0.000 C 
ATOM     31  C   UNL     1     -10.199   4.461 131.104  0.00  0.00    +0.000 C 
ATOM     32  N   UNL     1      -9.936   5.691 131.890  0.00  0.00    +0.000 NA
ATOM     33  C   UNL     1      -8.808   5.603 132.845  0.00  0.00    +0.000 C 
ATOM     34  C   UNL     1      -8.759   4.389 133.733  0.00  0.00    +0.000 C 
BRANCH  32  35
ATOM     35  C   UNL     1      -9.807   6.857 130.979  0.00  0.00    +0.000 C 
BRANCH  35  36
ATOM     36  C   UNL     1     -10.836   6.881 129.861  0.00  0.00    +0.000 A 
ATOM     37  C   UNL     1     -10.428   6.583 128.549  0.00  0.00    +0.000 A 
ATOM     38  N   UNL     1     -11.149   6.974 127.448  0.00  0.00    +0.000 N 
ATOM     39  O   UNL     1     -10.608   7.011 126.303  0.00  0.00    +0.000 OA
ATOM     40  C   UNL     1     -12.462   7.296 127.641  0.00  0.00    +0.000 A 
ATOM     41  C   UNL     1     -13.009   7.293 128.924  0.00  0.00    +0.000 A 
ATOM     42  C   UNL     1     -12.178   7.208 130.049  0.00  0.00    +0.000 A 
ATOM     43  C   UNL     1     -12.736   7.476 131.416  0.00  0.00    +0.000 C 
ENDBRANCH  35  36
ENDBRANCH  32  35
ENDBRANCH  28  29
ENDBRANCH   3  28
TORSDOF 7
ENDMDL
MODEL 4
REMARK VINA RESULT:     -10.0      3.182      9.336
REMARK  Name = CHEMBL303487
REMARK  9 active torsions:
REMARK  status: ('A' for Active; 'I' for Inactive)
REMARK    1  A    between atoms: C_1  and  O_2
REMARK    2  A    between atoms: O_2  and  C_3
REMARK    3  A    between atoms: C_5  and  O_6
REMARK    4  A    between atoms: O_6  and  C_7
REMARK    5  A    between atoms: N_10  and  C_11
REMARK    6  A    between atoms: C_11  and  C_12
REMARK    7  A    between atoms: C_18  and  C_19
REMARK    8  A    between atoms: C_24  and  C_25
REMARK    9  A    between atoms: C_30  and  N_31
REMARK                            x       y       z     vdW  Elec       q    Type
REMARK                         _______ _______ _______ _____ _____    ______ ____
ROOT
ATOM      1  C   UNL     1      -4.761   6.708 130.612  0.00  0.00    +0.000 A 
ATOM      2  C   UNL     1      -5.354   6.656 131.892  0.00  0.00    +0.000 A 
ATOM      3  C   UNL     1      -4.974   5.702 132.787  0.00  0.00    +0.000 A 
ATOM      4  C   UNL     1      -4.185   4.723 132.258  0.00  0.00    +0.000 A 
ATOM      5  C   UNL     1      -3.625   4.671 130.991  0.00  0.00    +0.000 A 
ATOM      6  C   UNL     1      -3.847   5.728 130.118  0.00  0.00    +0.000 A 
ENDROOT
BRANCH   6   7
ATOM      7  C   UNL     1      -3.130   5.607 128.759  0.00  0.00    +0.000 C 
ATOM      8  O   UNL     1      -2.175   6.374 128.571  0.00  0.00    +0.000 OA
ATOM      9  N   UNL     1      -3.500   4.615 127.761  0.00  0.00    +0.000 N 
ATOM     10  C   UNL     1      -2.623   3.378 127.630  0.00  0.00    +0.000 C 
ATOM     11  C   UNL     1      -2.853   2.583 126.334  0.00  0.00    +0.000 C 
ATOM     12  C   UNL     1      -4.564   1.916 126.080  0.00  0.00    +0.000 C 
ATOM     13  C   UNL     1      -5.187   3.608 126.091  0.00  0.00    +0.000 C 
ATOM     14  C   UNL     1      -4.938   4.429 127.394  0.00  0.00    +0.000 C 
BRANCH  12  15
ATOM     15  N   UNL     1      -5.145   0.125 125.959  0.00  0.00    +0.000 N 
ATOM     16  C   UNL     1      -5.762   0.421 127.175  0.00  0.00    +0.000 C 
ATOM     17  O   UNL     1      -5.207   0.807 128.265  0.00  0.00    +0.000 OA
ATOM     18  O   UNL     1      -7.058   0.575 127.081  0.00  0.00    +0.000 OA
ATOM     19  C   UNL     1      -7.378  -0.703 127.467  0.00  0.00    +0.000 C 
ATOM     20  C   UNL     1      -7.620  -1.127 126.076  0.00  0.00    +0.000 A 
ATOM     21  C   UNL     1      -8.996  -1.779 125.999  0.00  0.00    +0.000 A 
ATOM     22  C   UNL     1      -9.345  -2.999 125.495  0.00  0.00    +0.000 A 
ATOM     23  C   UNL     1      -8.195  -3.607 125.075  0.00  0.00    +0.000 A 
ATOM     24  C   UNL     1      -6.713  -2.800 125.089  0.00  0.00    +0.000 A 
ATOM     25  C   UNL     1      -6.381  -1.228 125.442  0.00  0.00    +0.000 A 
ENDBRANCH  12  15
ENDBRANCH   6   7
BRANCH   1  27
ATOM     26  C   UNL     1      -4.142   8.820 129.993  0.00  0.00    +0.000 C 
ATOM     27  O   UNL     1      -5.178   7.890 130.043  0.00  0.00    +0.000 OA
ENDBRANCH   1  27
BRANCH   3  28
ATOM     28  O   UNL     1      -5.311   5.824 134.091  0.00  0.00    +0.000 OA
BRANCH  28  29
ATOM     29  C   UNL     1      -6.328   5.039 134.755  0.00  0.00    +0.000 C 
ATOM     30  C   UNL     1      -6.581   3.547 134.425  0.00  0.00    +0.000 C 
ATOM     31  C   UNL     1      -7.536   3.251 133.269  0.00  0.00    +0.000 C 
ATOM     32  N   UNL     1      -8.760   4.087 133.340  0.00  0.00    +0.000 NA
ATOM     33  C   UNL     1      -8.535   5.511 133.675  0.00  0.00    +0.000 C 
ATOM     34  C   UNL     1      -7.627   5.804 134.840  0.00  0.00    +0.000 C 
BRANCH  32  35
ATOM     35  C   UNL     1      -9.558   3.924 132.098  0.00  0.00    +0.000 C 
BRANCH  35  36
ATOM     36  C   UNL     1      -9.994   5.236 131.470  0.00  0.00    +0.000 A 
ATOM     37  C   UNL     1     -11.133   5.890 131.970  0.00  0.00    +0.000 A 
ATOM     38  N   UNL     1     -11.832   6.816 131.237  0.00  0.00    +0.000 N 
ATOM     39  O   UNL     1     -13.021   7.123 131.550  0.00  0.00    +0.000 OA
ATOM     40  C   UNL     1     -11.187   7.395 130.182  0.00  0.00    +0.000 A 
ATOM     41  C   UNL     1      -9.897   6.994 129.836  0.00  0.00    +0.000 A 
ATOM     42  C   UNL     1      -9.341   5.835 130.392  0.00  0.00    +0.000 A 
ATOM     43  C   UNL     1      -8.077   5.260 129.823  0.00  0.00    +0.000 C 
ENDBRANCH  35  36
ENDBRANCH  32  35
ENDBRANCH  28  29
ENDBRANCH   3  28
TORSDOF 7
ENDMDL
MODEL 5
REMARK VINA RESULT:      -9.9      3.390      9.101
REMARK  Name = CHEMBL303487
REMARK  9 active torsions:
REMARK  status: ('A' for Active; 'I' for Inactive)
REMARK    1  A    between atoms: C_1  and  O_2
REMARK    2  A    between atoms: O_2  and  C_3
REMARK    3  A    between atoms: C_5  and  O_6
REMARK    4  A    between atoms: O_6  and  C_7
REMARK    5  A    between atoms: N_10  and  C_11
REMARK    6  A    between atoms: C_11  and  C_12
REMARK    7  A    between atoms: C_18  and  C_19
REMARK    8  A    between atoms: C_24  and  C_25
REMARK    9  A    between atoms: C_30  and  N_31
REMARK                            x       y       z     vdW  Elec       q    Type
REMARK                         _______ _______ _______ _____ _____    ______ ____
ROOT
ATOM      1  C   UNL     1      -4.638   6.339 130.923  0.00  0.00    +0.000 A 
ATOM      2  C   UNL     1      -5.112   6.223 132.247  0.00  0.00    +0.000 A 
ATOM      3  C   UNL     1      -4.488   5.395 133.131  0.00  0.00    +0.000 A 
ATOM      4  C   UNL     1      -3.565   4.566 132.563  0.00  0.00    +0.000 A 
ATOM      5  C   UNL     1      -3.102   4.575 131.256  0.00  0.00    +0.000 A 
ATOM      6  C   UNL     1      -3.591   5.535 130.379  0.00  0.00    +0.000 A 
ENDROOT
BRANCH   6   7
ATOM      7  C   UNL     1      -2.968   5.502 128.970  0.00  0.00    +0.000 C 
ATOM      8  O   UNL     1      -2.036   6.292 128.762  0.00  0.00    +0.000 OA
ATOM      9  N   UNL     1      -3.395   4.562 127.944  0.00  0.00    +0.000 N 
ATOM     10  C   UNL     1      -2.515   3.348 127.683  0.00  0.00    +0.000 C 
ATOM     11  C   UNL     1      -2.825   2.625 126.361  0.00  0.00    +0.000 C 
ATOM     12  C   UNL     1      -4.542   1.947 126.187  0.00  0.00    +0.000 C 
ATOM     13  C   UNL     1      -5.181   3.626 126.338  0.00  0.00    +0.000 C 
ATOM     14  C   UNL     1      -4.852   4.376 127.666  0.00  0.00    +0.000 C 
BRANCH  12  15
ATOM     15  N   UNL     1      -5.110   0.158 126.004  0.00  0.00    +0.000 N 
ATOM     16  C   UNL     1      -5.758   0.417 127.211  0.00  0.00    +0.000 C 
ATOM     17  O   UNL     1      -5.233   0.776 128.324  0.00  0.00    +0.000 OA
ATOM     18  O   UNL     1      -7.053   0.567 127.089  0.00  0.00    +0.000 OA
ATOM     19  C   UNL     1      -7.375  -0.722 127.432  0.00  0.00    +0.000 C 
ATOM     20  C   UNL     1      -7.580  -1.109 126.024  0.00  0.00    +0.000 A 
ATOM     21  C   UNL     1      -8.950  -1.766 125.895  0.00  0.00    +0.000 A 
ATOM     22  C   UNL     1      -9.279  -2.973 125.350  0.00  0.00    +0.000 A 
ATOM     23  C   UNL     1      -8.116  -3.564 124.943  0.00  0.00    +0.000 A 
ATOM     24  C   UNL     1      -6.640  -2.750 125.015  0.00  0.00    +0.000 A 
ATOM     25  C   UNL     1      -6.324  -1.187 125.419  0.00  0.00    +0.000 A 
ENDBRANCH  12  15
ENDBRANCH   6   7
BRANCH   1  27
ATOM     26  C   UNL     1      -4.457   8.446 130.056  0.00  0.00    +0.000 C 
ATOM     27  O   UNL     1      -5.318   7.396 130.362  0.00  0.00    +0.000 OA
ENDBRANCH   1  27
BRANCH   3  28
ATOM     28  O   UNL     1      -4.742   5.500 134.455  0.00  0.00    +0.000 OA
BRANCH  28  29
ATOM     29  C   UNL     1      -5.526   4.554 135.219  0.00  0.00    +0.000 C 
ATOM     30  C   UNL     1      -5.793   3.108 134.737  0.00  0.00    +0.000 C 
ATOM     31  C   UNL     1      -6.997   2.900 133.818  0.00  0.00    +0.000 C 
ATOM     32  N   UNL     1      -8.195   3.621 134.313  0.00  0.00    +0.000 NA
ATOM     33  C   UNL     1      -7.951   4.999 134.796  0.00  0.00    +0.000 C 
ATOM     34  C   UNL     1      -6.791   5.197 135.734  0.00  0.00    +0.000 C 
BRANCH  32  35
ATOM     35  C   UNL     1      -9.274   3.569 133.293  0.00  0.00    +0.000 C 
BRANCH  35  36
ATOM     36  C   UNL     1      -8.774   3.331 131.879  0.00  0.00    +0.000 A 
ATOM     37  C   UNL     1      -8.177   4.392 131.176  0.00  0.00    +0.000 A 
ATOM     38  N   UNL     1      -8.081   4.406 129.807  0.00  0.00    +0.000 N 
ATOM     39  O   UNL     1      -7.871   5.491 129.187  0.00  0.00    +0.000 OA
ATOM     40  C   UNL     1      -8.201   3.212 129.158  0.00  0.00    +0.000 A 
ATOM     41  C   UNL     1      -8.484   2.046 129.870  0.00  0.00    +0.000 A 
ATOM     42  C   UNL     1      -8.893   2.114 131.208  0.00  0.00    +0.000 A 
ATOM     43  C   UNL     1      -9.453   0.897 131.885  0.00  0.00    +0.000 C 
ENDBRANCH  35  36
ENDBRANCH  32  35
ENDBRANCH  28  29
ENDBRANCH   3  28
TORSDOF 7
ENDMDL
MODEL 6
REMARK VINA RESULT:      -9.9      2.321      4.266
REMARK  Name = CHEMBL303487
REMARK  9 active torsions:
REMARK  status: ('A' for Active; 'I' for Inactive)
REMARK    1  A    between atoms: C_1  and  O_2
REMARK    2  A    between atoms: O_2  and  C_3
REMARK    3  A    between atoms: C_5  and  O_6
REMARK    4  A    between atoms: O_6  and  C_7
REMARK    5  A    between atoms: N_10  and  C_11
REMARK    6  A    between atoms: C_11  and  C_12
REMARK    7  A    between atoms: C_18  and  C_19
REMARK    8  A    between atoms: C_24  and  C_25
REMARK    9  A    between atoms: C_30  and  N_31
REMARK                            x       y       z     vdW  Elec       q    Type
REMARK                         _______ _______ _______ _____ _____    ______ ____
ROOT
ATOM      1  C   UNL     1      -6.933   0.634 131.333  0.00  0.00    +0.000 A 
ATOM      2  C   UNL     1      -7.147  -0.601 130.684  0.00  0.00    +0.000 A 
ATOM      3  C   UNL     1      -7.222  -1.753 131.406  0.00  0.00    +0.000 A 
ATOM      4  C   UNL     1      -6.851  -1.619 132.712  0.00  0.00    +0.000 A 
ATOM      5  C   UNL     1      -6.559  -0.451 133.399  0.00  0.00    +0.000 A 
ATOM      6  C   UNL     1      -6.656   0.762 132.729  0.00  0.00    +0.000 A 
ENDROOT
BRANCH   6   7
ATOM      7  C   UNL     1      -6.373   2.005 133.595  0.00  0.00    +0.000 C 
ATOM      8  O   UNL     1      -5.429   1.917 134.392  0.00  0.00    +0.000 OA
ATOM      9  N   UNL     1      -7.122   3.245 133.456  0.00  0.00    +0.000 N 
ATOM     10  C   UNL     1      -6.467   4.391 132.700  0.00  0.00    +0.000 C 
ATOM     11  C   UNL     1      -7.145   5.754 132.920  0.00  0.00    +0.000 C 
ATOM     12  C   UNL     1      -8.922   5.872 132.405  0.00  0.00    +0.000 C 
ATOM     13  C   UNL     1      -9.317   4.588 133.608  0.00  0.00    +0.000 C 
ATOM     14  C   UNL     1      -8.616   3.209 133.406  0.00  0.00    +0.000 C 
BRANCH  12  15
ATOM     15  N   UNL     1      -9.714   6.948 131.074  0.00  0.00    +0.000 N 
ATOM     16  C   UNL     1      -9.537   5.810 130.287  0.00  0.00    +0.000 C 
ATOM     17  O   UNL     1      -8.438   5.211 130.008  0.00  0.00    +0.000 OA
ATOM     18  O   UNL     1     -10.647   5.158 130.052  0.00  0.00    +0.000 OA
ATOM     19  C   UNL     1     -10.880   5.719 128.821  0.00  0.00    +0.000 C 
ATOM     20  C   UNL     1     -11.884   6.649 129.369  0.00  0.00    +0.000 A 
ATOM     21  C   UNL     1     -13.161   6.526 128.545  0.00  0.00    +0.000 A 
ATOM     22  C   UNL     1     -13.887   7.505 127.930  0.00  0.00    +0.000 A 
ATOM     23  C   UNL     1     -13.237   8.688 128.145  0.00  0.00    +0.000 A 
ATOM     24  C   UNL     1     -11.885   8.781 129.151  0.00  0.00    +0.000 A 
ATOM     25  C   UNL     1     -11.205   7.624 130.101  0.00  0.00    +0.000 A 
ENDBRANCH  12  15
ENDBRANCH   6   7
BRANCH   1  27
ATOM     26  C   UNL     1      -8.475   1.698 130.024  0.00  0.00    +0.000 C 
ATOM     27  O   UNL     1      -7.133   1.609 130.383  0.00  0.00    +0.000 OA
ENDBRANCH   1  27
BRANCH   3  28
ATOM     28  O   UNL     1      -7.715  -2.877 130.839  0.00  0.00    +0.000 OA
BRANCH  28  29
ATOM     29  C   UNL     1      -7.056  -3.628 129.793  0.00  0.00    +0.000 C 
ATOM     30  C   UNL     1      -5.556  -3.451 129.455  0.00  0.00    +0.000 C 
ATOM     31  C   UNL     1      -5.200  -2.342 128.466  0.00  0.00    +0.000 C 
ATOM     32  N   UNL     1      -6.105  -2.344 127.290  0.00  0.00    +0.000 NA
ATOM     33  C   UNL     1      -7.541  -2.534 127.596  0.00  0.00    +0.000 C 
ATOM     34  C   UNL     1      -7.896  -3.652 128.539  0.00  0.00    +0.000 C 
BRANCH  32  35
ATOM     35  C   UNL     1      -5.864  -1.135 126.463  0.00  0.00    +0.000 C 
BRANCH  35  36
ATOM     36  C   UNL     1      -6.610  -1.135 125.140  0.00  0.00    +0.000 A 
ATOM     37  C   UNL     1      -7.698  -0.260 124.967  0.00  0.00    +0.000 A 
ATOM     38  N   UNL     1      -8.664  -0.468 124.014  0.00  0.00    +0.000 N 
ATOM     39  O   UNL     1      -9.789   0.109 124.101  0.00  0.00    +0.000 OA
ATOM     40  C   UNL     1      -8.353  -1.297 122.975  0.00  0.00    +0.000 A 
ATOM     41  C   UNL     1      -7.123  -1.954 122.940  0.00  0.00    +0.000 A 
ATOM     42  C   UNL     1      -6.299  -1.978 124.073  0.00  0.00    +0.000 A 
ATOM     43  C   UNL     1      -5.118  -2.902 124.123  0.00  0.00    +0.000 C 
ENDBRANCH  35  36
ENDBRANCH  32  35
ENDBRANCH  28  29
ENDBRANCH   3  28
TORSDOF 7
ENDMDL
MODEL 7
REMARK VINA RESULT:      -9.8      3.923      7.320
REMARK  Name = CHEMBL303487
REMARK  9 active torsions:
REMARK  status: ('A' for Active; 'I' for Inactive)
REMARK    1  A    between atoms: C_1  and  O_2
REMARK    2  A    between atoms: O_2  and  C_3
REMARK    3  A    between atoms: C_5  and  O_6
REMARK    4  A    between atoms: O_6  and  C_7
REMARK    5  A    between atoms: N_10  and  C_11
REMARK    6  A    between atoms: C_11  and  C_12
REMARK    7  A    between atoms: C_18  and  C_19
REMARK    8  A    between atoms: C_24  and  C_25
REMARK    9  A    between atoms: C_30  and  N_31
REMARK                            x       y       z     vdW  Elec       q    Type
REMARK                         _______ _______ _______ _____ _____    ______ ____
ROOT
ATOM      1  C   UNL     1      -8.426   1.439 124.861  0.00  0.00    +0.000 A 
ATOM      2  C   UNL     1      -9.027   0.259 124.372  0.00  0.00    +0.000 A 
ATOM      3  C   UNL     1      -8.398  -0.491 123.425  0.00  0.00    +0.000 A 
ATOM      4  C   UNL     1      -7.312   0.114 122.864  0.00  0.00    +0.000 A 
ATOM      5  C   UNL     1      -6.709   1.304 123.243  0.00  0.00    +0.000 A 
ATOM      6  C   UNL     1      -7.223   1.998 124.331  0.00  0.00    +0.000 A 
ENDROOT
BRANCH   6   7
ATOM      7  C   UNL     1      -6.446   3.273 124.712  0.00  0.00    +0.000 C 
ATOM      8  O   UNL     1      -6.589   4.249 123.961  0.00  0.00    +0.000 OA
ATOM      9  N   UNL     1      -5.633   3.367 125.915  0.00  0.00    +0.000 N 
ATOM     10  C   UNL     1      -6.212   4.113 127.108  0.00  0.00    +0.000 C 
ATOM     11  C   UNL     1      -5.172   4.487 128.177  0.00  0.00    +0.000 C 
ATOM     12  C   UNL     1      -4.267   3.073 128.963  0.00  0.00    +0.000 C 
ATOM     13  C   UNL     1      -3.613   2.637 127.340  0.00  0.00    +0.000 C 
ATOM     14  C   UNL     1      -4.663   2.278 126.243  0.00  0.00    +0.000 C 
BRANCH  12  15
ATOM     15  N   UNL     1      -4.265   2.504 130.762  0.00  0.00    +0.000 N 
ATOM     16  C   UNL     1      -5.266   1.643 130.314  0.00  0.00    +0.000 C 
ATOM     17  O   UNL     1      -6.389   1.954 129.778  0.00  0.00    +0.000 OA
ATOM     18  O   UNL     1      -4.873   0.400 130.193  0.00  0.00    +0.000 OA
ATOM     19  C   UNL     1      -5.349  -0.015 131.411  0.00  0.00    +0.000 C 
ATOM     20  C   UNL     1      -4.008   0.045 132.022  0.00  0.00    +0.000 A 
ATOM     21  C   UNL     1      -3.722  -1.292 132.699  0.00  0.00    +0.000 A 
ATOM     22  C   UNL     1      -3.323  -1.541 133.980  0.00  0.00    +0.000 A 
ATOM     23  C   UNL     1      -3.248  -0.337 134.623  0.00  0.00    +0.000 A 
ATOM     24  C   UNL     1      -3.475   1.118 133.799  0.00  0.00    +0.000 A 
ATOM     25  C   UNL     1      -3.677   1.390 132.190  0.00  0.00    +0.000 A 
ENDBRANCH  12  15
ENDBRANCH   6   7
BRANCH   1  27
ATOM     26  C   UNL     1      -8.669   1.311 127.130  0.00  0.00    +0.000 C 
ATOM     27  O   UNL     1      -9.178   1.834 125.944  0.00  0.00    +0.000 OA
ENDBRANCH   1  27
BRANCH   3  28
ATOM     28  O   UNL     1      -8.813  -1.753 123.173  0.00  0.00    +0.000 OA
BRANCH  28  29
ATOM     29  C   UNL     1      -8.524  -2.896 124.012  0.00  0.00    +0.000 C 
ATOM     30  C   UNL     1      -9.264  -3.165 125.344  0.00  0.00    +0.000 C 
ATOM     31  C   UNL     1      -8.701  -2.488 126.593  0.00  0.00    +0.000 C 
ATOM     32  N   UNL     1      -7.224  -2.616 126.667  0.00  0.00    +0.000 NA
ATOM     33  C   UNL     1      -6.504  -2.382 125.395  0.00  0.00    +0.000 C 
ATOM     34  C   UNL     1      -7.034  -3.080 124.172  0.00  0.00    +0.000 C 
BRANCH  32  35
ATOM     35  C   UNL     1      -6.698  -1.774 127.771  0.00  0.00    +0.000 C 
BRANCH  35  36
ATOM     36  C   UNL     1      -5.924  -2.551 128.823  0.00  0.00    +0.000 A 
ATOM     37  C   UNL     1      -4.529  -2.665 128.701  0.00  0.00    +0.000 A 
ATOM     38  N   UNL     1      -3.814  -3.655 129.329  0.00  0.00    +0.000 N 
ATOM     39  O   UNL     1      -2.646  -3.953 128.939  0.00  0.00    +0.000 OA
ATOM     40  C   UNL     1      -4.406  -4.279 130.389  0.00  0.00    +0.000 A 
ATOM     41  C   UNL     1      -5.713  -3.960 130.757  0.00  0.00    +0.000 A 
ATOM     42  C   UNL     1      -6.521  -3.191 129.909  0.00  0.00    +0.000 A 
ATOM     43  C   UNL     1      -7.994  -3.078 130.174  0.00  0.00    +0.000 C 
ENDBRANCH  35  36
ENDBRANCH  32  35
ENDBRANCH  28  29
ENDBRANCH   3  28
TORSDOF 7
ENDMDL
MODEL 8
REMARK VINA RESULT:      -9.8      2.797      7.959
REMARK  Name = CHEMBL303487
REMARK  9 active torsions:
REMARK  status: ('A' for Active; 'I' for Inactive)
REMARK    1  A    between atoms: C_1  and  O_2
REMARK    2  A    between atoms: O_2  and  C_3
REMARK    3  A    between atoms: C_5  and  O_6
REMARK    4  A    between atoms: O_6  and  C_7
REMARK    5  A    between atoms: N_10  and  C_11
REMARK    6  A    between atoms: C_11  and  C_12
REMARK    7  A    between atoms: C_18  and  C_19
REMARK    8  A    between atoms: C_24  and  C_25
REMARK    9  A    between atoms: C_30  and  N_31
REMARK                            x       y       z     vdW  Elec       q    Type
REMARK                         _______ _______ _______ _____ _____    ______ ____
ROOT
ATOM      1  C   UNL     1      -7.952   2.595 133.348  0.00  0.00    +0.000 A 
ATOM      2  C   UNL     1      -8.062   4.002 133.324  0.00  0.00    +0.000 A 
ATOM      3  C   UNL     1      -6.946   4.781 133.370  0.00  0.00    +0.000 A 
ATOM      4  C   UNL     1      -5.802   4.099 133.667  0.00  0.00    +0.000 A 
ATOM      5  C   UNL     1      -5.631   2.728 133.777  0.00  0.00    +0.000 A 
ATOM      6  C   UNL     1      -6.722   1.898 133.551  0.00  0.00    +0.000 A 
ENDROOT
BRANCH   6   7
ATOM      7  C   UNL     1      -6.416   0.389 133.634  0.00  0.00    +0.000 C 
ATOM      8  O   UNL     1      -6.184  -0.063 134.764  0.00  0.00    +0.000 OA
ATOM      9  N   UNL     1      -6.452  -0.484 132.471  0.00  0.00    +0.000 N 
ATOM     10  C   UNL     1      -7.672  -1.375 132.289  0.00  0.00    +0.000 C 
ATOM     11  C   UNL     1      -7.470  -2.513 131.274  0.00  0.00    +0.000 C 
ATOM     12  C   UNL     1      -7.064  -1.995 129.540  0.00  0.00    +0.000 C 
ATOM     13  C   UNL     1      -5.563  -1.215 130.164  0.00  0.00    +0.000 C 
ATOM     14  C   UNL     1      -5.758  -0.075 131.211  0.00  0.00    +0.000 C 
BRANCH  12  15
ATOM     15  N   UNL     1      -8.046  -2.257 127.951  0.00  0.00    +0.000 N 
ATOM     16  C   UNL     1      -7.825  -0.889 127.789  0.00  0.00    +0.000 C 
ATOM     17  O   UNL     1      -8.180   0.063 128.572  0.00  0.00    +0.000 OA
ATOM     18  O   UNL     1      -6.927  -0.607 126.880  0.00  0.00    +0.000 OA
ATOM     19  C   UNL     1      -7.823  -0.371 125.867  0.00  0.00    +0.000 C 
ATOM     20  C   UNL     1      -7.590  -1.699 125.270  0.00  0.00    +0.000 A 
ATOM     21  C   UNL     1      -7.260  -1.517 123.792  0.00  0.00    +0.000 A 
ATOM     22  C   UNL     1      -7.831  -2.108 122.703  0.00  0.00    +0.000 A 
ATOM     23  C   UNL     1      -8.835  -2.915 123.159  0.00  0.00    +0.000 A 
ATOM     24  C   UNL     1      -9.090  -3.160 124.810  0.00  0.00    +0.000 A 
ATOM     25  C   UNL     1      -8.198  -2.648 126.094  0.00  0.00    +0.000 A 
ENDBRANCH  12  15
ENDBRANCH   6   7
BRANCH   1  27
ATOM     26  C   UNL     1      -9.371   1.909 131.694  0.00  0.00    +0.000 C 
ATOM     27  O   UNL     1      -9.205   2.105 133.063  0.00  0.00    +0.000 OA
ENDBRANCH   1  27
BRANCH   3  28
ATOM     28  O   UNL     1      -7.020   6.093 133.050  0.00  0.00    +0.000 OA
BRANCH  28  29
ATOM     29  C   UNL     1      -7.079   6.608 131.700  0.00  0.00    +0.000 C 
ATOM     30  C   UNL     1      -8.361   6.542 130.835  0.00  0.00    +0.000 C 
ATOM     31  C   UNL     1      -8.584   5.260 130.032  0.00  0.00    +0.000 C 
ATOM     32  N   UNL     1      -7.346   4.824 129.341  0.00  0.00    +0.000 NA
ATOM     33  C   UNL     1      -6.108   4.901 130.149  0.00  0.00    +0.000 C 
ATOM     34  C   UNL     1      -5.867   6.179 130.908  0.00  0.00    +0.000 C 
BRANCH  32  35
ATOM     35  C   UNL     1      -7.544   3.476 128.749  0.00  0.00    +0.000 C 
BRANCH  35  36
ATOM     36  C   UNL     1      -6.997   3.335 127.339  0.00  0.00    +0.000 A 
ATOM     37  C   UNL     1      -7.724   3.878 126.265  0.00  0.00    +0.000 A 
ATOM     38  N   UNL     1      -7.547   3.458 124.971  0.00  0.00    +0.000 N 
ATOM     39  O   UNL     1      -8.429   3.691 124.091  0.00  0.00    +0.000 OA
ATOM     40  C   UNL     1      -6.385   2.804 124.677  0.00  0.00    +0.000 A 
ATOM     41  C   UNL     1      -5.461   2.520 125.682  0.00  0.00    +0.000 A 
ATOM     42  C   UNL     1      -5.811   2.670 127.030  0.00  0.00    +0.000 A 
ATOM     43  C   UNL     1      -4.922   2.111 128.103  0.00  0.00    +0.000 C 
ENDBRANCH  35  36
ENDBRANCH  32  35
ENDBRANCH  28  29
ENDBRANCH   3  28
TORSDOF 7
ENDMDL
MODEL 9
REMARK VINA RESULT:      -9.6      1.631      2.518
REMARK  Name = CHEMBL303487
REMARK  9 active torsions:
REMARK  status: ('A' for Active; 'I' for Inactive)
REMARK    1  A    between atoms: C_1  and  O_2
REMARK    2  A    between atoms: O_2  and  C_3
REMARK    3  A    between atoms: C_5  and  O_6
REMARK    4  A    between atoms: O_6  and  C_7
REMARK    5  A    between atoms: N_10  and  C_11
REMARK    6  A    between atoms: C_11  and  C_12
REMARK    7  A    between atoms: C_18  and  C_19
REMARK    8  A    between atoms: C_24  and  C_25
REMARK    9  A    between atoms: C_30  and  N_31
REMARK                            x       y       z     vdW  Elec       q    Type
REMARK                         _______ _______ _______ _____ _____    ______ ____
ROOT
ATOM      1  C   UNL     1      -5.560   0.201 128.736  0.00  0.00    +0.000 A 
ATOM      2  C   UNL     1      -5.309  -0.091 127.378  0.00  0.00    +0.000 A 
ATOM      3  C   UNL     1      -5.574  -1.331 126.881  0.00  0.00    +0.000 A 
ATOM      4  C   UNL     1      -5.861  -2.265 127.834  0.00  0.00    +0.000 A 
ATOM      5  C   UNL     1      -6.052  -2.065 129.192  0.00  0.00    +0.000 A 
ATOM      6  C   UNL     1      -5.969  -0.774 129.697  0.00  0.00    +0.000 A 
ENDROOT
BRANCH   6   7
ATOM      7  C   UNL     1      -6.260  -0.648 131.205  0.00  0.00    +0.000 C 
ATOM      8  O   UNL     1      -5.576  -1.356 131.958  0.00  0.00    +0.000 OA
ATOM      9  N   UNL     1      -7.236   0.288 131.741  0.00  0.00    +0.000 N 
ATOM     10  C   UNL     1      -6.717   1.575 132.367  0.00  0.00    +0.000 C 
ATOM     11  C   UNL     1      -7.755   2.314 133.228  0.00  0.00    +0.000 C 
ATOM     12  C   UNL     1      -9.296   2.862 132.355  0.00  0.00    +0.000 C 
ATOM     13  C   UNL     1      -9.658   1.135 131.988  0.00  0.00    +0.000 C 
ATOM     14  C   UNL     1      -8.600   0.370 131.134  0.00  0.00    +0.000 C 
BRANCH  12  15
ATOM     15  N   UNL     1      -9.949   4.607 132.059  0.00  0.00    +0.000 N 
ATOM     16  C   UNL     1      -9.289   4.465 130.838  0.00  0.00    +0.000 C 
ATOM     17  O   UNL     1      -8.041   4.242 130.641  0.00  0.00    +0.000 OA
ATOM     18  O   UNL     1     -10.095   4.272 129.825  0.00  0.00    +0.000 OA
ATOM     19  C   UNL     1     -10.125   5.583 129.420  0.00  0.00    +0.000 C 
ATOM     20  C   UNL     1     -11.439   5.810 130.049  0.00  0.00    +0.000 A 
ATOM     21  C   UNL     1     -12.377   6.416 129.010  0.00  0.00    +0.000 A 
ATOM     22  C   UNL     1     -13.134   7.549 129.090  0.00  0.00    +0.000 A 
ATOM     23  C   UNL     1     -12.883   8.119 130.306  0.00  0.00    +0.000 A 
ATOM     24  C   UNL     1     -11.916   7.353 131.458  0.00  0.00    +0.000 A 
ATOM     25  C   UNL     1     -11.246   5.851 131.431  0.00  0.00    +0.000 A 
ENDBRANCH  12  15
ENDBRANCH   6   7
BRANCH   1  27
ATOM     26  C   UNL     1      -4.160   1.886 129.386  0.00  0.00    +0.000 C 
ATOM     27  O   UNL     1      -5.413   1.563 128.871  0.00  0.00    +0.000 OA
ENDBRANCH   1  27
BRANCH   3  28
ATOM     28  O   UNL     1      -5.620  -1.530 125.545  0.00  0.00    +0.000 OA
BRANCH  28  29
ATOM     29  C   UNL     1      -6.838  -1.654 124.773  0.00  0.00    +0.000 C 
ATOM     30  C   UNL     1      -6.987  -1.072 123.347  0.00  0.00    +0.000 C 
ATOM     31  C   UNL     1      -7.428   0.388 123.242  0.00  0.00    +0.000 C 
ATOM     32  N   UNL     1      -8.559   0.686 124.156  0.00  0.00    +0.000 NA
ATOM     33  C   UNL     1      -8.440   0.117 125.518  0.00  0.00    +0.000 C 
ATOM     34  C   UNL     1      -8.045  -1.332 125.620  0.00  0.00    +0.000 C 
BRANCH  32  35
ATOM     35  C   UNL     1      -8.819   2.148 124.181  0.00  0.00    +0.000 C 
BRANCH  35  36
ATOM     36  C   UNL     1      -7.728   2.978 123.525  0.00  0.00    +0.000 A 
ATOM     37  C   UNL     1      -7.868   3.349 122.176  0.00  0.00    +0.000 A 
ATOM     38  N   UNL     1      -6.797   3.717 121.400  0.00  0.00    +0.000 N 
ATOM     39  O   UNL     1      -6.883   3.704 120.136  0.00  0.00    +0.000 OA
ATOM     40  C   UNL     1      -5.661   4.110 122.046  0.00  0.00    +0.000 A 
ATOM     41  C   UNL     1      -5.587   4.063 123.438  0.00  0.00    +0.000 A 
ATOM     42  C   UNL     1      -6.565   3.385 124.177  0.00  0.00    +0.000 A 
ATOM     43  C   UNL     1      -6.343   3.103 125.635  0.00  0.00    +0.000 C 
ENDBRANCH  35  36
ENDBRANCH  32  35
ENDBRANCH  28  29
ENDBRANCH   3  28
TORSDOF 7
ENDMDL
