MODEL 1
REMARK VINA RESULT:      -8.8      0.000      0.000
REMARK  Name = CHEMBL372619
REMARK  13 active torsions:
REMARK  status: ('A' for Active; 'I' for Inactive)
REMARK    1  A    between atoms: C_1  and  C_2
REMARK    2  A    between atoms: N_4  and  C_5
REMARK    3  A    between atoms: C_8  and  C_9
REMARK    4  A    between atoms: C_9  and  C_10
REMARK    5  A    between atoms: C_9  and  N_16
REMARK    6  A    between atoms: N_12  and  C_13
REMARK    7  A    between atoms: C_13  and  C_14
REMARK    8  A    between atoms: C_13  and  C_15
REMARK    9  A    between atoms: C_19  and  C_20
REMARK   10  A    between atoms: CA_32  and  CB_33
REMARK   11  A    between atoms: CB_33  and  CG_34
REMARK   12  A    between atoms: CG_34  and  CD1_35
REMARK   13  A    between atoms: CG_34  and  CD2_36
REMARK                            x       y       z     vdW  Elec       q    Type
REMARK                         _______ _______ _______ _____ _____    ______ ____
ROOT
ATOM      1  N   LEU A   1      -5.351   3.277 129.178  0.00  0.00    +0.000 N 
ATOM      2  C   UNK A   2      -5.966   2.129 128.680  0.00  0.00    +0.000 C 
ATOM      3  O   UNK A   2      -6.984   1.681 129.217  0.00  0.00    +0.000 OA
ATOM      4  C   UNK A   2      -5.229   1.384 127.494  0.00  0.00    +0.000 C 
ATOM      5  N   UNK A   2      -4.949   2.384 126.509  0.00  0.00    +0.000 N 
ATOM      6  C   LEU A   1      -4.090   3.365 126.902  0.00  0.00    +0.000 C 
ATOM      7  O   LEU A   1      -3.316   3.850 126.060  0.00  0.00    +0.000 OA
ATOM      8  CA  LEU A   1      -4.222   3.856 128.393  0.00  0.00    +0.000 C 
ATOM      9  H   UNK A   2      -4.892   2.145 125.526  0.00  0.00    +0.000 HD
ENDROOT
BRANCH   4  10
ATOM     10  C   UNK A   2      -6.116   0.260 126.970  0.00  0.00    +0.000 C 
ATOM     11  C   UNK A   2      -5.224  -0.595 126.066  0.00  0.00    +0.000 C 
ATOM     12  C   UNK A   2      -6.216  -1.491 125.449  0.00  0.00    +0.000 A 
ATOM     13  C   UNK A   2      -5.860  -2.681 124.843  0.00  0.00    +0.000 A 
ATOM     14  C   UNK A   2      -6.859  -3.447 124.297  0.00  0.00    +0.000 A 
ATOM     15  C   UNK A   2      -8.189  -3.077 124.533  0.00  0.00    +0.000 A 
ATOM     16  C   UNK A   2      -8.531  -1.847 125.170  0.00  0.00    +0.000 A 
ATOM     17  C   UNK A   2      -7.512  -0.981 125.550  0.00  0.00    +0.000 A 
ATOM     18  C   UNK A   2      -7.382   0.457 126.081  0.00  0.00    +0.000 C 
ENDBRANCH   4  10
BRANCH   1  19
ATOM     19  C   UNK A   0      -5.914   3.968 130.435  0.00  0.00    +0.000 C 
BRANCH  19  23
ATOM     20  C   UNK A   0      -9.439   6.348 130.109  0.00  0.00    +0.000 A 
ATOM     21  C   UNK A   0      -8.492   6.662 131.078  0.00  0.00    +0.000 A 
ATOM     22  C   UNK A   0      -7.260   6.020 131.048  0.00  0.00    +0.000 A 
ATOM     23  C   UNK A   0      -7.038   4.953 130.153  0.00  0.00    +0.000 A 
ATOM     24  C   UNK A   0      -7.995   4.667 129.188  0.00  0.00    +0.000 A 
ATOM     25  C   UNK A   0      -9.169   5.379 129.149  0.00  0.00    +0.000 A 
BRANCH  20  29
ATOM     26  C   UNK A   0     -12.173   8.781 129.347  0.00  0.00    +0.000 C 
ATOM     27  C   UNK A   0     -10.868   8.074 129.165  0.00  0.00    +0.000 C 
ATOM     28  O   UNK A   0     -10.104   8.409 128.260  0.00  0.00    +0.000 OA
ATOM     29  N   UNK A   0     -10.652   7.041 130.060  0.00  0.00    +0.000 N 
ATOM     30  H   UNK A   0     -11.399   6.710 130.655  0.00  0.00    +0.000 HD
ENDBRANCH  20  29
ENDBRANCH  19  23
BRANCH  19  31
ATOM     31  C   UNK A   0      -6.608   3.015 131.525  0.00  0.00    +0.000 C 
ATOM     32  O   UNK A   0      -5.946   2.427 132.385  0.00  0.00    +0.000 OA
ATOM     33  N   UNK A   0      -7.996   2.923 131.511  0.00  0.00    +0.000 N 
ATOM     34  H   UNK A   0      -8.500   2.997 130.639  0.00  0.00    +0.000 HD
BRANCH  33  35
ATOM     35  C   UNK A   0      -8.710   2.387 132.666  0.00  0.00    +0.000 C 
ATOM     36  C   UNK A   0      -9.108   3.520 133.602  0.00  0.00    +0.000 C 
ATOM     37  C   UNK A   0      -9.949   1.617 132.250  0.00  0.00    +0.000 C 
ENDBRANCH  33  35
ENDBRANCH  19  31
ENDBRANCH   1  19
BRANCH   8  38
ATOM     38  CB  LEU A   1      -4.353   5.384 128.308  0.00  0.00    +0.000 C 
BRANCH  38  39
ATOM     39  CG  LEU A   1      -3.303   6.170 129.066  0.00  0.00    +0.000 C 
ATOM     40  CD1 LEU A   1      -2.346   6.840 128.071  0.00  0.00    +0.000 C 
ATOM     41  CD2 LEU A   1      -3.974   7.182 129.969  0.00  0.00    +0.000 C 
ENDBRANCH  38  39
ENDBRANCH   8  38
TORSDOF 8
ENDMDL
MODEL 2
REMARK VINA RESULT:      -8.6      2.231      8.179
REMARK  Name = CHEMBL372619
REMARK  13 active torsions:
REMARK  status: ('A' for Active; 'I' for Inactive)
REMARK    1  A    between atoms: C_1  and  C_2
REMARK    2  A    between atoms: N_4  and  C_5
REMARK    3  A    between atoms: C_8  and  C_9
REMARK    4  A    between atoms: C_9  and  C_10
REMARK    5  A    between atoms: C_9  and  N_16
REMARK    6  A    between atoms: N_12  and  C_13
REMARK    7  A    between atoms: C_13  and  C_14
REMARK    8  A    between atoms: C_13  and  C_15
REMARK    9  A    between atoms: C_19  and  C_20
REMARK   10  A    between atoms: CA_32  and  CB_33
REMARK   11  A    between atoms: CB_33  and  CG_34
REMARK   12  A    between atoms: CG_34  and  CD1_35
REMARK   13  A    between atoms: CG_34  and  CD2_36
REMARK                            x       y       z     vdW  Elec       q    Type
REMARK                         _______ _______ _______ _____ _____    ______ ____
ROOT
ATOM      1  N   LEU A   1      -6.829   2.477 129.727  0.00  0.00    +0.000 N 
ATOM      2  C   UNK A   2      -7.857   3.314 129.298  0.00  0.00    +0.000 C 
ATOM      3  O   UNK A   2      -8.058   3.491 128.092  0.00  0.00    +0.000 OA
ATOM      4  C   UNK A   2      -8.650   4.102 130.418  0.00  0.00    +0.000 C 
ATOM      5  N   UNK A   2      -9.044   3.126 131.388  0.00  0.00    +0.000 N 
ATOM      6  C   LEU A   1      -8.022   2.508 132.041  0.00  0.00    +0.000 C 
ATOM      7  O   LEU A   1      -8.185   2.186 133.230  0.00  0.00    +0.000 OA
ATOM      8  CA  LEU A   1      -6.740   2.181 131.188  0.00  0.00    +0.000 C 
ATOM      9  H   UNK A   2      -9.882   3.252 131.943  0.00  0.00    +0.000 HD
ENDROOT
BRANCH   4  10
ATOM     10  C   UNK A   2      -9.831   4.832 129.789  0.00  0.00    +0.000 C 
ATOM     11  C   UNK A   2      -9.426   6.305 129.711  0.00  0.00    +0.000 C 
ATOM     12  C   UNK A   2     -10.697   6.933 129.313  0.00  0.00    +0.000 A 
ATOM     13  C   UNK A   2     -10.754   8.196 128.757  0.00  0.00    +0.000 A 
ATOM     14  C   UNK A   2     -11.988   8.693 128.419  0.00  0.00    +0.000 A 
ATOM     15  C   UNK A   2     -13.095   7.838 128.490  0.00  0.00    +0.000 A 
ATOM     16  C   UNK A   2     -13.007   6.532 129.061  0.00  0.00    +0.000 A 
ATOM     17  C   UNK A   2     -11.790   6.106 129.579  0.00  0.00    +0.000 A 
ATOM     18  C   UNK A   2     -11.260   4.923 130.407  0.00  0.00    +0.000 C 
ENDBRANCH   4  10
BRANCH   1  19
ATOM     19  C   UNK A   0      -5.905   1.801 128.697  0.00  0.00    +0.000 C 
BRANCH  19  23
ATOM     20  C   UNK A   0      -7.465  -1.063 125.948  0.00  0.00    +0.000 A 
ATOM     21  C   UNK A   0      -7.912  -1.069 127.265  0.00  0.00    +0.000 A 
ATOM     22  C   UNK A   0      -7.561  -0.016 128.099  0.00  0.00    +0.000 A 
ATOM     23  C   UNK A   0      -6.635   0.955 127.665  0.00  0.00    +0.000 A 
ATOM     24  C   UNK A   0      -6.214   0.946 126.341  0.00  0.00    +0.000 A 
ATOM     25  C   UNK A   0      -6.650  -0.036 125.485  0.00  0.00    +0.000 A 
BRANCH  20  29
ATOM     26  C   UNK A   0      -9.339  -3.126 123.455  0.00  0.00    +0.000 C 
ATOM     27  C   UNK A   0      -8.977  -1.905 124.238  0.00  0.00    +0.000 C 
ATOM     28  O   UNK A   0      -9.624  -0.866 124.100  0.00  0.00    +0.000 OA
ATOM     29  N   UNK A   0      -7.876  -2.063 125.060  0.00  0.00    +0.000 N 
ATOM     30  H   UNK A   0      -7.290  -2.884 124.986  0.00  0.00    +0.000 HD
ENDBRANCH  20  29
ENDBRANCH  19  23
BRANCH  19  31
ATOM     31  C   UNK A   0      -5.057   2.779 127.746  0.00  0.00    +0.000 C 
ATOM     32  O   UNK A   0      -5.580   3.742 127.178  0.00  0.00    +0.000 OA
ATOM     33  N   UNK A   0      -3.690   2.545 127.635  0.00  0.00    +0.000 N 
ATOM     34  H   UNK A   0      -3.331   1.602 127.692  0.00  0.00    +0.000 HD
BRANCH  33  35
ATOM     35  C   UNK A   0      -2.807   3.578 127.102  0.00  0.00    +0.000 C 
ATOM     36  C   UNK A   0      -2.457   4.576 128.197  0.00  0.00    +0.000 C 
ATOM     37  C   UNK A   0      -1.533   2.985 126.533  0.00  0.00    +0.000 C 
ENDBRANCH  33  35
ENDBRANCH  19  31
ENDBRANCH   1  19
BRANCH   8  38
ATOM     38  CB  LEU A   1      -6.467   0.686 131.418  0.00  0.00    +0.000 C 
BRANCH  38  39
ATOM     39  CG  LEU A   1      -5.088   0.351 131.949  0.00  0.00    +0.000 C 
ATOM     40  CD1 LEU A   1      -4.387  -0.614 130.983  0.00  0.00    +0.000 C 
ATOM     41  CD2 LEU A   1      -4.293   1.624 132.147  0.00  0.00    +0.000 C 
ENDBRANCH  38  39
ENDBRANCH   8  38
TORSDOF 8
ENDMDL
MODEL 3
REMARK VINA RESULT:      -8.5      2.948      8.417
REMARK  Name = CHEMBL372619
REMARK  13 active torsions:
REMARK  status: ('A' for Active; 'I' for Inactive)
REMARK    1  A    between atoms: C_1  and  C_2
REMARK    2  A    between atoms: N_4  and  C_5
REMARK    3  A    between atoms: C_8  and  C_9
REMARK    4  A    between atoms: C_9  and  C_10
REMARK    5  A    between atoms: C_9  and  N_16
REMARK    6  A    between atoms: N_12  and  C_13
REMARK    7  A    between atoms: C_13  and  C_14
REMARK    8  A    between atoms: C_13  and  C_15
REMARK    9  A    between atoms: C_19  and  C_20
REMARK   10  A    between atoms: CA_32  and  CB_33
REMARK   11  A    between atoms: CB_33  and  CG_34
REMARK   12  A    between atoms: CG_34  and  CD1_35
REMARK   13  A    between atoms: CG_34  and  CD2_36
REMARK                            x       y       z     vdW  Elec       q    Type
REMARK                         _______ _______ _______ _____ _____    ______ ____
ROOT
ATOM      1  N   LEU A   1      -7.123   4.226 131.041  0.00  0.00    +0.000 N 
ATOM      2  C   UNK A   2      -8.118   4.829 130.273  0.00  0.00    +0.000 C 
ATOM      3  O   UNK A   2      -7.964   4.980 129.057  0.00  0.00    +0.000 OA
ATOM      4  C   UNK A   2      -9.368   5.407 131.052  0.00  0.00    +0.000 C 
ATOM      5  N   UNK A   2      -9.830   4.352 131.901  0.00  0.00    +0.000 N 
ATOM      6  C   LEU A   1      -8.957   3.958 132.869  0.00  0.00    +0.000 C 
ATOM      7  O   LEU A   1      -9.411   3.587 133.964  0.00  0.00    +0.000 OA
ATOM      8  CA  LEU A   1      -7.434   3.931 132.471  0.00  0.00    +0.000 C 
ATOM      9  H   UNK A   2     -10.806   4.283 132.164  0.00  0.00    +0.000 HD
ENDROOT
BRANCH   4  10
ATOM     10  C   UNK A   2     -10.420   5.875 130.053  0.00  0.00    +0.000 C 
ATOM     11  C   UNK A   2     -10.648   7.360 130.342  0.00  0.00    +0.000 C 
ATOM     12  C   UNK A   2     -11.819   7.642 129.495  0.00  0.00    +0.000 A 
ATOM     13  C   UNK A   2     -12.173   8.926 129.129  0.00  0.00    +0.000 A 
ATOM     14  C   UNK A   2     -13.281   9.084 128.336  0.00  0.00    +0.000 A 
ATOM     15  C   UNK A   2     -13.887   7.941 127.799  0.00  0.00    +0.000 A 
ATOM     16  C   UNK A   2     -13.497   6.624 128.188  0.00  0.00    +0.000 A 
ATOM     17  C   UNK A   2     -12.497   6.474 129.141  0.00  0.00    +0.000 A 
ATOM     18  C   UNK A   2     -11.880   5.334 129.970  0.00  0.00    +0.000 C 
ENDBRANCH   4  10
BRANCH   1  19
ATOM     19  C   UNK A   0      -5.802   3.785 130.382  0.00  0.00    +0.000 C 
BRANCH  19  23
ATOM     20  C   UNK A   0      -6.079  -0.379 129.501  0.00  0.00    +0.000 A 
ATOM     21  C   UNK A   0      -7.192   0.432 129.311  0.00  0.00    +0.000 A 
ATOM     22  C   UNK A   0      -7.042   1.811 129.401  0.00  0.00    +0.000 A 
ATOM     23  C   UNK A   0      -5.822   2.365 129.837  0.00  0.00    +0.000 A 
ATOM     24  C   UNK A   0      -4.722   1.534 130.008  0.00  0.00    +0.000 A 
ATOM     25  C   UNK A   0      -4.844   0.180 129.811  0.00  0.00    +0.000 A 
BRANCH  20  29
ATOM     26  C   UNK A   0      -6.388  -4.066 130.037  0.00  0.00    +0.000 C 
ATOM     27  C   UNK A   0      -6.448  -2.614 130.387  0.00  0.00    +0.000 C 
ATOM     28  O   UNK A   0      -6.745  -2.264 131.530  0.00  0.00    +0.000 OA
ATOM     29  N   UNK A   0      -6.179  -1.764 129.329  0.00  0.00    +0.000 N 
ATOM     30  H   UNK A   0      -6.122  -2.118 128.384  0.00  0.00    +0.000 HD
ENDBRANCH  20  29
ENDBRANCH  19  23
BRANCH  19  31
ATOM     31  C   UNK A   0      -5.343   4.606 129.080  0.00  0.00    +0.000 C 
ATOM     32  O   UNK A   0      -4.890   5.751 129.165  0.00  0.00    +0.000 OA
ATOM     33  N   UNK A   0      -5.411   3.958 127.851  0.00  0.00    +0.000 N 
ATOM     34  H   UNK A   0      -6.132   3.271 127.680  0.00  0.00    +0.000 HD
BRANCH  33  35
ATOM     35  C   UNK A   0      -4.687   4.486 126.699  0.00  0.00    +0.000 C 
ATOM     36  C   UNK A   0      -3.308   3.847 126.616  0.00  0.00    +0.000 C 
ATOM     37  C   UNK A   0      -5.438   4.237 125.405  0.00  0.00    +0.000 C 
ENDBRANCH  33  35
ENDBRANCH  19  31
ENDBRANCH   1  19
BRANCH   8  38
ATOM     38  CB  LEU A   1      -6.938   2.527 132.850  0.00  0.00    +0.000 C 
BRANCH  38  39
ATOM     39  CG  LEU A   1      -5.764   2.489 133.808  0.00  0.00    +0.000 C 
ATOM     40  CD1 LEU A   1      -5.902   3.622 134.833  0.00  0.00    +0.000 C 
ATOM     41  CD2 LEU A   1      -5.692   1.133 134.475  0.00  0.00    +0.000 C 
ENDBRANCH  38  39
ENDBRANCH   8  38
TORSDOF 8
ENDMDL
MODEL 4
REMARK VINA RESULT:      -8.5      2.535      3.009
REMARK  Name = CHEMBL372619
REMARK  13 active torsions:
REMARK  status: ('A' for Active; 'I' for Inactive)
REMARK    1  A    between atoms: C_1  and  C_2
REMARK    2  A    between atoms: N_4  and  C_5
REMARK    3  A    between atoms: C_8  and  C_9
REMARK    4  A    between atoms: C_9  and  C_10
REMARK    5  A    between atoms: C_9  and  N_16
REMARK    6  A    between atoms: N_12  and  C_13
REMARK    7  A    between atoms: C_13  and  C_14
REMARK    8  A    between atoms: C_13  and  C_15
REMARK    9  A    between atoms: C_19  and  C_20
REMARK   10  A    between atoms: CA_32  and  CB_33
REMARK   11  A    between atoms: CB_33  and  CG_34
REMARK   12  A    between atoms: CG_34  and  CD1_35
REMARK   13  A    between atoms: CG_34  and  CD2_36
REMARK                            x       y       z     vdW  Elec       q    Type
REMARK                         _______ _______ _______ _____ _____    ______ ____
ROOT
ATOM      1  N   LEU A   1      -4.629   3.853 130.372  0.00  0.00    +0.000 N 
ATOM      2  C   UNK A   2      -5.038   2.529 130.519  0.00  0.00    +0.000 C 
ATOM      3  O   UNK A   2      -5.955   2.239 131.296  0.00  0.00    +0.000 OA
ATOM      4  C   UNK A   2      -4.197   1.433 129.749  0.00  0.00    +0.000 C 
ATOM      5  N   UNK A   2      -4.109   1.879 128.392  0.00  0.00    +0.000 N 
ATOM      6  C   LEU A   1      -3.432   3.047 128.206  0.00  0.00    +0.000 C 
ATOM      7  O   LEU A   1      -2.766   3.188 127.167  0.00  0.00    +0.000 OA
ATOM      8  CA  LEU A   1      -3.630   4.155 129.306  0.00  0.00    +0.000 C 
ATOM      9  H   UNK A   2      -4.023   1.218 127.630  0.00  0.00    +0.000 HD
ENDROOT
BRANCH   4  10
ATOM     10  C   UNK A   2      -4.877   0.075 129.888  0.00  0.00    +0.000 C 
ATOM     11  C   UNK A   2      -3.911  -0.802 130.688  0.00  0.00    +0.000 C 
ATOM     12  C   UNK A   2      -4.553  -2.122 130.565  0.00  0.00    +0.000 A 
ATOM     13  C   UNK A   2      -4.262  -3.166 131.421  0.00  0.00    +0.000 A 
ATOM     14  C   UNK A   2      -4.914  -4.358 131.224  0.00  0.00    +0.000 A 
ATOM     15  C   UNK A   2      -5.957  -4.402 130.290  0.00  0.00    +0.000 A 
ATOM     16  C   UNK A   2      -6.243  -3.305 129.422  0.00  0.00    +0.000 A 
ATOM     17  C   UNK A   2      -5.450  -2.166 129.496  0.00  0.00    +0.000 A 
ATOM     18  C   UNK A   2      -5.258  -0.862 128.702  0.00  0.00    +0.000 C 
ENDBRANCH   4  10
BRANCH   1  19
ATOM     19  C   UNK A   0      -5.290   4.961 131.214  0.00  0.00    +0.000 C 
BRANCH  19  23
ATOM     20  C   UNK A   0      -9.198   6.240 130.080  0.00  0.00    +0.000 A 
ATOM     21  C   UNK A   0      -8.433   7.047 130.914  0.00  0.00    +0.000 A 
ATOM     22  C   UNK A   0      -7.095   6.730 131.115  0.00  0.00    +0.000 A 
ATOM     23  C   UNK A   0      -6.568   5.523 130.612  0.00  0.00    +0.000 A 
ATOM     24  C   UNK A   0      -7.350   4.741 129.771  0.00  0.00    +0.000 A 
ATOM     25  C   UNK A   0      -8.640   5.113 129.484  0.00  0.00    +0.000 A 
BRANCH  20  29
ATOM     26  C   UNK A   0     -12.296   7.897 128.804  0.00  0.00    +0.000 C 
ATOM     27  C   UNK A   0     -10.837   7.584 128.887  0.00  0.00    +0.000 C 
ATOM     28  O   UNK A   0     -10.033   8.180 128.169  0.00  0.00    +0.000 OA
ATOM     29  N   UNK A   0     -10.522   6.583 129.789  0.00  0.00    +0.000 N 
ATOM     30  H   UNK A   0     -11.249   6.018 130.207  0.00  0.00    +0.000 HD
ENDBRANCH  20  29
ENDBRANCH  19  23
BRANCH  19  31
ATOM     31  C   UNK A   0      -5.800   4.539 132.678  0.00  0.00    +0.000 C 
ATOM     32  O   UNK A   0      -5.038   4.521 133.648  0.00  0.00    +0.000 OA
ATOM     33  N   UNK A   0      -7.154   4.256 132.832  0.00  0.00    +0.000 N 
ATOM     34  H   UNK A   0      -7.675   3.843 132.071  0.00  0.00    +0.000 HD
BRANCH  33  35
ATOM     35  C   UNK A   0      -7.752   4.226 134.163  0.00  0.00    +0.000 C 
ATOM     36  C   UNK A   0      -7.758   5.627 134.761  0.00  0.00    +0.000 C 
ATOM     37  C   UNK A   0      -9.169   3.687 134.126  0.00  0.00    +0.000 C 
ENDBRANCH  33  35
ENDBRANCH  19  31
ENDBRANCH   1  19
BRANCH   8  38
ATOM     38  CB  LEU A   1      -4.030   5.424 128.538  0.00  0.00    +0.000 C 
BRANCH  38  39
ATOM     39  CG  LEU A   1      -3.086   6.600 128.690  0.00  0.00    +0.000 C 
ATOM     40  CD1 LEU A   1      -3.858   7.811 129.232  0.00  0.00    +0.000 C 
ATOM     41  CD2 LEU A   1      -1.934   6.218 129.593  0.00  0.00    +0.000 C 
ENDBRANCH  38  39
ENDBRANCH   8  38
TORSDOF 8
ENDMDL
MODEL 5
REMARK VINA RESULT:      -8.3      2.249      8.491
REMARK  Name = CHEMBL372619
REMARK  13 active torsions:
REMARK  status: ('A' for Active; 'I' for Inactive)
REMARK    1  A    between atoms: C_1  and  C_2
REMARK    2  A    between atoms: N_4  and  C_5
REMARK    3  A    between atoms: C_8  and  C_9
REMARK    4  A    between atoms: C_9  and  C_10
REMARK    5  A    between atoms: C_9  and  N_16
REMARK    6  A    between atoms: N_12  and  C_13
REMARK    7  A    between atoms: C_13  and  C_14
REMARK    8  A    between atoms: C_13  and  C_15
REMARK    9  A    between atoms: C_19  and  C_20
REMARK   10  A    between atoms: CA_32  and  CB_33
REMARK   11  A    between atoms: CB_33  and  CG_34
REMARK   12  A    between atoms: CG_34  and  CD1_35
REMARK   13  A    between atoms: CG_34  and  CD2_36
REMARK                            x       y       z     vdW  Elec       q    Type
REMARK                         _______ _______ _______ _____ _____    ______ ____
ROOT
ATOM      1  N   LEU A   1      -7.410   2.909 129.614  0.00  0.00    +0.000 N 
ATOM      2  C   UNK A   2      -8.007   4.160 129.480  0.00  0.00    +0.000 C 
ATOM      3  O   UNK A   2      -7.655   4.929 128.579  0.00  0.00    +0.000 OA
ATOM      4  C   UNK A   2      -9.047   4.578 130.597  0.00  0.00    +0.000 C 
ATOM      5  N   UNK A   2      -9.969   3.489 130.709  0.00  0.00    +0.000 N 
ATOM      6  C   LEU A   1      -9.432   2.314 131.142  0.00  0.00    +0.000 C 
ATOM      7  O   LEU A   1     -10.127   1.570 131.854  0.00  0.00    +0.000 OA
ATOM      8  CA  LEU A   1      -7.987   1.969 130.619  0.00  0.00    +0.000 C 
ATOM      9  H   UNK A   2     -10.926   3.645 130.999  0.00  0.00    +0.000 HD
ENDROOT
BRANCH   4  10
ATOM     10  C   UNK A   2      -9.717   5.890 130.205  0.00  0.00    +0.000 C 
ATOM     11  C   UNK A   2     -10.988   5.986 131.053  0.00  0.00    +0.000 C 
ATOM     12  C   UNK A   2     -11.655   7.147 130.440  0.00  0.00    +0.000 A 
ATOM     13  C   UNK A   2     -12.651   7.852 131.088  0.00  0.00    +0.000 A 
ATOM     14  C   UNK A   2     -13.211   8.920 130.432  0.00  0.00    +0.000 A 
ATOM     15  C   UNK A   2     -12.631   9.344 129.231  0.00  0.00    +0.000 A 
ATOM     16  C   UNK A   2     -11.596   8.602 128.586  0.00  0.00    +0.000 A 
ATOM     17  C   UNK A   2     -11.164   7.413 129.161  0.00  0.00    +0.000 A 
ATOM     18  C   UNK A   2     -10.252   6.234 128.781  0.00  0.00    +0.000 C 
ENDBRANCH   4  10
BRANCH   1  19
ATOM     19  C   UNK A   0      -6.270   2.493 128.664  0.00  0.00    +0.000 C 
BRANCH  19  23
ATOM     20  C   UNK A   0      -7.864   0.099 125.515  0.00  0.00    +0.000 A 
ATOM     21  C   UNK A   0      -8.653   1.094 126.080  0.00  0.00    +0.000 A 
ATOM     22  C   UNK A   0      -8.069   2.000 126.955  0.00  0.00    +0.000 A 
ATOM     23  C   UNK A   0      -6.740   1.813 127.387  0.00  0.00    +0.000 A 
ATOM     24  C   UNK A   0      -5.969   0.819 126.798  0.00  0.00    +0.000 A 
ATOM     25  C   UNK A   0      -6.518  -0.008 125.850  0.00  0.00    +0.000 A 
BRANCH  20  29
ATOM     26  C   UNK A   0      -9.301  -2.861 123.739  0.00  0.00    +0.000 C 
ATOM     27  C   UNK A   0      -8.886  -2.022 124.905  0.00  0.00    +0.000 C 
ATOM     28  O   UNK A   0      -9.014  -2.450 126.053  0.00  0.00    +0.000 OA
ATOM     29  N   UNK A   0      -8.403  -0.772 124.562  0.00  0.00    +0.000 N 
ATOM     30  H   UNK A   0      -8.496  -0.424 123.618  0.00  0.00    +0.000 HD
ENDBRANCH  20  29
ENDBRANCH  19  23
BRANCH  19  31
ATOM     31  C   UNK A   0      -5.368   3.680 128.066  0.00  0.00    +0.000 C 
ATOM     32  O   UNK A   0      -5.401   3.977 126.869  0.00  0.00    +0.000 OA
ATOM     33  N   UNK A   0      -4.592   4.413 128.959  0.00  0.00    +0.000 N 
ATOM     34  H   UNK A   0      -4.206   3.967 129.780  0.00  0.00    +0.000 HD
BRANCH  33  35
ATOM     35  C   UNK A   0      -4.044   5.707 128.567  0.00  0.00    +0.000 C 
ATOM     36  C   UNK A   0      -4.188   6.700 129.712  0.00  0.00    +0.000 C 
ATOM     37  C   UNK A   0      -2.583   5.599 128.174  0.00  0.00    +0.000 C 
ENDBRANCH  33  35
ENDBRANCH  19  31
ENDBRANCH   1  19
BRANCH   8  38
ATOM     38  CB  LEU A   1      -8.094   0.553 130.033  0.00  0.00    +0.000 C 
BRANCH  38  39
ATOM     39  CG  LEU A   1      -7.075  -0.443 130.550  0.00  0.00    +0.000 C 
ATOM     40  CD1 LEU A   1      -6.628  -0.034 131.960  0.00  0.00    +0.000 C 
ATOM     41  CD2 LEU A   1      -7.665  -1.836 130.530  0.00  0.00    +0.000 C 
ENDBRANCH  38  39
ENDBRANCH   8  38
TORSDOF 8
ENDMDL
MODEL 6
REMARK VINA RESULT:      -8.2      3.729      6.485
REMARK  Name = CHEMBL372619
REMARK  13 active torsions:
REMARK  status: ('A' for Active; 'I' for Inactive)
REMARK    1  A    between atoms: C_1  and  C_2
REMARK    2  A    between atoms: N_4  and  C_5
REMARK    3  A    between atoms: C_8  and  C_9
REMARK    4  A    between atoms: C_9  and  C_10
REMARK    5  A    between atoms: C_9  and  N_16
REMARK    6  A    between atoms: N_12  and  C_13
REMARK    7  A    between atoms: C_13  and  C_14
REMARK    8  A    between atoms: C_13  and  C_15
REMARK    9  A    between atoms: C_19  and  C_20
REMARK   10  A    between atoms: CA_32  and  CB_33
REMARK   11  A    between atoms: CB_33  and  CG_34
REMARK   12  A    between atoms: CG_34  and  CD1_35
REMARK   13  A    between atoms: CG_34  and  CD2_36
REMARK                            x       y       z     vdW  Elec       q    Type
REMARK                         _______ _______ _______ _____ _____    ______ ____
ROOT
ATOM      1  N   LEU A   1      -7.417  -1.722 131.248  0.00  0.00    +0.000 N 
ATOM      2  C   UNK A   2      -7.622  -1.503 129.887  0.00  0.00    +0.000 C 
ATOM      3  O   UNK A   2      -7.877  -0.369 129.467  0.00  0.00    +0.000 OA
ATOM      4  C   UNK A   2      -7.635  -2.780 128.954  0.00  0.00    +0.000 C 
ATOM      5  N   UNK A   2      -6.445  -3.512 129.265  0.00  0.00    +0.000 N 
ATOM      6  C   LEU A   1      -6.376  -3.999 130.536  0.00  0.00    +0.000 C 
ATOM      7  O   LEU A   1      -5.809  -5.087 130.725  0.00  0.00    +0.000 OA
ATOM      8  CA  LEU A   1      -6.959  -3.077 131.672  0.00  0.00    +0.000 C 
ATOM      9  H   UNK A   2      -5.993  -4.092 128.569  0.00  0.00    +0.000 HD
ENDROOT
BRANCH   4  10
ATOM     10  C   UNK A   2      -7.705  -2.345 127.494  0.00  0.00    +0.000 C 
ATOM     11  C   UNK A   2      -8.648  -3.332 126.803  0.00  0.00    +0.000 C 
ATOM     12  C   UNK A   2      -8.462  -2.965 125.389  0.00  0.00    +0.000 A 
ATOM     13  C   UNK A   2      -9.371  -3.317 124.410  0.00  0.00    +0.000 A 
ATOM     14  C   UNK A   2      -9.108  -2.927 123.121  0.00  0.00    +0.000 A 
ATOM     15  C   UNK A   2      -8.039  -2.052 122.893  0.00  0.00    +0.000 A 
ATOM     16  C   UNK A   2      -7.119  -1.696 123.924  0.00  0.00    +0.000 A 
ATOM     17  C   UNK A   2      -7.280  -2.250 125.189  0.00  0.00    +0.000 A 
ATOM     18  C   UNK A   2      -6.495  -2.311 126.511  0.00  0.00    +0.000 C 
ENDBRANCH   4  10
BRANCH   1  19
ATOM     19  C   UNK A   0      -7.552  -0.554 132.245  0.00  0.00    +0.000 C 
BRANCH  19  23
ATOM     20  C   UNK A   0      -4.269   2.146 132.598  0.00  0.00    +0.000 A 
ATOM     21  C   UNK A   0      -5.220   2.093 133.612  0.00  0.00    +0.000 A 
ATOM     22  C   UNK A   0      -6.167   1.077 133.593  0.00  0.00    +0.000 A 
ATOM     23  C   UNK A   0      -6.262   0.216 132.481  0.00  0.00    +0.000 A 
ATOM     24  C   UNK A   0      -5.293   0.281 131.488  0.00  0.00    +0.000 A 
ATOM     25  C   UNK A   0      -4.290   1.216 131.564  0.00  0.00    +0.000 A 
BRANCH  20  29
ATOM     26  C   UNK A   0      -2.084   5.115 131.976  0.00  0.00    +0.000 C 
ATOM     27  C   UNK A   0      -3.321   4.277 131.911  0.00  0.00    +0.000 C 
ATOM     28  O   UNK A   0      -4.300   4.667 131.273  0.00  0.00    +0.000 OA
ATOM     29  N   UNK A   0      -3.250   3.102 132.637  0.00  0.00    +0.000 N 
ATOM     30  H   UNK A   0      -2.486   2.938 133.279  0.00  0.00    +0.000 HD
ENDBRANCH  20  29
ENDBRANCH  19  23
BRANCH  19  31
ATOM     31  C   UNK A   0      -8.546   0.635 131.823  0.00  0.00    +0.000 C 
ATOM     32  O   UNK A   0      -9.764   0.556 132.008  0.00  0.00    +0.000 OA
ATOM     33  N   UNK A   0      -7.980   1.793 131.300  0.00  0.00    +0.000 N 
ATOM     34  H   UNK A   0      -7.134   1.740 130.750  0.00  0.00    +0.000 HD
BRANCH  33  35
ATOM     35  C   UNK A   0      -8.756   3.028 131.237  0.00  0.00    +0.000 C 
ATOM     36  C   UNK A   0      -7.886   4.209 131.647  0.00  0.00    +0.000 C 
ATOM     37  C   UNK A   0      -9.312   3.269 129.847  0.00  0.00    +0.000 C 
ENDBRANCH  33  35
ENDBRANCH  19  31
ENDBRANCH   1  19
BRANCH   8  38
ATOM     38  CB  LEU A   1      -5.841  -2.965 132.719  0.00  0.00    +0.000 C 
BRANCH  38  39
ATOM     39  CG  LEU A   1      -6.204  -3.442 134.111  0.00  0.00    +0.000 C 
ATOM     40  CD1 LEU A   1      -5.853  -2.352 135.133  0.00  0.00    +0.000 C 
ATOM     41  CD2 LEU A   1      -7.671  -3.807 134.160  0.00  0.00    +0.000 C 
ENDBRANCH  38  39
ENDBRANCH   8  38
TORSDOF 8
ENDMDL
MODEL 7
REMARK VINA RESULT:      -8.2      3.463      6.491
REMARK  Name = CHEMBL372619
REMARK  13 active torsions:
REMARK  status: ('A' for Active; 'I' for Inactive)
REMARK    1  A    between atoms: C_1  and  C_2
REMARK    2  A    between atoms: N_4  and  C_5
REMARK    3  A    between atoms: C_8  and  C_9
REMARK    4  A    between atoms: C_9  and  C_10
REMARK    5  A    between atoms: C_9  and  N_16
REMARK    6  A    between atoms: N_12  and  C_13
REMARK    7  A    between atoms: C_13  and  C_14
REMARK    8  A    between atoms: C_13  and  C_15
REMARK    9  A    between atoms: C_19  and  C_20
REMARK   10  A    between atoms: CA_32  and  CB_33
REMARK   11  A    between atoms: CB_33  and  CG_34
REMARK   12  A    between atoms: CG_34  and  CD1_35
REMARK   13  A    between atoms: CG_34  and  CD2_36
REMARK                            x       y       z     vdW  Elec       q    Type
REMARK                         _______ _______ _______ _____ _____    ______ ____
ROOT
ATOM      1  N   LEU A   1      -8.128   4.820 130.984  0.00  0.00    +0.000 N 
ATOM      2  C   UNK A   2      -7.665   3.508 131.066  0.00  0.00    +0.000 C 
ATOM      3  O   UNK A   2      -6.593   3.257 131.628  0.00  0.00    +0.000 OA
ATOM      4  C   UNK A   2      -8.507   2.405 130.307  0.00  0.00    +0.000 C 
ATOM      5  N   UNK A   2      -9.864   2.583 130.726  0.00  0.00    +0.000 N 
ATOM      6  C   LEU A   1     -10.431   3.770 130.374  0.00  0.00    +0.000 C 
ATOM      7  O   LEU A   1     -11.642   3.792 130.098  0.00  0.00    +0.000 OA
ATOM      8  CA  LEU A   1      -9.499   5.038 130.435  0.00  0.00    +0.000 C 
ATOM      9  H   UNK A   2     -10.509   1.802 130.752  0.00  0.00    +0.000 HD
ENDROOT
BRANCH   4  10
ATOM     10  C   UNK A   2      -7.956   1.023 130.639  0.00  0.00    +0.000 C 
ATOM     11  C   UNK A   2      -7.932   0.248 129.319  0.00  0.00    +0.000 C 
ATOM     12  C   UNK A   2      -7.609  -1.110 129.789  0.00  0.00    +0.000 A 
ATOM     13  C   UNK A   2      -7.115  -2.084 128.944  0.00  0.00    +0.000 A 
ATOM     14  C   UNK A   2      -6.845  -3.319 129.478  0.00  0.00    +0.000 A 
ATOM     15  C   UNK A   2      -6.914  -3.476 130.868  0.00  0.00    +0.000 A 
ATOM     16  C   UNK A   2      -7.421  -2.449 131.721  0.00  0.00    +0.000 A 
ATOM     17  C   UNK A   2      -7.875  -1.266 131.151  0.00  0.00    +0.000 A 
ATOM     18  C   UNK A   2      -8.627  -0.002 131.603  0.00  0.00    +0.000 C 
ENDBRANCH   4  10
BRANCH   1  19
ATOM     19  C   UNK A   0      -7.281   5.973 131.555  0.00  0.00    +0.000 C 
BRANCH  19  23
ATOM     20  C   UNK A   0      -6.010   5.972 135.626  0.00  0.00    +0.000 A 
ATOM     21  C   UNK A   0      -7.332   5.665 135.325  0.00  0.00    +0.000 A 
ATOM     22  C   UNK A   0      -7.692   5.465 133.998  0.00  0.00    +0.000 A 
ATOM     23  C   UNK A   0      -6.769   5.731 132.966  0.00  0.00    +0.000 A 
ATOM     24  C   UNK A   0      -5.451   6.024 133.293  0.00  0.00    +0.000 A 
ATOM     25  C   UNK A   0      -5.071   6.113 134.610  0.00  0.00    +0.000 A 
BRANCH  20  29
ATOM     26  C   UNK A   0      -5.011   5.299 139.165  0.00  0.00    +0.000 C 
ATOM     27  C   UNK A   0      -5.304   4.984 137.733  0.00  0.00    +0.000 C 
ATOM     28  O   UNK A   0      -5.242   3.822 137.330  0.00  0.00    +0.000 OA
ATOM     29  N   UNK A   0      -5.600   6.091 136.958  0.00  0.00    +0.000 N 
ATOM     30  H   UNK A   0      -5.455   7.025 137.316  0.00  0.00    +0.000 HD
ENDBRANCH  20  29
ENDBRANCH  19  23
BRANCH  19  31
ATOM     31  C   UNK A   0      -5.911   6.304 130.784  0.00  0.00    +0.000 C 
ATOM     32  O   UNK A   0      -5.532   7.465 130.610  0.00  0.00    +0.000 OA
ATOM     33  N   UNK A   0      -5.127   5.231 130.373  0.00  0.00    +0.000 N 
ATOM     34  H   UNK A   0      -5.562   4.361 130.099  0.00  0.00    +0.000 HD
BRANCH  33  35
ATOM     35  C   UNK A   0      -3.730   5.439 130.005  0.00  0.00    +0.000 C 
ATOM     36  C   UNK A   0      -2.819   4.864 131.082  0.00  0.00    +0.000 C 
ATOM     37  C   UNK A   0      -3.402   4.797 128.671  0.00  0.00    +0.000 C 
ENDBRANCH  33  35
ENDBRANCH  19  31
ENDBRANCH   1  19
BRANCH   8  38
ATOM     38  CB  LEU A   1     -10.262   6.064 131.286  0.00  0.00    +0.000 C 
BRANCH  38  39
ATOM     39  CG  LEU A   1     -10.805   7.260 130.529  0.00  0.00    +0.000 C 
ATOM     40  CD1 LEU A   1     -10.291   7.228 129.083  0.00  0.00    +0.000 C 
ATOM     41  CD2 LEU A   1     -12.317   7.259 130.588  0.00  0.00    +0.000 C 
ENDBRANCH  38  39
ENDBRANCH   8  38
TORSDOF 8
ENDMDL
MODEL 8
REMARK VINA RESULT:      -8.1      2.440      8.674
REMARK  Name = CHEMBL372619
REMARK  13 active torsions:
REMARK  status: ('A' for Active; 'I' for Inactive)
REMARK    1  A    between atoms: C_1  and  C_2
REMARK    2  A    between atoms: N_4  and  C_5
REMARK    3  A    between atoms: C_8  and  C_9
REMARK    4  A    between atoms: C_9  and  C_10
REMARK    5  A    between atoms: C_9  and  N_16
REMARK    6  A    between atoms: N_12  and  C_13
REMARK    7  A    between atoms: C_13  and  C_14
REMARK    8  A    between atoms: C_13  and  C_15
REMARK    9  A    between atoms: C_19  and  C_20
REMARK   10  A    between atoms: CA_32  and  CB_33
REMARK   11  A    between atoms: CB_33  and  CG_34
REMARK   12  A    between atoms: CG_34  and  CD1_35
REMARK   13  A    between atoms: CG_34  and  CD2_36
REMARK                            x       y       z     vdW  Elec       q    Type
REMARK                         _______ _______ _______ _____ _____    ______ ____
ROOT
ATOM      1  N   LEU A   1      -7.703   2.825 129.797  0.00  0.00    +0.000 N 
ATOM      2  C   UNK A   2      -8.256   4.077 129.535  0.00  0.00    +0.000 C 
ATOM      3  O   UNK A   2      -7.976   4.679 128.493  0.00  0.00    +0.000 OA
ATOM      4  C   UNK A   2      -9.140   4.719 130.679  0.00  0.00    +0.000 C 
ATOM      5  N   UNK A   2     -10.090   3.718 131.058  0.00  0.00    +0.000 N 
ATOM      6  C   LEU A   1      -9.559   2.590 131.607  0.00  0.00    +0.000 C 
ATOM      7  O   LEU A   1     -10.199   2.004 132.496  0.00  0.00    +0.000 OA
ATOM      8  CA  LEU A   1      -8.201   2.083 130.992  0.00  0.00    +0.000 C 
ATOM      9  H   UNK A   2     -10.999   3.973 131.422  0.00  0.00    +0.000 HD
ENDROOT
BRANCH   4  10
ATOM     10  C   UNK A   2      -9.792   5.997 130.163  0.00  0.00    +0.000 C 
ATOM     11  C   UNK A   2     -11.027   6.224 131.038  0.00  0.00    +0.000 C 
ATOM     12  C   UNK A   2     -11.689   7.327 130.320  0.00  0.00    +0.000 A 
ATOM     13  C   UNK A   2     -12.642   8.129 130.916  0.00  0.00    +0.000 A 
ATOM     14  C   UNK A   2     -13.200   9.130 130.162  0.00  0.00    +0.000 A 
ATOM     15  C   UNK A   2     -12.656   9.399 128.901  0.00  0.00    +0.000 A 
ATOM     16  C   UNK A   2     -11.664   8.560 128.310  0.00  0.00    +0.000 A 
ATOM     17  C   UNK A   2     -11.240   7.431 129.002  0.00  0.00    +0.000 A 
ATOM     18  C   UNK A   2     -10.371   6.192 128.729  0.00  0.00    +0.000 C 
ENDBRANCH   4  10
BRANCH   1  19
ATOM     19  C   UNK A   0      -6.700   2.203 128.806  0.00  0.00    +0.000 C 
BRANCH  19  23
ATOM     20  C   UNK A   0      -8.086  -0.345 125.678  0.00  0.00    +0.000 A 
ATOM     21  C   UNK A   0      -6.862  -0.611 126.282  0.00  0.00    +0.000 A 
ATOM     22  C   UNK A   0      -6.510   0.090 127.429  0.00  0.00    +0.000 A 
ATOM     23  C   UNK A   0      -7.307   1.164 127.875  0.00  0.00    +0.000 A 
ATOM     24  C   UNK A   0      -8.530   1.402 127.262  0.00  0.00    +0.000 A 
ATOM     25  C   UNK A   0      -8.927   0.634 126.195  0.00  0.00    +0.000 A 
BRANCH  20  29
ATOM     26  C   UNK A   0      -9.481  -2.995 123.441  0.00  0.00    +0.000 C 
ATOM     27  C   UNK A   0      -9.236  -2.262 124.721  0.00  0.00    +0.000 C 
ATOM     28  O   UNK A   0      -9.694  -2.693 125.779  0.00  0.00    +0.000 OA
ATOM     29  N   UNK A   0      -8.506  -1.096 124.576  0.00  0.00    +0.000 N 
ATOM     30  H   UNK A   0      -8.319  -0.714 123.658  0.00  0.00    +0.000 HD
ENDBRANCH  20  29
ENDBRANCH  19  23
BRANCH  19  31
ATOM     31  C   UNK A   0      -6.024   3.205 127.749  0.00  0.00    +0.000 C 
ATOM     32  O   UNK A   0      -4.995   3.830 128.016  0.00  0.00    +0.000 OA
ATOM     33  N   UNK A   0      -6.605   3.298 126.487  0.00  0.00    +0.000 N 
ATOM     34  H   UNK A   0      -7.603   3.185 126.378  0.00  0.00    +0.000 HD
BRANCH  33  35
ATOM     35  C   UNK A   0      -5.861   3.887 125.377  0.00  0.00    +0.000 C 
ATOM     36  C   UNK A   0      -6.113   3.091 124.104  0.00  0.00    +0.000 C 
ATOM     37  C   UNK A   0      -6.249   5.336 125.152  0.00  0.00    +0.000 C 
ENDBRANCH  33  35
ENDBRANCH  19  31
ENDBRANCH   1  19
BRANCH   8  38
ATOM     38  CB  LEU A   1      -8.437   0.604 130.648  0.00  0.00    +0.000 C 
BRANCH  38  39
ATOM     39  CG  LEU A   1      -7.717  -0.393 131.533  0.00  0.00    +0.000 C 
ATOM     40  CD1 LEU A   1      -7.080  -1.485 130.663  0.00  0.00    +0.000 C 
ATOM     41  CD2 LEU A   1      -6.686   0.325 132.377  0.00  0.00    +0.000 C 
ENDBRANCH  38  39
ENDBRANCH   8  38
TORSDOF 8
ENDMDL
MODEL 9
REMARK VINA RESULT:      -8.0      3.409      6.552
REMARK  Name = CHEMBL372619
REMARK  13 active torsions:
REMARK  status: ('A' for Active; 'I' for Inactive)
REMARK    1  A    between atoms: C_1  and  C_2
REMARK    2  A    between atoms: N_4  and  C_5
REMARK    3  A    between atoms: C_8  and  C_9
REMARK    4  A    between atoms: C_9  and  C_10
REMARK    5  A    between atoms: C_9  and  N_16
REMARK    6  A    between atoms: N_12  and  C_13
REMARK    7  A    between atoms: C_13  and  C_14
REMARK    8  A    between atoms: C_13  and  C_15
REMARK    9  A    between atoms: C_19  and  C_20
REMARK   10  A    between atoms: CA_32  and  CB_33
REMARK   11  A    between atoms: CB_33  and  CG_34
REMARK   12  A    between atoms: CG_34  and  CD1_35
REMARK   13  A    between atoms: CG_34  and  CD2_36
REMARK                            x       y       z     vdW  Elec       q    Type
REMARK                         _______ _______ _______ _____ _____    ______ ____
ROOT
ATOM      1  N   LEU A   1      -7.270   3.652 130.494  0.00  0.00    +0.000 N 
ATOM      2  C   UNK A   2      -6.625   2.418 130.432  0.00  0.00    +0.000 C 
ATOM      3  O   UNK A   2      -5.483   2.332 129.968  0.00  0.00    +0.000 OA
ATOM      4  C   UNK A   2      -7.467   1.150 130.862  0.00  0.00    +0.000 C 
ATOM      5  N   UNK A   2      -8.031   1.462 132.140  0.00  0.00    +0.000 N 
ATOM      6  C   LEU A   1      -8.914   2.499 132.150  0.00  0.00    +0.000 C 
ATOM      7  O   LEU A   1      -9.876   2.452 132.935  0.00  0.00    +0.000 OA
ATOM      8  CA  LEU A   1      -8.579   3.715 131.208  0.00  0.00    +0.000 C 
ATOM      9  H   UNK A   2      -8.233   0.732 132.813  0.00  0.00    +0.000 HD
ENDROOT
BRANCH   4  10
ATOM     10  C   UNK A   2      -6.564  -0.077 130.890  0.00  0.00    +0.000 C 
ATOM     11  C   UNK A   2      -7.433  -1.253 130.439  0.00  0.00    +0.000 C 
ATOM     12  C   UNK A   2      -6.544  -2.393 130.720  0.00  0.00    +0.000 A 
ATOM     13  C   UNK A   2      -6.730  -3.634 130.143  0.00  0.00    +0.000 A 
ATOM     14  C   UNK A   2      -5.847  -4.632 130.469  0.00  0.00    +0.000 A 
ATOM     15  C   UNK A   2      -4.712  -4.301 131.221  0.00  0.00    +0.000 A 
ATOM     16  C   UNK A   2      -4.539  -3.007 131.799  0.00  0.00    +0.000 A 
ATOM     17  C   UNK A   2      -5.536  -2.054 131.625  0.00  0.00    +0.000 A 
ATOM     18  C   UNK A   2      -5.876  -0.655 132.165  0.00  0.00    +0.000 C 
ENDBRANCH   4  10
BRANCH   1  19
ATOM     19  C   UNK A   0      -6.578   4.912 129.941  0.00  0.00    +0.000 C 
BRANCH  19  23
ATOM     20  C   UNK A   0      -3.446   6.666 132.247  0.00  0.00    +0.000 A 
ATOM     21  C   UNK A   0      -4.110   7.438 131.300  0.00  0.00    +0.000 A 
ATOM     22  C   UNK A   0      -5.256   6.931 130.701  0.00  0.00    +0.000 A 
ATOM     23  C   UNK A   0      -5.643   5.595 130.928  0.00  0.00    +0.000 A 
ATOM     24  C   UNK A   0      -4.971   4.848 131.888  0.00  0.00    +0.000 A 
ATOM     25  C   UNK A   0      -3.904   5.390 132.561  0.00  0.00    +0.000 A 
BRANCH  20  29
ATOM     26  C   UNK A   0       0.005   7.527 133.396  0.00  0.00    +0.000 C 
ATOM     27  C   UNK A   0      -1.050   7.020 132.467  0.00  0.00    +0.000 C 
ATOM     28  O   UNK A   0      -0.736   6.532 131.380  0.00  0.00    +0.000 OA
ATOM     29  N   UNK A   0      -2.343   7.184 132.931  0.00  0.00    +0.000 N 
ATOM     30  H   UNK A   0      -2.530   7.753 133.747  0.00  0.00    +0.000 HD
ENDBRANCH  20  29
ENDBRANCH  19  23
BRANCH  19  31
ATOM     31  C   UNK A   0      -5.596   4.697 128.688  0.00  0.00    +0.000 C 
ATOM     32  O   UNK A   0      -6.023   4.661 127.531  0.00  0.00    +0.000 OA
ATOM     33  N   UNK A   0      -4.230   4.618 128.945  0.00  0.00    +0.000 N 
ATOM     34  H   UNK A   0      -3.900   4.213 129.810  0.00  0.00    +0.000 HD
BRANCH  33  35
ATOM     35  C   UNK A   0      -3.267   4.789 127.862  0.00  0.00    +0.000 C 
ATOM     36  C   UNK A   0      -2.324   5.941 128.184  0.00  0.00    +0.000 C 
ATOM     37  C   UNK A   0      -2.460   3.527 127.627  0.00  0.00    +0.000 C 
ENDBRANCH  33  35
ENDBRANCH  19  31
ENDBRANCH   1  19
BRANCH   8  38
ATOM     38  CB  LEU A   1      -8.643   4.958 132.109  0.00  0.00    +0.000 C 
BRANCH  38  39
ATOM     39  CG  LEU A   1      -9.679   5.991 131.718  0.00  0.00    +0.000 C 
ATOM     40  CD1 LEU A   1      -9.036   7.043 130.805  0.00  0.00    +0.000 C 
ATOM     41  CD2 LEU A   1     -10.854   5.311 131.050  0.00  0.00    +0.000 C 
ENDBRANCH  38  39
ENDBRANCH   8  38
TORSDOF 8
ENDMDL
