MODEL 1
REMARK VINA RESULT:      -9.5      0.000      0.000
REMARK  Name = CHEMBL286476
REMARK  5 active torsions:
REMARK  status: ('A' for Active; 'I' for Inactive)
REMARK    1  A    between atoms: C_1  and  C_2
REMARK    2  A    between atoms: C_8  and  C_9
REMARK    3  A    between atoms: C_9  and  N_10
REMARK    4  A    between atoms: C_15  and  C_16
REMARK    5  A    between atoms: C_21  and  N_22
REMARK                            x       y       z     vdW  Elec       q    Type
REMARK                         _______ _______ _______ _____ _____    ______ ____
ROOT
ATOM      1  C   UNL     1      -3.069   5.407 128.737  0.00  0.00    +0.000 C 
ATOM      2  O   UNL     1      -2.272   5.921 127.950  0.00  0.00    +0.000 OA
ATOM      3  N   UNL     1      -3.985   4.392 128.330  0.00  0.00    +0.000 N 
ATOM      4  C   UNL     1      -3.517   3.140 127.723  0.00  0.00    +0.000 C 
ATOM      5  C   UNL     1      -4.376   2.689 126.527  0.00  0.00    +0.000 C 
ATOM      6  C   UNL     1      -6.072   2.320 126.976  0.00  0.00    +0.000 C 
ATOM      7  C   UNL     1      -6.308   3.972 127.449  0.00  0.00    +0.000 C 
ATOM      8  C   UNL     1      -5.420   4.416 128.626  0.00  0.00    +0.000 C 
ENDROOT
BRANCH   6   9
ATOM      9  N   UNL     1      -6.722   0.680 127.577  0.00  0.00    +0.000 N 
ATOM     10  C   UNL     1      -7.276   0.679 126.219  0.00  0.00    +0.000 C 
ATOM     11  O   UNL     1      -7.713   1.605 125.468  0.00  0.00    +0.000 OA
ATOM     12  O   UNL     1      -6.989  -0.436 125.610  0.00  0.00    +0.000 OA
ATOM     13  C   UNL     1      -8.211  -1.061 125.520  0.00  0.00    +0.000 C 
ATOM     14  C   UNL     1      -8.176  -1.732 126.807  0.00  0.00    +0.000 A 
ATOM     15  C   UNL     1      -8.922  -3.113 126.580  0.00  0.00    +0.000 A 
ATOM     16  C   UNL     1      -9.222  -4.055 127.507  0.00  0.00    +0.000 A 
ATOM     17  C   UNL     1      -8.625  -3.639 128.674  0.00  0.00    +0.000 A 
ATOM     18  C   UNL     1      -7.746  -2.201 128.874  0.00  0.00    +0.000 A 
ATOM     19  C   UNL     1      -7.504  -1.006 127.871  0.00  0.00    +0.000 A 
ENDBRANCH   6   9
BRANCH   1  25
ATOM     20  N   UNL     1      -3.043   6.738 134.310  0.00  0.00    +0.000 N 
ATOM     21  C   UNL     1      -3.081   5.469 134.835  0.00  0.00    +0.000 A 
ATOM     22  C   UNL     1      -3.036   4.554 133.816  0.00  0.00    +0.000 A 
ATOM     23  C   UNL     1      -3.017   5.271 132.595  0.00  0.00    +0.000 A 
ATOM     24  C   UNL     1      -3.007   4.865 131.232  0.00  0.00    +0.000 A 
ATOM     25  C   UNL     1      -2.997   5.826 130.199  0.00  0.00    +0.000 A 
ATOM     26  C   UNL     1      -3.024   7.170 130.570  0.00  0.00    +0.000 A 
ATOM     27  C   UNL     1      -3.013   7.604 131.910  0.00  0.00    +0.000 A 
ATOM     28  C   UNL     1      -3.020   6.636 132.921  0.00  0.00    +0.000 A 
BRANCH  20  29
ATOM     29  C   UNL     1      -3.018   7.983 135.095  0.00  0.00    +0.000 C 
BRANCH  29  37
ATOM     30  C   UNL     1      -2.096  11.238 132.513  0.00  0.00    +0.000 C 
ATOM     31  C   UNL     1      -2.091  10.789 133.966  0.00  0.00    +0.000 C 
ATOM     32  O   UNL     1      -2.854  11.289 134.788  0.00  0.00    +0.000 OA
ATOM     33  N   UNL     1      -1.317   9.675 134.228  0.00  0.00    +0.000 N 
ATOM     34  C   UNL     1       0.059   9.531 133.784  0.00  0.00    +0.000 C 
ATOM     35  C   UNL     1       0.228   8.034 133.756  0.00  0.00    +0.000 C 
ATOM     36  C   UNL     1      -0.483   7.607 135.028  0.00  0.00    +0.000 C 
ATOM     37  C   UNL     1      -1.624   8.645 135.244  0.00  0.00    +0.000 C 
ENDBRANCH  29  37
ENDBRANCH  20  29
ENDBRANCH   1  25
TORSDOF 4
ENDMDL
MODEL 2
REMARK VINA RESULT:      -9.4      5.408     12.736
REMARK  Name = CHEMBL286476
REMARK  5 active torsions:
REMARK  status: ('A' for Active; 'I' for Inactive)
REMARK    1  A    between atoms: C_1  and  C_2
REMARK    2  A    between atoms: C_8  and  C_9
REMARK    3  A    between atoms: C_9  and  N_10
REMARK    4  A    between atoms: C_15  and  C_16
REMARK    5  A    between atoms: C_21  and  N_22
REMARK                            x       y       z     vdW  Elec       q    Type
REMARK                         _______ _______ _______ _____ _____    ______ ____
ROOT
ATOM      1  C   UNL     1      -3.011   6.069 132.453  0.00  0.00    +0.000 C 
ATOM      2  O   UNL     1      -2.454   5.104 131.925  0.00  0.00    +0.000 OA
ATOM      3  N   UNL     1      -2.285   7.045 133.198  0.00  0.00    +0.000 N 
ATOM      4  C   UNL     1      -1.179   7.798 132.595  0.00  0.00    +0.000 C 
ATOM      5  C   UNL     1       0.030   7.955 133.537  0.00  0.00    +0.000 C 
ATOM      6  C   UNL     1      -0.347   8.892 135.018  0.00  0.00    +0.000 C 
ATOM      7  C   UNL     1      -1.483   7.673 135.502  0.00  0.00    +0.000 C 
ATOM      8  C   UNL     1      -2.669   7.508 134.535  0.00  0.00    +0.000 C 
ENDROOT
BRANCH   6   9
ATOM      9  N   UNL     1      -0.255  10.744 135.205  0.00  0.00    +0.000 N 
ATOM     10  C   UNL     1       0.989  10.367 135.887  0.00  0.00    +0.000 C 
ATOM     11  O   UNL     1       1.308   9.368 136.604  0.00  0.00    +0.000 OA
ATOM     12  O   UNL     1       1.992  11.053 135.419  0.00  0.00    +0.000 OA
ATOM     13  C   UNL     1       2.313  11.885 136.466  0.00  0.00    +0.000 C 
ATOM     14  C   UNL     1       1.397  12.963 136.140  0.00  0.00    +0.000 A 
ATOM     15  C   UNL     1       2.147  14.293 136.569  0.00  0.00    +0.000 A 
ATOM     16  C   UNL     1       1.667  15.560 136.543  0.00  0.00    +0.000 A 
ATOM     17  C   UNL     1       0.435  15.484 135.936  0.00  0.00    +0.000 A 
ATOM     18  C   UNL     1      -0.311  14.060 135.395  0.00  0.00    +0.000 A 
ATOM     19  C   UNL     1       0.138  12.554 135.543  0.00  0.00    +0.000 A 
ENDBRANCH   6   9
BRANCH   1  25
ATOM     20  N   UNL     1      -8.669   6.385 131.607  0.00  0.00    +0.000 N 
ATOM     21  C   UNL     1      -9.083   5.518 132.590  0.00  0.00    +0.000 A 
ATOM     22  C   UNL     1      -7.994   5.083 133.300  0.00  0.00    +0.000 A 
ATOM     23  C   UNL     1      -6.841   5.658 132.714  0.00  0.00    +0.000 A 
ATOM     24  C   UNL     1      -5.451   5.544 132.993  0.00  0.00    +0.000 A 
ATOM     25  C   UNL     1      -4.504   6.246 132.217  0.00  0.00    +0.000 A 
ATOM     26  C   UNL     1      -4.986   7.023 131.164  0.00  0.00    +0.000 A 
ATOM     27  C   UNL     1      -6.356   7.173 130.875  0.00  0.00    +0.000 A 
ATOM     28  C   UNL     1      -7.280   6.472 131.657  0.00  0.00    +0.000 A 
BRANCH  20  29
ATOM     29  C   UNL     1      -9.556   7.102 130.677  0.00  0.00    +0.000 C 
BRANCH  29  37
ATOM     30  C   UNL     1     -11.014   7.972 126.774  0.00  0.00    +0.000 C 
ATOM     31  C   UNL     1     -10.588   6.841 127.697  0.00  0.00    +0.000 C 
ATOM     32  O   UNL     1      -9.569   6.193 127.479  0.00  0.00    +0.000 OA
ATOM     33  N   UNL     1     -11.317   6.739 128.867  0.00  0.00    +0.000 N 
ATOM     34  C   UNL     1     -12.769   6.735 128.910  0.00  0.00    +0.000 C 
ATOM     35  C   UNL     1     -13.046   7.215 130.311  0.00  0.00    +0.000 C 
ATOM     36  C   UNL     1     -12.000   6.468 131.119  0.00  0.00    +0.000 C 
ATOM     37  C   UNL     1     -10.778   6.293 130.169  0.00  0.00    +0.000 C 
ENDBRANCH  29  37
ENDBRANCH  20  29
ENDBRANCH   1  25
TORSDOF 4
ENDMDL
MODEL 3
REMARK VINA RESULT:      -9.0      4.901      6.666
REMARK  Name = CHEMBL286476
REMARK  5 active torsions:
REMARK  status: ('A' for Active; 'I' for Inactive)
REMARK    1  A    between atoms: C_1  and  C_2
REMARK    2  A    between atoms: C_8  and  C_9
REMARK    3  A    between atoms: C_9  and  N_10
REMARK    4  A    between atoms: C_15  and  C_16
REMARK    5  A    between atoms: C_21  and  N_22
REMARK                            x       y       z     vdW  Elec       q    Type
REMARK                         _______ _______ _______ _____ _____    ______ ____
ROOT
ATOM      1  C   UNL     1      -3.528   6.070 134.000  0.00  0.00    +0.000 C 
ATOM      2  O   UNL     1      -3.328   5.322 134.958  0.00  0.00    +0.000 OA
ATOM      3  N   UNL     1      -4.653   5.908 133.137  0.00  0.00    +0.000 N 
ATOM      4  C   UNL     1      -6.025   5.932 133.659  0.00  0.00    +0.000 C 
ATOM      5  C   UNL     1      -6.929   4.854 133.032  0.00  0.00    +0.000 C 
ATOM      6  C   UNL     1      -7.156   5.064 131.266  0.00  0.00    +0.000 C 
ATOM      7  C   UNL     1      -5.458   4.812 131.016  0.00  0.00    +0.000 C 
ATOM      8  C   UNL     1      -4.567   5.881 131.674  0.00  0.00    +0.000 C 
ENDROOT
BRANCH   6   9
ATOM      9  N   UNL     1      -8.462   6.103 130.438  0.00  0.00    +0.000 N 
ATOM     10  C   UNL     1      -9.242   4.887 130.689  0.00  0.00    +0.000 C 
ATOM     11  O   UNL     1      -8.935   3.654 130.692  0.00  0.00    +0.000 OA
ATOM     12  O   UNL     1     -10.364   5.178 131.282  0.00  0.00    +0.000 OA
ATOM     13  C   UNL     1     -11.303   4.922 130.310  0.00  0.00    +0.000 C 
ATOM     14  C   UNL     1     -11.278   6.227 129.674  0.00  0.00    +0.000 A 
ATOM     15  C   UNL     1     -12.768   6.488 129.197  0.00  0.00    +0.000 A 
ATOM     16  C   UNL     1     -13.234   7.536 128.475  0.00  0.00    +0.000 A 
ATOM     17  C   UNL     1     -12.178   8.409 128.351  0.00  0.00    +0.000 A 
ATOM     18  C   UNL     1     -10.613   8.154 128.955  0.00  0.00    +0.000 A 
ATOM     19  C   UNL     1      -9.986   6.890 129.661  0.00  0.00    +0.000 A 
ENDBRANCH   6   9
BRANCH   1  25
ATOM     20  N   UNL     1       0.037  10.538 133.604  0.00  0.00    +0.000 N 
ATOM     21  C   UNL     1       0.842  10.268 134.685  0.00  0.00    +0.000 A 
ATOM     22  C   UNL     1       0.457   9.082 135.252  0.00  0.00    +0.000 A 
ATOM     23  C   UNL     1      -0.666   8.606 134.534  0.00  0.00    +0.000 A 
ATOM     24  C   UNL     1      -1.500   7.464 134.684  0.00  0.00    +0.000 A 
ATOM     25  C   UNL     1      -2.579   7.244 133.801  0.00  0.00    +0.000 A 
ATOM     26  C   UNL     1      -2.802   8.197 132.808  0.00  0.00    +0.000 A 
ATOM     27  C   UNL     1      -1.983   9.327 132.621  0.00  0.00    +0.000 A 
ATOM     28  C   UNL     1      -0.915   9.526 133.504  0.00  0.00    +0.000 A 
BRANCH  20  29
ATOM     29  C   UNL     1       0.178  11.696 132.706  0.00  0.00    +0.000 C 
BRANCH  29  37
ATOM     30  C   UNL     1       2.307  13.605 135.858  0.00  0.00    +0.000 C 
ATOM     31  C   UNL     1       1.670  13.836 134.497  0.00  0.00    +0.000 C 
ATOM     32  O   UNL     1       2.357  14.075 133.507  0.00  0.00    +0.000 OA
ATOM     33  N   UNL     1       0.316  13.568 134.434  0.00  0.00    +0.000 N 
ATOM     34  C   UNL     1      -0.648  14.080 135.392  0.00  0.00    +0.000 C 
ATOM     35  C   UNL     1      -1.768  13.078 135.282  0.00  0.00    +0.000 C 
ATOM     36  C   UNL     1      -1.845  12.846 133.783  0.00  0.00    +0.000 C 
ATOM     37  C   UNL     1      -0.392  13.031 133.252  0.00  0.00    +0.000 C 
ENDBRANCH  29  37
ENDBRANCH  20  29
ENDBRANCH   1  25
TORSDOF 4
ENDMDL
MODEL 4
REMARK VINA RESULT:      -9.0      5.028      6.684
REMARK  Name = CHEMBL286476
REMARK  5 active torsions:
REMARK  status: ('A' for Active; 'I' for Inactive)
REMARK    1  A    between atoms: C_1  and  C_2
REMARK    2  A    between atoms: C_8  and  C_9
REMARK    3  A    between atoms: C_9  and  N_10
REMARK    4  A    between atoms: C_15  and  C_16
REMARK    5  A    between atoms: C_21  and  N_22
REMARK                            x       y       z     vdW  Elec       q    Type
REMARK                         _______ _______ _______ _____ _____    ______ ____
ROOT
ATOM      1  C   UNL     1      -4.399   5.592 134.798  0.00  0.00    +0.000 C 
ATOM      2  O   UNL     1      -4.343   4.761 135.707  0.00  0.00    +0.000 OA
ATOM      3  N   UNL     1      -5.390   5.528 133.774  0.00  0.00    +0.000 N 
ATOM      4  C   UNL     1      -6.822   5.537 134.098  0.00  0.00    +0.000 C 
ATOM      5  C   UNL     1      -7.638   4.535 133.260  0.00  0.00    +0.000 C 
ATOM      6  C   UNL     1      -7.610   4.898 131.504  0.00  0.00    +0.000 C 
ATOM      7  C   UNL     1      -5.897   4.633 131.475  0.00  0.00    +0.000 C 
ATOM      8  C   UNL     1      -5.097   5.623 132.342  0.00  0.00    +0.000 C 
ENDROOT
BRANCH   6   9
ATOM      9  N   UNL     1      -8.776   6.032 130.594  0.00  0.00    +0.000 N 
ATOM     10  C   UNL     1      -9.628   4.844 130.704  0.00  0.00    +0.000 C 
ATOM     11  O   UNL     1      -9.375   3.599 130.682  0.00  0.00    +0.000 OA
ATOM     12  O   UNL     1     -10.794   5.161 131.191  0.00  0.00    +0.000 OA
ATOM     13  C   UNL     1     -11.634   4.991 130.115  0.00  0.00    +0.000 C 
ATOM     14  C   UNL     1     -11.487   6.319 129.547  0.00  0.00    +0.000 A 
ATOM     15  C   UNL     1     -12.905   6.670 128.929  0.00  0.00    +0.000 A 
ATOM     16  C   UNL     1     -13.247   7.768 128.213  0.00  0.00    +0.000 A 
ATOM     17  C   UNL     1     -12.149   8.595 128.241  0.00  0.00    +0.000 A 
ATOM     18  C   UNL     1     -10.669   8.242 128.992  0.00  0.00    +0.000 A 
ATOM     19  C   UNL     1     -10.174   6.921 129.700  0.00  0.00    +0.000 A 
ENDBRANCH   6   9
BRANCH   1  25
ATOM     20  N   UNL     1      -0.989  10.197 134.892  0.00  0.00    +0.000 N 
ATOM     21  C   UNL     1      -1.784  11.038 135.634  0.00  0.00    +0.000 A 
ATOM     22  C   UNL     1      -2.912  10.368 136.026  0.00  0.00    +0.000 A 
ATOM     23  C   UNL     1      -2.855   9.067 135.472  0.00  0.00    +0.000 A 
ATOM     24  C   UNL     1      -3.744   7.958 135.506  0.00  0.00    +0.000 A 
ATOM     25  C   UNL     1      -3.420   6.758 134.838  0.00  0.00    +0.000 A 
ATOM     26  C   UNL     1      -2.218   6.721 134.131  0.00  0.00    +0.000 A 
ATOM     27  C   UNL     1      -1.307   7.794 134.095  0.00  0.00    +0.000 A 
ATOM     28  C   UNL     1      -1.645   8.974 134.767  0.00  0.00    +0.000 A 
BRANCH  20  29
ATOM     29  C   UNL     1       0.332  10.540 134.341  0.00  0.00    +0.000 C 
BRANCH  29  37
ATOM     30  C   UNL     1       0.768  12.937 130.852  0.00  0.00    +0.000 C 
ATOM     31  C   UNL     1       0.138  12.893 132.236  0.00  0.00    +0.000 C 
ATOM     32  O   UNL     1      -1.079  12.821 132.377  0.00  0.00    +0.000 OA
ATOM     33  N   UNL     1       1.033  12.750 133.278  0.00  0.00    +0.000 N 
ATOM     34  C   UNL     1       2.224  13.568 133.432  0.00  0.00    +0.000 C 
ATOM     35  C   UNL     1       3.112  12.681 134.265  0.00  0.00    +0.000 C 
ATOM     36  C   UNL     1       2.136  12.104 135.274  0.00  0.00    +0.000 C 
ATOM     37  C   UNL     1       0.768  12.015 134.534  0.00  0.00    +0.000 C 
ENDBRANCH  29  37
ENDBRANCH  20  29
ENDBRANCH   1  25
TORSDOF 4
ENDMDL
MODEL 5
REMARK VINA RESULT:      -8.9      2.345      3.204
REMARK  Name = CHEMBL286476
REMARK  5 active torsions:
REMARK  status: ('A' for Active; 'I' for Inactive)
REMARK    1  A    between atoms: C_1  and  C_2
REMARK    2  A    between atoms: C_8  and  C_9
REMARK    3  A    between atoms: C_9  and  N_10
REMARK    4  A    between atoms: C_15  and  C_16
REMARK    5  A    between atoms: C_21  and  N_22
REMARK                            x       y       z     vdW  Elec       q    Type
REMARK                         _______ _______ _______ _____ _____    ______ ____
ROOT
ATOM      1  C   UNL     1      -4.093   5.770 128.671  0.00  0.00    +0.000 C 
ATOM      2  O   UNL     1      -4.137   6.318 127.568  0.00  0.00    +0.000 OA
ATOM      3  N   UNL     1      -4.591   4.449 128.879  0.00  0.00    +0.000 N 
ATOM      4  C   UNL     1      -4.081   3.311 128.104  0.00  0.00    +0.000 C 
ATOM      5  C   UNL     1      -5.191   2.346 127.646  0.00  0.00    +0.000 C 
ATOM      6  C   UNL     1      -6.052   1.564 129.009  0.00  0.00    +0.000 C 
ATOM      7  C   UNL     1      -6.622   3.114 129.541  0.00  0.00    +0.000 C 
ATOM      8  C   UNL     1      -5.499   4.077 129.967  0.00  0.00    +0.000 C 
ENDROOT
BRANCH   6   9
ATOM      9  N   UNL     1      -5.556  -0.014 129.868  0.00  0.00    +0.000 N 
ATOM     10  C   UNL     1      -6.639  -0.527 129.021  0.00  0.00    +0.000 C 
ATOM     11  O   UNL     1      -7.733  -0.019 128.623  0.00  0.00    +0.000 OA
ATOM     12  O   UNL     1      -6.241  -1.573 128.355  0.00  0.00    +0.000 OA
ATOM     13  C   UNL     1      -6.950  -2.598 128.938  0.00  0.00    +0.000 C 
ATOM     14  C   UNL     1      -6.011  -2.895 130.004  0.00  0.00    +0.000 A 
ATOM     15  C   UNL     1      -6.102  -4.465 130.216  0.00  0.00    +0.000 A 
ATOM     16  C   UNL     1      -5.477  -5.210 131.160  0.00  0.00    +0.000 A 
ATOM     17  C   UNL     1      -4.632  -4.351 131.822  0.00  0.00    +0.000 A 
ATOM     18  C   UNL     1      -4.478  -2.689 131.515  0.00  0.00    +0.000 A 
ATOM     19  C   UNL     1      -5.291  -1.752 130.539  0.00  0.00    +0.000 A 
ENDBRANCH   6   9
BRANCH   1  25
ATOM     20  N   UNL     1      -1.460   8.254 133.113  0.00  0.00    +0.000 N 
ATOM     21  C   UNL     1      -0.426   7.364 133.276  0.00  0.00    +0.000 A 
ATOM     22  C   UNL     1      -0.491   6.408 132.296  0.00  0.00    +0.000 A 
ATOM     23  C   UNL     1      -1.639   6.673 131.512  0.00  0.00    +0.000 A 
ATOM     24  C   UNL     1      -2.228   6.012 130.399  0.00  0.00    +0.000 A 
ATOM     25  C   UNL     1      -3.408   6.513 129.809  0.00  0.00    +0.000 A 
ATOM     26  C   UNL     1      -3.975   7.654 130.377  0.00  0.00    +0.000 A 
ATOM     27  C   UNL     1      -3.406   8.343 131.465  0.00  0.00    +0.000 A 
ATOM     28  C   UNL     1      -2.233   7.833 132.034  0.00  0.00    +0.000 A 
BRANCH  20  29
ATOM     29  C   UNL     1      -1.691   9.450 133.939  0.00  0.00    +0.000 C 
BRANCH  29  37
ATOM     30  C   UNL     1       0.225  12.002 136.754  0.00  0.00    +0.000 C 
ATOM     31  C   UNL     1       0.401  11.312 135.411  0.00  0.00    +0.000 C 
ATOM     32  O   UNL     1       1.205  10.395 135.269  0.00  0.00    +0.000 OA
ATOM     33  N   UNL     1      -0.527  11.663 134.450  0.00  0.00    +0.000 N 
ATOM     34  C   UNL     1      -0.867  13.037 134.125  0.00  0.00    +0.000 C 
ATOM     35  C   UNL     1      -2.250  12.894 133.547  0.00  0.00    +0.000 C 
ATOM     36  C   UNL     1      -2.114  11.648 132.689  0.00  0.00    +0.000 C 
ATOM     37  C   UNL     1      -1.053  10.759 133.404  0.00  0.00    +0.000 C 
ENDBRANCH  29  37
ENDBRANCH  20  29
ENDBRANCH   1  25
TORSDOF 4
ENDMDL
MODEL 6
REMARK VINA RESULT:      -8.9      2.708     11.560
REMARK  Name = CHEMBL286476
REMARK  5 active torsions:
REMARK  status: ('A' for Active; 'I' for Inactive)
REMARK    1  A    between atoms: C_1  and  C_2
REMARK    2  A    between atoms: C_8  and  C_9
REMARK    3  A    between atoms: C_9  and  N_10
REMARK    4  A    between atoms: C_15  and  C_16
REMARK    5  A    between atoms: C_21  and  N_22
REMARK                            x       y       z     vdW  Elec       q    Type
REMARK                         _______ _______ _______ _____ _____    ______ ____
ROOT
ATOM      1  C   UNL     1      -3.192   5.293 128.487  0.00  0.00    +0.000 C 
ATOM      2  O   UNL     1      -2.383   5.980 127.861  0.00  0.00    +0.000 OA
ATOM      3  N   UNL     1      -3.409   5.468 129.887  0.00  0.00    +0.000 N 
ATOM      4  C   UNL     1      -3.826   6.763 130.438  0.00  0.00    +0.000 C 
ATOM      5  C   UNL     1      -3.095   7.127 131.744  0.00  0.00    +0.000 C 
ATOM      6  C   UNL     1      -3.429   5.983 133.082  0.00  0.00    +0.000 C 
ATOM      7  C   UNL     1      -2.687   4.703 132.176  0.00  0.00    +0.000 C 
ATOM      8  C   UNL     1      -3.412   4.371 130.859  0.00  0.00    +0.000 C 
ENDROOT
BRANCH   6   9
ATOM      9  N   UNL     1      -4.844   6.082 134.291  0.00  0.00    +0.000 N 
ATOM     10  C   UNL     1      -3.759   6.578 135.144  0.00  0.00    +0.000 C 
ATOM     11  O   UNL     1      -2.524   6.290 135.219  0.00  0.00    +0.000 OA
ATOM     12  O   UNL     1      -4.100   7.700 135.710  0.00  0.00    +0.000 OA
ATOM     13  C   UNL     1      -4.243   7.349 137.032  0.00  0.00    +0.000 C 
ATOM     14  C   UNL     1      -5.633   6.936 136.969  0.00  0.00    +0.000 A 
ATOM     15  C   UNL     1      -6.255   7.347 138.369  0.00  0.00    +0.000 A 
ATOM     16  C   UNL     1      -7.506   7.093 138.826  0.00  0.00    +0.000 A 
ATOM     17  C   UNL     1      -8.184   6.523 137.774  0.00  0.00    +0.000 A 
ATOM     18  C   UNL     1      -7.526   6.180 136.248  0.00  0.00    +0.000 A 
ATOM     19  C   UNL     1      -6.043   6.313 135.723  0.00  0.00    +0.000 A 
ENDBRANCH   6   9
BRANCH   1  25
ATOM     20  N   UNL     1      -6.630   1.620 125.745  0.00  0.00    +0.000 N 
ATOM     21  C   UNL     1      -7.742   2.417 125.619  0.00  0.00    +0.000 A 
ATOM     22  C   UNL     1      -7.467   3.662 126.123  0.00  0.00    +0.000 A 
ATOM     23  C   UNL     1      -6.147   3.638 126.632  0.00  0.00    +0.000 A 
ATOM     24  C   UNL     1      -5.344   4.607 127.294  0.00  0.00    +0.000 A 
ATOM     25  C   UNL     1      -4.032   4.292 127.706  0.00  0.00    +0.000 A 
ATOM     26  C   UNL     1      -3.575   2.997 127.461  0.00  0.00    +0.000 A 
ATOM     27  C   UNL     1      -4.337   2.021 126.790  0.00  0.00    +0.000 A 
ATOM     28  C   UNL     1      -5.635   2.354 126.386  0.00  0.00    +0.000 A 
BRANCH  20  29
ATOM     29  C   UNL     1      -6.520   0.232 125.267  0.00  0.00    +0.000 C 
BRANCH  29  37
ATOM     30  C   UNL     1      -9.382  -2.870 125.816  0.00  0.00    +0.000 C 
ATOM     31  C   UNL     1      -9.202  -1.445 125.315  0.00  0.00    +0.000 C 
ATOM     32  O   UNL     1      -9.699  -0.495 125.912  0.00  0.00    +0.000 OA
ATOM     33  N   UNL     1      -8.302  -1.303 124.277  0.00  0.00    +0.000 N 
ATOM     34  C   UNL     1      -8.321  -2.124 123.079  0.00  0.00    +0.000 C 
ATOM     35  C   UNL     1      -6.894  -2.027 122.605  0.00  0.00    +0.000 C 
ATOM     36  C   UNL     1      -6.580  -0.558 122.829  0.00  0.00    +0.000 C 
ATOM     37  C   UNL     1      -7.428  -0.129 124.063  0.00  0.00    +0.000 C 
ENDBRANCH  29  37
ENDBRANCH  20  29
ENDBRANCH   1  25
TORSDOF 4
ENDMDL
MODEL 7
REMARK VINA RESULT:      -8.8      3.283     11.926
REMARK  Name = CHEMBL286476
REMARK  5 active torsions:
REMARK  status: ('A' for Active; 'I' for Inactive)
REMARK    1  A    between atoms: C_1  and  C_2
REMARK    2  A    between atoms: C_8  and  C_9
REMARK    3  A    between atoms: C_9  and  N_10
REMARK    4  A    between atoms: C_15  and  C_16
REMARK    5  A    between atoms: C_21  and  N_22
REMARK                            x       y       z     vdW  Elec       q    Type
REMARK                         _______ _______ _______ _____ _____    ______ ____
ROOT
ATOM      1  C   UNL     1      -6.737  -1.398 131.383  0.00  0.00    +0.000 C 
ATOM      2  O   UNL     1      -6.820  -2.383 132.119  0.00  0.00    +0.000 OA
ATOM      3  N   UNL     1      -6.496  -0.089 131.896  0.00  0.00    +0.000 N 
ATOM      4  C   UNL     1      -5.309   0.206 132.707  0.00  0.00    +0.000 C 
ATOM      5  C   UNL     1      -5.612   1.110 133.917  0.00  0.00    +0.000 C 
ATOM      6  C   UNL     1      -6.206   2.736 133.451  0.00  0.00    +0.000 C 
ATOM      7  C   UNL     1      -7.606   2.017 132.722  0.00  0.00    +0.000 C 
ATOM      8  C   UNL     1      -7.285   1.092 131.533  0.00  0.00    +0.000 C 
ENDROOT
BRANCH   6   9
ATOM      9  N   UNL     1      -5.156   4.229 133.076  0.00  0.00    +0.000 N 
ATOM     10  C   UNL     1      -5.396   4.452 134.506  0.00  0.00    +0.000 C 
ATOM     11  O   UNL     1      -6.391   4.211 135.258  0.00  0.00    +0.000 OA
ATOM     12  O   UNL     1      -4.274   4.673 135.129  0.00  0.00    +0.000 OA
ATOM     13  C   UNL     1      -4.364   6.004 135.465  0.00  0.00    +0.000 C 
ATOM     14  C   UNL     1      -3.813   6.548 134.237  0.00  0.00    +0.000 A 
ATOM     15  C   UNL     1      -3.008   7.842 134.677  0.00  0.00    +0.000 A 
ATOM     16  C   UNL     1      -2.385   8.741 133.877  0.00  0.00    +0.000 A 
ATOM     17  C   UNL     1      -2.472   8.236 132.601  0.00  0.00    +0.000 A 
ATOM     18  C   UNL     1      -3.257   6.797 132.163  0.00  0.00    +0.000 A 
ATOM     19  C   UNL     1      -4.124   5.802 133.029  0.00  0.00    +0.000 A 
ENDBRANCH   6   9
BRANCH   1  25
ATOM     20  N   UNL     1      -7.135  -2.578 125.790  0.00  0.00    +0.000 N 
ATOM     21  C   UNL     1      -8.319  -3.275 125.800  0.00  0.00    +0.000 A 
ATOM     22  C   UNL     1      -8.831  -3.281 127.071  0.00  0.00    +0.000 A 
ATOM     23  C   UNL     1      -7.913  -2.604 127.908  0.00  0.00    +0.000 A 
ATOM     24  C   UNL     1      -7.890  -2.332 129.304  0.00  0.00    +0.000 A 
ATOM     25  C   UNL     1      -6.814  -1.623 129.879  0.00  0.00    +0.000 A 
ATOM     26  C   UNL     1      -5.777  -1.231 129.032  0.00  0.00    +0.000 A 
ATOM     27  C   UNL     1      -5.781  -1.466 127.644  0.00  0.00    +0.000 A 
ATOM     28  C   UNL     1      -6.858  -2.167 127.092  0.00  0.00    +0.000 A 
BRANCH  20  29
ATOM     29  C   UNL     1      -6.317  -2.308 124.597  0.00  0.00    +0.000 C 
BRANCH  29  37
ATOM     30  C   UNL     1      -8.697   0.913 126.038  0.00  0.00    +0.000 C 
ATOM     31  C   UNL     1      -7.562   0.559 125.090  0.00  0.00    +0.000 C 
ATOM     32  O   UNL     1      -6.414   0.939 125.304  0.00  0.00    +0.000 OA
ATOM     33  N   UNL     1      -7.887  -0.357 124.108  0.00  0.00    +0.000 N 
ATOM     34  C   UNL     1      -9.063  -0.243 123.262  0.00  0.00    +0.000 C 
ATOM     35  C   UNL     1      -9.296  -1.673 122.850  0.00  0.00    +0.000 C 
ATOM     36  C   UNL     1      -7.886  -2.163 122.574  0.00  0.00    +0.000 C 
ATOM     37  C   UNL     1      -6.965  -1.368 123.547  0.00  0.00    +0.000 C 
ENDBRANCH  29  37
ENDBRANCH  20  29
ENDBRANCH   1  25
TORSDOF 4
ENDMDL
MODEL 8
REMARK VINA RESULT:      -8.8      2.810      4.081
REMARK  Name = CHEMBL286476
REMARK  5 active torsions:
REMARK  status: ('A' for Active; 'I' for Inactive)
REMARK    1  A    between atoms: C_1  and  C_2
REMARK    2  A    between atoms: C_8  and  C_9
REMARK    3  A    between atoms: C_9  and  N_10
REMARK    4  A    between atoms: C_15  and  C_16
REMARK    5  A    between atoms: C_21  and  N_22
REMARK                            x       y       z     vdW  Elec       q    Type
REMARK                         _______ _______ _______ _____ _____    ______ ____
ROOT
ATOM      1  C   UNL     1      -6.495   2.202 132.957  0.00  0.00    +0.000 C 
ATOM      2  O   UNL     1      -6.997   2.049 134.072  0.00  0.00    +0.000 OA
ATOM      3  N   UNL     1      -6.748   1.296 131.884  0.00  0.00    +0.000 N 
ATOM      4  C   UNL     1      -8.114   1.027 131.419  0.00  0.00    +0.000 C 
ATOM      5  C   UNL     1      -8.369  -0.462 131.123  0.00  0.00    +0.000 C 
ATOM      6  C   UNL     1      -7.349  -1.103 129.795  0.00  0.00    +0.000 C 
ATOM      7  C   UNL     1      -5.926  -0.790 130.736  0.00  0.00    +0.000 C 
ATOM      8  C   UNL     1      -5.701   0.700 131.049  0.00  0.00    +0.000 C 
ENDROOT
BRANCH   6   9
ATOM      9  N   UNL     1      -7.751  -1.060 127.976  0.00  0.00    +0.000 N 
ATOM     10  C   UNL     1      -7.839  -2.505 128.212  0.00  0.00    +0.000 C 
ATOM     11  O   UNL     1      -7.201  -3.292 128.979  0.00  0.00    +0.000 OA
ATOM     12  O   UNL     1      -8.961  -2.977 127.747  0.00  0.00    +0.000 OA
ATOM     13  C   UNL     1      -8.556  -3.730 126.670  0.00  0.00    +0.000 C 
ATOM     14  C   UNL     1      -8.570  -2.669 125.680  0.00  0.00    +0.000 A 
ATOM     15  C   UNL     1      -9.024  -3.362 124.328  0.00  0.00    +0.000 A 
ATOM     16  C   UNL     1      -9.106  -2.802 123.096  0.00  0.00    +0.000 A 
ATOM     17  C   UNL     1      -8.846  -1.463 123.273  0.00  0.00    +0.000 A 
ATOM     18  C   UNL     1      -8.456  -0.721 124.748  0.00  0.00    +0.000 A 
ATOM     19  C   UNL     1      -8.198  -1.353 126.171  0.00  0.00    +0.000 A 
ENDBRANCH   6   9
BRANCH   1  25
ATOM     20  N   UNL     1      -3.430   6.885 131.727  0.00  0.00    +0.000 N 
ATOM     21  C   UNL     1      -4.357   7.555 130.965  0.00  0.00    +0.000 A 
ATOM     22  C   UNL     1      -5.525   6.839 130.937  0.00  0.00    +0.000 A 
ATOM     23  C   UNL     1      -5.316   5.646 131.669  0.00  0.00    +0.000 A 
ATOM     24  C   UNL     1      -6.141   4.522 131.948  0.00  0.00    +0.000 A 
ATOM     25  C   UNL     1      -5.651   3.447 132.719  0.00  0.00    +0.000 A 
ATOM     26  C   UNL     1      -4.332   3.524 133.165  0.00  0.00    +0.000 A 
ATOM     27  C   UNL     1      -3.496   4.632 132.923  0.00  0.00    +0.000 A 
ATOM     28  C   UNL     1      -4.002   5.690 132.159  0.00  0.00    +0.000 A 
BRANCH  20  29
ATOM     29  C   UNL     1      -2.075   7.366 132.036  0.00  0.00    +0.000 C 
BRANCH  29  37
ATOM     30  C   UNL     1      -0.201  11.114 132.783  0.00  0.00    +0.000 C 
ATOM     31  C   UNL     1      -1.387  10.242 133.163  0.00  0.00    +0.000 C 
ATOM     32  O   UNL     1      -2.532  10.556 132.852  0.00  0.00    +0.000 OA
ATOM     33  N   UNL     1      -1.057   9.012 133.700  0.00  0.00    +0.000 N 
ATOM     34  C   UNL     1      -0.100   8.837 134.778  0.00  0.00    +0.000 C 
ATOM     35  C   UNL     1       0.349   7.413 134.576  0.00  0.00    +0.000 C 
ATOM     36  C   UNL     1      -0.955   6.708 134.246  0.00  0.00    +0.000 C 
ATOM     37  C   UNL     1      -1.834   7.767 133.515  0.00  0.00    +0.000 C 
ENDBRANCH  29  37
ENDBRANCH  20  29
ENDBRANCH   1  25
TORSDOF 4
ENDMDL
MODEL 9
REMARK VINA RESULT:      -8.6      3.358     12.109
REMARK  Name = CHEMBL286476
REMARK  5 active torsions:
REMARK  status: ('A' for Active; 'I' for Inactive)
REMARK    1  A    between atoms: C_1  and  C_2
REMARK    2  A    between atoms: C_8  and  C_9
REMARK    3  A    between atoms: C_9  and  N_10
REMARK    4  A    between atoms: C_15  and  C_16
REMARK    5  A    between atoms: C_21  and  N_22
REMARK                            x       y       z     vdW  Elec       q    Type
REMARK                         _______ _______ _______ _____ _____    ______ ____
ROOT
ATOM      1  C   UNL     1      -6.664  -0.666 133.308  0.00  0.00    +0.000 C 
ATOM      2  O   UNL     1      -6.769  -1.489 134.220  0.00  0.00    +0.000 OA
ATOM      3  N   UNL     1      -6.364   0.706 133.558  0.00  0.00    +0.000 N 
ATOM      4  C   UNL     1      -5.150   1.101 134.282  0.00  0.00    +0.000 C 
ATOM      5  C   UNL     1      -5.394   2.231 135.300  0.00  0.00    +0.000 C 
ATOM      6  C   UNL     1      -5.936   3.761 134.540  0.00  0.00    +0.000 C 
ATOM      7  C   UNL     1      -7.377   2.974 133.980  0.00  0.00    +0.000 C 
ATOM      8  C   UNL     1      -7.114   1.827 132.986  0.00  0.00    +0.000 C 
ENDROOT
BRANCH   6   9
ATOM      9  N   UNL     1      -4.838   5.111 133.873  0.00  0.00    +0.000 N 
ATOM     10  C   UNL     1      -5.036   5.609 135.238  0.00  0.00    +0.000 C 
ATOM     11  O   UNL     1      -6.022   5.557 136.038  0.00  0.00    +0.000 OA
ATOM     12  O   UNL     1      -3.892   5.896 135.790  0.00  0.00    +0.000 OA
ATOM     13  C   UNL     1      -3.924   7.269 135.870  0.00  0.00    +0.000 C 
ATOM     14  C   UNL     1      -3.381   7.548 134.553  0.00  0.00    +0.000 A 
ATOM     15  C   UNL     1      -2.516   8.867 134.727  0.00  0.00    +0.000 A 
ATOM     16  C   UNL     1      -1.878   9.572 133.762  0.00  0.00    +0.000 A 
ATOM     17  C   UNL     1      -2.013   8.839 132.606  0.00  0.00    +0.000 A 
ATOM     18  C   UNL     1      -2.863   7.378 132.461  0.00  0.00    +0.000 A 
ATOM     19  C   UNL     1      -3.747   6.602 133.513  0.00  0.00    +0.000 A 
ENDBRANCH   6   9
BRANCH   1  25
ATOM     20  N   UNL     1      -6.865  -2.320 127.825  0.00  0.00    +0.000 N 
ATOM     21  C   UNL     1      -5.524  -2.262 127.533  0.00  0.00    +0.000 A 
ATOM     22  C   UNL     1      -4.827  -1.923 128.663  0.00  0.00    +0.000 A 
ATOM     23  C   UNL     1      -5.767  -1.711 129.700  0.00  0.00    +0.000 A 
ATOM     24  C   UNL     1      -5.638  -1.312 131.059  0.00  0.00    +0.000 A 
ATOM     25  C   UNL     1      -6.780  -1.171 131.876  0.00  0.00    +0.000 A 
ATOM     26  C   UNL     1      -8.023  -1.412 131.290  0.00  0.00    +0.000 A 
ATOM     27  C   UNL     1      -8.182  -1.828 129.954  0.00  0.00    +0.000 A 
ATOM     28  C   UNL     1      -7.037  -1.965 129.161  0.00  0.00    +0.000 A 
BRANCH  20  29
ATOM     29  C   UNL     1      -7.925  -2.706 126.881  0.00  0.00    +0.000 C 
BRANCH  29  37
ATOM     30  C   UNL     1      -9.675   0.762 125.140  0.00  0.00    +0.000 C 
ATOM     31  C   UNL     1      -8.366   0.007 125.312  0.00  0.00    +0.000 C 
ATOM     32  O   UNL     1      -7.454   0.464 125.996  0.00  0.00    +0.000 OA
ATOM     33  N   UNL     1      -8.367  -1.281 124.811  0.00  0.00    +0.000 N 
ATOM     34  C   UNL     1      -8.826  -1.622 123.476  0.00  0.00    +0.000 C 
ATOM     35  C   UNL     1      -9.201  -3.073 123.630  0.00  0.00    +0.000 C 
ATOM     36  C   UNL     1      -8.066  -3.608 124.485  0.00  0.00    +0.000 C 
ATOM     37  C   UNL     1      -7.620  -2.419 125.387  0.00  0.00    +0.000 C 
ENDBRANCH  29  37
ENDBRANCH  20  29
ENDBRANCH   1  25
TORSDOF 4
ENDMDL
