MODEL 1
REMARK VINA RESULT:      -9.0      0.000      0.000
REMARK  Name = CHEMBL371291
REMARK  14 active torsions:
REMARK  status: ('A' for Active; 'I' for Inactive)
REMARK    1  A    between atoms: CD1_1  and  CG_2
REMARK    2  A    between atoms: CG_2  and  CD2_3
REMARK    3  A    between atoms: CG_2  and  CB_4
REMARK    4  A    between atoms: CB_4  and  CA_5
REMARK    5  A    between atoms: C_9  and  C_10
REMARK    6  A    between atoms: N_21  and  C_22
REMARK    7  A    between atoms: C_22  and  C_23
REMARK    8  A    between atoms: C_22  and  C_29
REMARK    9  A    between atoms: N_25  and  C_26
REMARK   10  A    between atoms: C_26  and  C_27
REMARK   11  A    between atoms: C_26  and  C_28
REMARK   12  A    between atoms: C_32  and  N_33
REMARK   13  A    between atoms: N_33  and  C_34
REMARK   14  A    between atoms: N_33  and  C_35
REMARK                            x       y       z     vdW  Elec       q    Type
REMARK                         _______ _______ _______ _____ _____    ______ ____
ROOT
ATOM      1  CA  LEU A   2      -8.851   3.313 130.939  0.00  0.00    +0.000 C 
ATOM      2  C   LEU A   2      -9.187   3.929 129.579  0.00  0.00    +0.000 C 
ATOM      3  O   LEU A   2      -8.934   3.489 128.486  0.00  0.00    +0.000 OA
ATOM      4  N   UNK A   1      -9.929   5.060 129.733  0.00  0.00    +0.000 N 
ATOM      5  C   UNK A   1     -10.284   5.593 131.037  0.00  0.00    +0.000 C 
ATOM      6  C   UNK A   1      -9.048   5.480 131.990  0.00  0.00    +0.000 C 
ATOM      7  O   UNK A   1      -8.874   6.311 132.878  0.00  0.00    +0.000 OA
ATOM      8  N   LEU A   2      -8.234   4.335 131.809  0.00  0.00    +0.000 N 
ATOM      9  H   UNK A   1     -10.218   5.475 128.858  0.00  0.00    +0.000 HD
ENDROOT
BRANCH   5  10
ATOM     10  C   UNK A   1     -10.633   7.095 130.973  0.00  0.00    +0.000 C 
ATOM     11  C   UNK A   1     -12.141   7.378 130.831  0.00  0.00    +0.000 C 
ATOM     12  C   UNK A   1     -12.300   7.358 129.339  0.00  0.00    +0.000 A 
ATOM     13  C   UNK A   1     -13.442   7.084 128.612  0.00  0.00    +0.000 A 
ATOM     14  C   UNK A   1     -13.323   6.952 127.226  0.00  0.00    +0.000 A 
ATOM     15  C   UNK A   1     -12.075   7.077 126.594  0.00  0.00    +0.000 A 
ATOM     16  C   UNK A   1     -10.926   7.355 127.333  0.00  0.00    +0.000 A 
ATOM     17  C   UNK A   1     -11.060   7.518 128.701  0.00  0.00    +0.000 A 
ATOM     18  C   UNK A   1      -9.968   7.706 129.708  0.00  0.00    +0.000 C 
ENDBRANCH   5  10
BRANCH   1  19
ATOM     19  CB  LEU A   2      -8.032   2.111 130.705  0.00  0.00    +0.000 C 
BRANCH  19  21
ATOM     20  CD1 LEU A   2      -9.933   1.300 131.907  0.00  0.00    +0.000 C 
ATOM     21  CG  LEU A   2      -8.510   1.007 131.679  0.00  0.00    +0.000 C 
ATOM     22  CD2 LEU A   2      -8.382  -0.465 131.286  0.00  0.00    +0.000 C 
ENDBRANCH  19  21
ENDBRANCH   1  19
BRANCH   8  23
ATOM     23  C   UNK A   0      -7.037   4.109 132.764  0.00  0.00    +0.000 C 
BRANCH  23  24
ATOM     24  C   UNK A   0      -5.727   4.693 132.112  0.00  0.00    +0.000 A 
ATOM     25  C   UNK A   0      -5.462   6.070 131.996  0.00  0.00    +0.000 A 
ATOM     26  C   UNK A   0      -4.317   6.575 131.389  0.00  0.00    +0.000 A 
ATOM     27  C   UNK A   0      -3.266   5.750 131.013  0.00  0.00    +0.000 A 
ATOM     28  C   UNK A   0      -3.517   4.372 131.154  0.00  0.00    +0.000 A 
ATOM     29  C   UNK A   0      -4.722   3.851 131.654  0.00  0.00    +0.000 A 
BRANCH  27  30
ATOM     30  N   UNK A   0      -2.068   6.271 130.558  0.00  0.00    +0.000 N 
ATOM     31  C   UNK A   0      -1.853   6.667 129.165  0.00  0.00    +0.000 C 
ATOM     32  C   UNK A   0      -0.976   6.602 131.465  0.00  0.00    +0.000 C 
ENDBRANCH  27  30
ENDBRANCH  23  24
BRANCH  23  33
ATOM     33  C   UNK A   0      -6.997   4.414 134.471  0.00  0.00    +0.000 C 
ATOM     34  O   UNK A   0      -6.692   3.540 135.297  0.00  0.00    +0.000 OA
ATOM     35  N   UNK A   0      -7.331   5.648 135.020  0.00  0.00    +0.000 N 
ATOM     36  H   UNK A   0      -7.824   6.319 134.443  0.00  0.00    +0.000 HD
BRANCH  35  37
ATOM     37  C   UNK A   0      -7.041   5.978 136.467  0.00  0.00    +0.000 C 
ATOM     38  C   UNK A   0      -5.845   6.884 136.765  0.00  0.00    +0.000 C 
ATOM     39  C   UNK A   0      -8.160   6.760 137.088  0.00  0.00    +0.000 C 
ENDBRANCH  35  37
ENDBRANCH  23  33
ENDBRANCH   8  23
TORSDOF 8
ENDMDL
MODEL 2
REMARK VINA RESULT:      -8.9      2.928      7.223
REMARK  Name = CHEMBL371291
REMARK  14 active torsions:
REMARK  status: ('A' for Active; 'I' for Inactive)
REMARK    1  A    between atoms: CD1_1  and  CG_2
REMARK    2  A    between atoms: CG_2  and  CD2_3
REMARK    3  A    between atoms: CG_2  and  CB_4
REMARK    4  A    between atoms: CB_4  and  CA_5
REMARK    5  A    between atoms: C_9  and  C_10
REMARK    6  A    between atoms: N_21  and  C_22
REMARK    7  A    between atoms: C_22  and  C_23
REMARK    8  A    between atoms: C_22  and  C_29
REMARK    9  A    between atoms: N_25  and  C_26
REMARK   10  A    between atoms: C_26  and  C_27
REMARK   11  A    between atoms: C_26  and  C_28
REMARK   12  A    between atoms: C_32  and  N_33
REMARK   13  A    between atoms: N_33  and  C_34
REMARK   14  A    between atoms: N_33  and  C_35
REMARK                            x       y       z     vdW  Elec       q    Type
REMARK                         _______ _______ _______ _____ _____    ______ ____
ROOT
ATOM      1  CA  LEU A   2      -7.244   1.975 131.579  0.00  0.00    +0.000 C 
ATOM      2  C   LEU A   2      -6.680   0.630 132.038  0.00  0.00    +0.000 C 
ATOM      3  O   LEU A   2      -6.549   0.230 133.168  0.00  0.00    +0.000 OA
ATOM      4  N   UNK A   1      -6.402  -0.167 130.970  0.00  0.00    +0.000 N 
ATOM      5  C   UNK A   1      -6.587   0.272 129.597  0.00  0.00    +0.000 C 
ATOM      6  C   UNK A   1      -6.100   1.753 129.462  0.00  0.00    +0.000 C 
ATOM      7  O   UNK A   1      -5.621   2.152 128.404  0.00  0.00    +0.000 OA
ATOM      8  N   LEU A   2      -6.335   2.582 130.586  0.00  0.00    +0.000 N 
ATOM      9  H   UNK A   1      -6.073  -1.087 131.227  0.00  0.00    +0.000 HD
ENDROOT
BRANCH   5  10
ATOM     10  C   UNK A   1      -5.731  -0.547 128.607  0.00  0.00    +0.000 C 
ATOM     11  C   UNK A   1      -6.316  -0.611 127.184  0.00  0.00    +0.000 C 
ATOM     12  C   UNK A   1      -7.205  -1.815 127.289  0.00  0.00    +0.000 A 
ATOM     13  C   UNK A   1      -8.322  -2.112 126.535  0.00  0.00    +0.000 A 
ATOM     14  C   UNK A   1      -9.102  -3.207 126.919  0.00  0.00    +0.000 A 
ATOM     15  C   UNK A   1      -8.768  -3.970 128.049  0.00  0.00    +0.000 A 
ATOM     16  C   UNK A   1      -7.637  -3.666 128.805  0.00  0.00    +0.000 A 
ATOM     17  C   UNK A   1      -6.852  -2.601 128.397  0.00  0.00    +0.000 A 
ATOM     18  C   UNK A   1      -5.669  -2.019 129.104  0.00  0.00    +0.000 C 
ENDBRANCH   5  10
BRANCH   1  19
ATOM     19  CB  LEU A   2      -7.502   2.794 132.776  0.00  0.00    +0.000 C 
BRANCH  19  21
ATOM     20  CD1 LEU A   2      -9.321   3.993 133.763  0.00  0.00    +0.000 C 
ATOM     21  CG  LEU A   2      -9.016   2.720 133.091  0.00  0.00    +0.000 C 
ATOM     22  CD2 LEU A   2     -10.024   2.524 131.958  0.00  0.00    +0.000 C 
ENDBRANCH  19  21
ENDBRANCH   1  19
BRANCH   8  23
ATOM     23  C   UNK A   0      -5.954   4.081 130.503  0.00  0.00    +0.000 C 
BRANCH  23  24
ATOM     24  C   UNK A   0      -7.260   4.946 130.338  0.00  0.00    +0.000 A 
ATOM     25  C   UNK A   0      -7.551   6.074 131.127  0.00  0.00    +0.000 A 
ATOM     26  C   UNK A   0      -8.723   6.812 130.995  0.00  0.00    +0.000 A 
ATOM     27  C   UNK A   0      -9.610   6.593 129.951  0.00  0.00    +0.000 A 
ATOM     28  C   UNK A   0      -9.306   5.482 129.142  0.00  0.00    +0.000 A 
ATOM     29  C   UNK A   0      -8.186   4.657 129.345  0.00  0.00    +0.000 A 
BRANCH  27  30
ATOM     30  N   UNK A   0     -10.689   7.431 129.732  0.00  0.00    +0.000 N 
ATOM     31  C   UNK A   0     -10.748   8.371 128.612  0.00  0.00    +0.000 C 
ATOM     32  C   UNK A   0     -11.912   7.335 130.518  0.00  0.00    +0.000 C 
ENDBRANCH  27  30
ENDBRANCH  23  24
BRANCH  23  33
ATOM     33  C   UNK A   0      -4.846   4.930 131.533  0.00  0.00    +0.000 C 
ATOM     34  O   UNK A   0      -4.803   4.748 132.759  0.00  0.00    +0.000 OA
ATOM     35  N   UNK A   0      -3.959   5.888 131.052  0.00  0.00    +0.000 N 
ATOM     36  H   UNK A   0      -4.109   6.266 130.124  0.00  0.00    +0.000 HD
BRANCH  35  37
ATOM     37  C   UNK A   0      -2.830   6.424 131.903  0.00  0.00    +0.000 C 
ATOM     38  C   UNK A   0      -1.416   6.376 131.322  0.00  0.00    +0.000 C 
ATOM     39  C   UNK A   0      -2.987   7.892 132.165  0.00  0.00    +0.000 C 
ENDBRANCH  35  37
ENDBRANCH  23  33
ENDBRANCH   8  23
TORSDOF 8
ENDMDL
MODEL 3
REMARK VINA RESULT:      -8.8      2.292      8.152
REMARK  Name = CHEMBL371291
REMARK  14 active torsions:
REMARK  status: ('A' for Active; 'I' for Inactive)
REMARK    1  A    between atoms: CD1_1  and  CG_2
REMARK    2  A    between atoms: CG_2  and  CD2_3
REMARK    3  A    between atoms: CG_2  and  CB_4
REMARK    4  A    between atoms: CB_4  and  CA_5
REMARK    5  A    between atoms: C_9  and  C_10
REMARK    6  A    between atoms: N_21  and  C_22
REMARK    7  A    between atoms: C_22  and  C_23
REMARK    8  A    between atoms: C_22  and  C_29
REMARK    9  A    between atoms: N_25  and  C_26
REMARK   10  A    between atoms: C_26  and  C_27
REMARK   11  A    between atoms: C_26  and  C_28
REMARK   12  A    between atoms: C_32  and  N_33
REMARK   13  A    between atoms: N_33  and  C_34
REMARK   14  A    between atoms: N_33  and  C_35
REMARK                            x       y       z     vdW  Elec       q    Type
REMARK                         _______ _______ _______ _____ _____    ______ ____
ROOT
ATOM      1  CA  LEU A   2      -6.803   3.970 132.181  0.00  0.00    +0.000 C 
ATOM      2  C   LEU A   2      -6.382   5.262 132.881  0.00  0.00    +0.000 C 
ATOM      3  O   LEU A   2      -6.788   5.703 133.927  0.00  0.00    +0.000 OA
ATOM      4  N   UNK A   1      -5.366   5.868 132.206  0.00  0.00    +0.000 N 
ATOM      5  C   UNK A   1      -4.828   5.340 130.965  0.00  0.00    +0.000 C 
ATOM      6  C   UNK A   1      -6.007   4.833 130.069  0.00  0.00    +0.000 C 
ATOM      7  O   UNK A   1      -5.920   4.886 128.845  0.00  0.00    +0.000 OA
ATOM      8  N   LEU A   2      -7.095   4.247 130.760  0.00  0.00    +0.000 N 
ATOM      9  H   UNK A   1      -5.020   6.702 132.660  0.00  0.00    +0.000 HD
ENDROOT
BRANCH   5  10
ATOM     10  C   UNK A   1      -4.106   6.427 130.139  0.00  0.00    +0.000 C 
ATOM     11  C   UNK A   1      -2.618   6.125 129.879  0.00  0.00    +0.000 C 
ATOM     12  C   UNK A   1      -1.982   6.737 131.092  0.00  0.00    +0.000 A 
ATOM     13  C   UNK A   1      -0.774   6.407 131.673  0.00  0.00    +0.000 A 
ATOM     14  C   UNK A   1      -0.454   6.990 132.902  0.00  0.00    +0.000 A 
ATOM     15  C   UNK A   1      -1.344   7.872 133.535  0.00  0.00    +0.000 A 
ATOM     16  C   UNK A   1      -2.562   8.202 132.943  0.00  0.00    +0.000 A 
ATOM     17  C   UNK A   1      -2.855   7.646 131.710  0.00  0.00    +0.000 A 
ATOM     18  C   UNK A   1      -4.133   7.759 130.940  0.00  0.00    +0.000 C 
ENDBRANCH   5  10
BRANCH   1  19
ATOM     19  CB  LEU A   2      -7.913   3.377 132.946  0.00  0.00    +0.000 C 
BRANCH  19  21
ATOM     20  CD1 LEU A   2      -8.621   1.175 132.341  0.00  0.00    +0.000 C 
ATOM     21  CG  LEU A   2      -7.609   1.873 133.149  0.00  0.00    +0.000 C 
ATOM     22  CD2 LEU A   2      -6.234   1.315 132.780  0.00  0.00    +0.000 C 
ENDBRANCH  19  21
ENDBRANCH   1  19
BRANCH   8  23
ATOM     23  C   UNK A   0      -8.265   3.648 129.942  0.00  0.00    +0.000 C 
BRANCH  23  24
ATOM     24  C   UNK A   0      -9.405   4.725 129.789  0.00  0.00    +0.000 A 
ATOM     25  C   UNK A   0      -9.293   5.867 128.975  0.00  0.00    +0.000 A 
ATOM     26  C   UNK A   0     -10.292   6.829 128.874  0.00  0.00    +0.000 A 
ATOM     27  C   UNK A   0     -11.549   6.638 129.432  0.00  0.00    +0.000 A 
ATOM     28  C   UNK A   0     -11.673   5.481 130.224  0.00  0.00    +0.000 A 
ATOM     29  C   UNK A   0     -10.626   4.566 130.431  0.00  0.00    +0.000 A 
BRANCH  27  30
ATOM     30  N   UNK A   0     -12.586   7.521 129.193  0.00  0.00    +0.000 N 
ATOM     31  C   UNK A   0     -13.664   7.240 128.244  0.00  0.00    +0.000 C 
ATOM     32  C   UNK A   0     -12.762   8.736 129.979  0.00  0.00    +0.000 C 
ENDBRANCH  27  30
ENDBRANCH  23  24
BRANCH  23  33
ATOM     33  C   UNK A   0      -8.147   2.745 128.465  0.00  0.00    +0.000 C 
ATOM     34  O   UNK A   0      -8.478   1.553 128.385  0.00  0.00    +0.000 OA
ATOM     35  N   UNK A   0      -7.648   3.295 127.289  0.00  0.00    +0.000 N 
ATOM     36  H   UNK A   0      -7.132   4.165 127.339  0.00  0.00    +0.000 HD
BRANCH  35  37
ATOM     37  C   UNK A   0      -7.793   2.591 125.958  0.00  0.00    +0.000 C 
ATOM     38  C   UNK A   0      -8.366   3.391 124.788  0.00  0.00    +0.000 C 
ATOM     39  C   UNK A   0      -6.463   2.178 125.404  0.00  0.00    +0.000 C 
ENDBRANCH  35  37
ENDBRANCH  23  33
ENDBRANCH   8  23
TORSDOF 8
ENDMDL
MODEL 4
REMARK VINA RESULT:      -8.6      4.634      7.623
REMARK  Name = CHEMBL371291
REMARK  14 active torsions:
REMARK  status: ('A' for Active; 'I' for Inactive)
REMARK    1  A    between atoms: CD1_1  and  CG_2
REMARK    2  A    between atoms: CG_2  and  CD2_3
REMARK    3  A    between atoms: CG_2  and  CB_4
REMARK    4  A    between atoms: CB_4  and  CA_5
REMARK    5  A    between atoms: C_9  and  C_10
REMARK    6  A    between atoms: N_21  and  C_22
REMARK    7  A    between atoms: C_22  and  C_23
REMARK    8  A    between atoms: C_22  and  C_29
REMARK    9  A    between atoms: N_25  and  C_26
REMARK   10  A    between atoms: C_26  and  C_27
REMARK   11  A    between atoms: C_26  and  C_28
REMARK   12  A    between atoms: C_32  and  N_33
REMARK   13  A    between atoms: N_33  and  C_34
REMARK   14  A    between atoms: N_33  and  C_35
REMARK                            x       y       z     vdW  Elec       q    Type
REMARK                         _______ _______ _______ _____ _____    ______ ____
ROOT
ATOM      1  CA  LEU A   2      -5.770   2.761 126.925  0.00  0.00    +0.000 C 
ATOM      2  C   LEU A   2      -6.142   2.364 125.495  0.00  0.00    +0.000 C 
ATOM      3  O   LEU A   2      -6.068   3.037 124.498  0.00  0.00    +0.000 OA
ATOM      4  N   UNK A   1      -6.508   1.054 125.439  0.00  0.00    +0.000 N 
ATOM      5  C   UNK A   1      -6.568   0.206 126.617  0.00  0.00    +0.000 C 
ATOM      6  C   UNK A   1      -7.195   1.017 127.800  0.00  0.00    +0.000 C 
ATOM      7  O   UNK A   1      -7.859   0.442 128.659  0.00  0.00    +0.000 OA
ATOM      8  N   LEU A   2      -6.866   2.393 127.844  0.00  0.00    +0.000 N 
ATOM      9  H   UNK A   1      -6.715   0.733 124.503  0.00  0.00    +0.000 HD
ENDROOT
BRANCH   5  10
ATOM     10  C   UNK A   1      -7.490  -1.014 126.405  0.00  0.00    +0.000 C 
ATOM     11  C   UNK A   1      -6.757  -2.367 126.481  0.00  0.00    +0.000 C 
ATOM     12  C   UNK A   1      -6.327  -2.545 125.056  0.00  0.00    +0.000 A 
ATOM     13  C   UNK A   1      -5.266  -3.289 124.577  0.00  0.00    +0.000 A 
ATOM     14  C   UNK A   1      -4.942  -3.176 123.223  0.00  0.00    +0.000 A 
ATOM     15  C   UNK A   1      -5.662  -2.316 122.378  0.00  0.00    +0.000 A 
ATOM     16  C   UNK A   1      -6.732  -1.568 122.867  0.00  0.00    +0.000 A 
ATOM     17  C   UNK A   1      -7.068  -1.713 124.202  0.00  0.00    +0.000 A 
ATOM     18  C   UNK A   1      -8.091  -0.940 124.973  0.00  0.00    +0.000 C 
ENDBRANCH   5  10
BRANCH   1  19
ATOM     19  CB  LEU A   2      -5.406   4.188 126.922  0.00  0.00    +0.000 C 
BRANCH  19  21
ATOM     20  CD1 LEU A   2      -3.576   5.539 127.661  0.00  0.00    +0.000 C 
ATOM     21  CG  LEU A   2      -3.861   4.291 126.936  0.00  0.00    +0.000 C 
ATOM     22  CD2 LEU A   2      -3.028   3.173 127.563  0.00  0.00    +0.000 C 
ENDBRANCH  19  21
ENDBRANCH   1  19
BRANCH   8  23
ATOM     23  C   UNK A   0      -7.381   3.248 129.028  0.00  0.00    +0.000 C 
BRANCH  23  24
ATOM     24  C   UNK A   0      -6.172   3.642 129.957  0.00  0.00    +0.000 A 
ATOM     25  C   UNK A   0      -5.902   4.961 130.367  0.00  0.00    +0.000 A 
ATOM     26  C   UNK A   0      -4.812   5.302 131.160  0.00  0.00    +0.000 A 
ATOM     27  C   UNK A   0      -4.010   4.337 131.755  0.00  0.00    +0.000 A 
ATOM     28  C   UNK A   0      -4.296   3.013 131.369  0.00  0.00    +0.000 A 
ATOM     29  C   UNK A   0      -5.321   2.671 130.470  0.00  0.00    +0.000 A 
BRANCH  27  30
ATOM     30  N   UNK A   0      -3.029   4.676 132.669  0.00  0.00    +0.000 N 
ATOM     31  C   UNK A   0      -3.237   4.609 134.116  0.00  0.00    +0.000 C 
ATOM     32  C   UNK A   0      -1.666   4.987 132.258  0.00  0.00    +0.000 C 
ENDBRANCH  27  30
ENDBRANCH  23  24
BRANCH  23  33
ATOM     33  C   UNK A   0      -8.480   4.588 128.942  0.00  0.00    +0.000 C 
ATOM     34  O   UNK A   0      -8.607   5.281 127.920  0.00  0.00    +0.000 OA
ATOM     35  N   UNK A   0      -9.263   4.986 130.020  0.00  0.00    +0.000 N 
ATOM     36  H   UNK A   0      -9.032   4.638 130.943  0.00  0.00    +0.000 HD
BRANCH  35  37
ATOM     37  C   UNK A   0     -10.396   5.975 129.857  0.00  0.00    +0.000 C 
ATOM     38  C   UNK A   0     -11.544   5.915 130.867  0.00  0.00    +0.000 C 
ATOM     39  C   UNK A   0      -9.925   7.387 130.037  0.00  0.00    +0.000 C 
ENDBRANCH  35  37
ENDBRANCH  23  33
ENDBRANCH   8  23
TORSDOF 8
ENDMDL
MODEL 5
REMARK VINA RESULT:      -8.6      4.705      8.034
REMARK  Name = CHEMBL371291
REMARK  14 active torsions:
REMARK  status: ('A' for Active; 'I' for Inactive)
REMARK    1  A    between atoms: CD1_1  and  CG_2
REMARK    2  A    between atoms: CG_2  and  CD2_3
REMARK    3  A    between atoms: CG_2  and  CB_4
REMARK    4  A    between atoms: CB_4  and  CA_5
REMARK    5  A    between atoms: C_9  and  C_10
REMARK    6  A    between atoms: N_21  and  C_22
REMARK    7  A    between atoms: C_22  and  C_23
REMARK    8  A    between atoms: C_22  and  C_29
REMARK    9  A    between atoms: N_25  and  C_26
REMARK   10  A    between atoms: C_26  and  C_27
REMARK   11  A    between atoms: C_26  and  C_28
REMARK   12  A    between atoms: C_32  and  N_33
REMARK   13  A    between atoms: N_33  and  C_34
REMARK   14  A    between atoms: N_33  and  C_35
REMARK                            x       y       z     vdW  Elec       q    Type
REMARK                         _______ _______ _______ _____ _____    ______ ____
ROOT
ATOM      1  CA  LEU A   2      -4.855   2.950 127.051  0.00  0.00    +0.000 C 
ATOM      2  C   LEU A   2      -5.801   2.789 125.860  0.00  0.00    +0.000 C 
ATOM      3  O   LEU A   2      -6.104   3.618 125.040  0.00  0.00    +0.000 OA
ATOM      4  N   UNK A   1      -6.230   1.501 125.756  0.00  0.00    +0.000 N 
ATOM      5  C   UNK A   1      -5.850   0.470 126.706  0.00  0.00    +0.000 C 
ATOM      6  C   UNK A   1      -5.891   1.066 128.153  0.00  0.00    +0.000 C 
ATOM      7  O   UNK A   1      -6.176   0.348 129.109  0.00  0.00    +0.000 OA
ATOM      8  N   LEU A   2      -5.497   2.420 128.271  0.00  0.00    +0.000 N 
ATOM      9  H   UNK A   1      -6.819   1.335 124.952  0.00  0.00    +0.000 HD
ENDROOT
BRANCH   5  10
ATOM     10  C   UNK A   1      -6.844  -0.712 126.707  0.00  0.00    +0.000 C 
ATOM     11  C   UNK A   1      -6.166  -2.095 126.679  0.00  0.00    +0.000 C 
ATOM     12  C   UNK A   1      -6.023  -2.318 125.203  0.00  0.00    +0.000 A 
ATOM     13  C   UNK A   1      -5.106  -3.118 124.551  0.00  0.00    +0.000 A 
ATOM     14  C   UNK A   1      -5.042  -3.045 123.157  0.00  0.00    +0.000 A 
ATOM     15  C   UNK A   1      -5.875  -2.169 122.442  0.00  0.00    +0.000 A 
ATOM     16  C   UNK A   1      -6.800  -1.365 123.105  0.00  0.00    +0.000 A 
ATOM     17  C   UNK A   1      -6.880  -1.470 124.483  0.00  0.00    +0.000 A 
ATOM     18  C   UNK A   1      -7.704  -0.637 125.414  0.00  0.00    +0.000 C 
ENDBRANCH   5  10
BRANCH   1  19
ATOM     19  CB  LEU A   2      -4.445   4.363 127.120  0.00  0.00    +0.000 C 
BRANCH  19  21
ATOM     20  CD1 LEU A   2      -2.582   5.063 128.446  0.00  0.00    +0.000 C 
ATOM     21  CG  LEU A   2      -2.898   4.414 127.164  0.00  0.00    +0.000 C 
ATOM     22  CD2 LEU A   2      -2.089   3.120 127.072  0.00  0.00    +0.000 C 
ENDBRANCH  19  21
ENDBRANCH   1  19
BRANCH   8  23
ATOM     23  C   UNK A   0      -5.434   3.062 129.679  0.00  0.00    +0.000 C 
BRANCH  23  24
ATOM     24  C   UNK A   0      -6.776   3.836 129.965  0.00  0.00    +0.000 A 
ATOM     25  C   UNK A   0      -6.826   5.182 130.372  0.00  0.00    +0.000 A 
ATOM     26  C   UNK A   0      -8.015   5.846 130.653  0.00  0.00    +0.000 A 
ATOM     27  C   UNK A   0      -9.252   5.278 130.380  0.00  0.00    +0.000 A 
ATOM     28  C   UNK A   0      -9.203   3.940 129.945  0.00  0.00    +0.000 A 
ATOM     29  C   UNK A   0      -8.007   3.223 129.775  0.00  0.00    +0.000 A 
BRANCH  27  30
ATOM     30  N   UNK A   0     -10.423   6.002 130.512  0.00  0.00    +0.000 N 
ATOM     31  C   UNK A   0     -11.000   6.347 131.812  0.00  0.00    +0.000 C 
ATOM     32  C   UNK A   0     -11.093   6.603 129.365  0.00  0.00    +0.000 C 
ENDBRANCH  27  30
ENDBRANCH  23  24
BRANCH  23  33
ATOM     33  C   UNK A   0      -4.905   2.300 131.146  0.00  0.00    +0.000 C 
ATOM     34  O   UNK A   0      -3.817   2.565 131.679  0.00  0.00    +0.000 OA
ATOM     35  N   UNK A   0      -5.654   1.326 131.797  0.00  0.00    +0.000 N 
ATOM     36  H   UNK A   0      -6.416   0.884 131.297  0.00  0.00    +0.000 HD
BRANCH  35  37
ATOM     37  C   UNK A   0      -5.314   0.865 133.197  0.00  0.00    +0.000 C 
ATOM     38  C   UNK A   0      -5.930   1.631 134.368  0.00  0.00    +0.000 C 
ATOM     39  C   UNK A   0      -5.819  -0.522 133.458  0.00  0.00    +0.000 C 
ENDBRANCH  35  37
ENDBRANCH  23  33
ENDBRANCH   8  23
TORSDOF 8
ENDMDL
MODEL 6
REMARK VINA RESULT:      -8.4      3.295      6.121
REMARK  Name = CHEMBL371291
REMARK  14 active torsions:
REMARK  status: ('A' for Active; 'I' for Inactive)
REMARK    1  A    between atoms: CD1_1  and  CG_2
REMARK    2  A    between atoms: CG_2  and  CD2_3
REMARK    3  A    between atoms: CG_2  and  CB_4
REMARK    4  A    between atoms: CB_4  and  CA_5
REMARK    5  A    between atoms: C_9  and  C_10
REMARK    6  A    between atoms: N_21  and  C_22
REMARK    7  A    between atoms: C_22  and  C_23
REMARK    8  A    between atoms: C_22  and  C_29
REMARK    9  A    between atoms: N_25  and  C_26
REMARK   10  A    between atoms: C_26  and  C_27
REMARK   11  A    between atoms: C_26  and  C_28
REMARK   12  A    between atoms: C_32  and  N_33
REMARK   13  A    between atoms: N_33  and  C_34
REMARK   14  A    between atoms: N_33  and  C_35
REMARK                            x       y       z     vdW  Elec       q    Type
REMARK                         _______ _______ _______ _____ _____    ______ ____
ROOT
ATOM      1  CA  LEU A   2      -7.554   2.413 130.557  0.00  0.00    +0.000 C 
ATOM      2  C   LEU A   2      -6.439   1.583 129.918  0.00  0.00    +0.000 C 
ATOM      3  O   LEU A   2      -5.571   0.959 130.473  0.00  0.00    +0.000 OA
ATOM      4  N   UNK A   1      -6.585   1.541 128.565  0.00  0.00    +0.000 N 
ATOM      5  C   UNK A   1      -7.646   2.250 127.869  0.00  0.00    +0.000 C 
ATOM      6  C   UNK A   1      -7.820   3.667 128.510  0.00  0.00    +0.000 C 
ATOM      7  O   UNK A   1      -8.185   4.616 127.820  0.00  0.00    +0.000 OA
ATOM      8  N   LEU A   2      -7.620   3.739 129.909  0.00  0.00    +0.000 N 
ATOM      9  H   UNK A   1      -5.899   0.961 128.102  0.00  0.00    +0.000 HD
ENDROOT
BRANCH   5  10
ATOM     10  C   UNK A   1      -7.301   2.495 126.385  0.00  0.00    +0.000 C 
ATOM     11  C   UNK A   1      -8.213   1.737 125.401  0.00  0.00    +0.000 C 
ATOM     12  C   UNK A   1      -7.482   0.434 125.273  0.00  0.00    +0.000 A 
ATOM     13  C   UNK A   1      -8.000  -0.798 124.927  0.00  0.00    +0.000 A 
ATOM     14  C   UNK A   1      -7.168  -1.916 125.037  0.00  0.00    +0.000 A 
ATOM     15  C   UNK A   1      -5.849  -1.791 125.503  0.00  0.00    +0.000 A 
ATOM     16  C   UNK A   1      -5.331  -0.544 125.850  0.00  0.00    +0.000 A 
ATOM     17  C   UNK A   1      -6.152   0.561 125.705  0.00  0.00    +0.000 A 
ATOM     18  C   UNK A   1      -5.862   1.971 126.116  0.00  0.00    +0.000 C 
ENDBRANCH   5  10
BRANCH   1  19
ATOM     19  CB  LEU A   2      -7.327   2.436 132.012  0.00  0.00    +0.000 C 
BRANCH  19  21
ATOM     20  CD1 LEU A   2      -8.966   3.253 133.549  0.00  0.00    +0.000 C 
ATOM     21  CG  LEU A   2      -8.661   2.082 132.713  0.00  0.00    +0.000 C 
ATOM     22  CD2 LEU A   2      -9.899   1.756 131.877  0.00  0.00    +0.000 C 
ENDBRANCH  19  21
ENDBRANCH   1  19
BRANCH   8  23
ATOM     23  C   UNK A   0      -7.852   5.088 130.631  0.00  0.00    +0.000 C 
BRANCH  23  24
ATOM     24  C   UNK A   0      -6.462   5.731 131.003  0.00  0.00    +0.000 A 
ATOM     25  C   UNK A   0      -6.074   6.038 132.320  0.00  0.00    +0.000 A 
ATOM     26  C   UNK A   0      -4.858   6.636 132.633  0.00  0.00    +0.000 A 
ATOM     27  C   UNK A   0      -3.862   6.810 131.681  0.00  0.00    +0.000 A 
ATOM     28  C   UNK A   0      -4.238   6.477 130.366  0.00  0.00    +0.000 A 
ATOM     29  C   UNK A   0      -5.510   5.986 130.024  0.00  0.00    +0.000 A 
BRANCH  27  30
ATOM     30  N   UNK A   0      -2.600   7.256 132.030  0.00  0.00    +0.000 N 
ATOM     31  C   UNK A   0      -1.379   6.523 131.694  0.00  0.00    +0.000 C 
ATOM     32  C   UNK A   0      -2.384   8.566 132.631  0.00  0.00    +0.000 C 
ENDBRANCH  27  30
ENDBRANCH  23  24
BRANCH  23  33
ATOM     33  C   UNK A   0      -8.941   6.351 130.150  0.00  0.00    +0.000 C 
ATOM     34  O   UNK A   0      -8.672   7.553 130.294  0.00  0.00    +0.000 OA
ATOM     35  N   UNK A   0     -10.192   6.093 129.602  0.00  0.00    +0.000 N 
ATOM     36  H   UNK A   0     -10.578   5.160 129.688  0.00  0.00    +0.000 HD
BRANCH  35  37
ATOM     37  C   UNK A   0     -11.014   7.182 128.950  0.00  0.00    +0.000 C 
ATOM     38  C   UNK A   0     -10.755   7.483 127.473  0.00  0.00    +0.000 C 
ATOM     39  C   UNK A   0     -12.472   6.832 128.924  0.00  0.00    +0.000 C 
ENDBRANCH  35  37
ENDBRANCH  23  33
ENDBRANCH   8  23
TORSDOF 8
ENDMDL
MODEL 7
REMARK VINA RESULT:      -8.3      4.295      6.201
REMARK  Name = CHEMBL371291
REMARK  14 active torsions:
REMARK  status: ('A' for Active; 'I' for Inactive)
REMARK    1  A    between atoms: CD1_1  and  CG_2
REMARK    2  A    between atoms: CG_2  and  CD2_3
REMARK    3  A    between atoms: CG_2  and  CB_4
REMARK    4  A    between atoms: CB_4  and  CA_5
REMARK    5  A    between atoms: C_9  and  C_10
REMARK    6  A    between atoms: N_21  and  C_22
REMARK    7  A    between atoms: C_22  and  C_23
REMARK    8  A    between atoms: C_22  and  C_29
REMARK    9  A    between atoms: N_25  and  C_26
REMARK   10  A    between atoms: C_26  and  C_27
REMARK   11  A    between atoms: C_26  and  C_28
REMARK   12  A    between atoms: C_32  and  N_33
REMARK   13  A    between atoms: N_33  and  C_34
REMARK   14  A    between atoms: N_33  and  C_35
REMARK                            x       y       z     vdW  Elec       q    Type
REMARK                         _______ _______ _______ _____ _____    ______ ____
ROOT
ATOM      1  CA  LEU A   2      -6.987  -0.065 129.146  0.00  0.00    +0.000 C 
ATOM      2  C   LEU A   2      -6.248  -0.496 127.878  0.00  0.00    +0.000 C 
ATOM      3  O   LEU A   2      -5.255  -1.175 127.797  0.00  0.00    +0.000 OA
ATOM      4  N   UNK A   1      -6.917  -0.085 126.766  0.00  0.00    +0.000 N 
ATOM      5  C   UNK A   1      -8.137   0.700 126.832  0.00  0.00    +0.000 C 
ATOM      6  C   UNK A   1      -7.991   1.781 127.954  0.00  0.00    +0.000 C 
ATOM      7  O   UNK A   1      -8.562   2.864 127.846  0.00  0.00    +0.000 OA
ATOM      8  N   LEU A   2      -7.254   1.387 129.096  0.00  0.00    +0.000 N 
ATOM      9  H   UNK A   1      -6.491  -0.391 125.902  0.00  0.00    +0.000 HD
ENDROOT
BRANCH   5  10
ATOM     10  C   UNK A   1      -8.396   1.478 125.524  0.00  0.00    +0.000 C 
ATOM     11  C   UNK A   1      -9.556   0.912 124.683  0.00  0.00    +0.000 C 
ATOM     12  C   UNK A   1      -8.837  -0.102 123.844  0.00  0.00    +0.000 A 
ATOM     13  C   UNK A   1      -9.360  -1.233 123.249  0.00  0.00    +0.000 A 
ATOM     14  C   UNK A   1      -8.471  -2.133 122.653  0.00  0.00    +0.000 A 
ATOM     15  C   UNK A   1      -7.087  -1.901 122.674  0.00  0.00    +0.000 A 
ATOM     16  C   UNK A   1      -6.565  -0.756 123.276  0.00  0.00    +0.000 A 
ATOM     17  C   UNK A   1      -7.456   0.146 123.833  0.00  0.00    +0.000 A 
ATOM     18  C   UNK A   1      -7.133   1.373 124.625  0.00  0.00    +0.000 C 
ENDBRANCH   5  10
BRANCH   1  19
ATOM     19  CB  LEU A   2      -6.205  -0.520 130.308  0.00  0.00    +0.000 C 
BRANCH  19  21
ATOM     20  CD1 LEU A   2      -8.066  -0.874 131.767  0.00  0.00    +0.000 C 
ATOM     21  CG  LEU A   2      -7.022  -1.613 131.040  0.00  0.00    +0.000 C 
ATOM     22  CD2 LEU A   2      -7.695  -2.727 130.239  0.00  0.00    +0.000 C 
ENDBRANCH  19  21
ENDBRANCH   1  19
BRANCH   8  23
ATOM     23  C   UNK A   0      -7.130   2.372 130.284  0.00  0.00    +0.000 C 
BRANCH  23  24
ATOM     24  C   UNK A   0      -5.882   3.308 130.064  0.00  0.00    +0.000 A 
ATOM     25  C   UNK A   0      -5.794   4.258 129.030  0.00  0.00    +0.000 A 
ATOM     26  C   UNK A   0      -4.674   5.056 128.825  0.00  0.00    +0.000 A 
ATOM     27  C   UNK A   0      -3.629   5.097 129.738  0.00  0.00    +0.000 A 
ATOM     28  C   UNK A   0      -3.729   4.168 130.791  0.00  0.00    +0.000 A 
ATOM     29  C   UNK A   0      -4.802   3.272 130.936  0.00  0.00    +0.000 A 
BRANCH  27  30
ATOM     30  N   UNK A   0      -2.596   6.008 129.612  0.00  0.00    +0.000 N 
ATOM     31  C   UNK A   0      -2.306   6.709 128.360  0.00  0.00    +0.000 C 
ATOM     32  C   UNK A   0      -1.809   6.448 130.757  0.00  0.00    +0.000 C 
ENDBRANCH  27  30
ENDBRANCH  23  24
BRANCH  23  33
ATOM     33  C   UNK A   0      -8.408   3.302 131.001  0.00  0.00    +0.000 C 
ATOM     34  O   UNK A   0      -8.710   3.206 132.199  0.00  0.00    +0.000 OA
ATOM     35  N   UNK A   0      -9.189   4.190 130.269  0.00  0.00    +0.000 N 
ATOM     36  H   UNK A   0      -9.171   4.135 129.258  0.00  0.00    +0.000 HD
BRANCH  35  37
ATOM     37  C   UNK A   0     -10.112   5.179 130.945  0.00  0.00    +0.000 C 
ATOM     38  C   UNK A   0      -9.639   6.629 131.064  0.00  0.00    +0.000 C 
ATOM     39  C   UNK A   0     -11.390   5.353 130.180  0.00  0.00    +0.000 C 
ENDBRANCH  35  37
ENDBRANCH  23  33
ENDBRANCH   8  23
TORSDOF 8
ENDMDL
MODEL 8
REMARK VINA RESULT:      -8.3      3.082      6.293
REMARK  Name = CHEMBL371291
REMARK  14 active torsions:
REMARK  status: ('A' for Active; 'I' for Inactive)
REMARK    1  A    between atoms: CD1_1  and  CG_2
REMARK    2  A    between atoms: CG_2  and  CD2_3
REMARK    3  A    between atoms: CG_2  and  CB_4
REMARK    4  A    between atoms: CB_4  and  CA_5
REMARK    5  A    between atoms: C_9  and  C_10
REMARK    6  A    between atoms: N_21  and  C_22
REMARK    7  A    between atoms: C_22  and  C_23
REMARK    8  A    between atoms: C_22  and  C_29
REMARK    9  A    between atoms: N_25  and  C_26
REMARK   10  A    between atoms: C_26  and  C_27
REMARK   11  A    between atoms: C_26  and  C_28
REMARK   12  A    between atoms: C_32  and  N_33
REMARK   13  A    between atoms: N_33  and  C_34
REMARK   14  A    between atoms: N_33  and  C_35
REMARK                            x       y       z     vdW  Elec       q    Type
REMARK                         _______ _______ _______ _____ _____    ______ ____
ROOT
ATOM      1  CA  LEU A   2      -7.738   1.619 131.335  0.00  0.00    +0.000 C 
ATOM      2  C   LEU A   2      -8.486   0.287 131.411  0.00  0.00    +0.000 C 
ATOM      3  O   LEU A   2      -9.521   0.051 131.982  0.00  0.00    +0.000 OA
ATOM      4  N   UNK A   1      -7.873  -0.654 130.642  0.00  0.00    +0.000 N 
ATOM      5  C   UNK A   1      -6.647  -0.390 129.909  0.00  0.00    +0.000 C 
ATOM      6  C   UNK A   1      -5.686   0.458 130.807  0.00  0.00    +0.000 C 
ATOM      7  O   UNK A   1      -4.469   0.334 130.699  0.00  0.00    +0.000 OA
ATOM      8  N   LEU A   2      -6.311   1.407 131.652  0.00  0.00    +0.000 N 
ATOM      9  H   UNK A   1      -8.361  -1.539 130.621  0.00  0.00    +0.000 HD
ENDROOT
BRANCH   5  10
ATOM     10  C   UNK A   1      -5.880  -1.687 129.576  0.00  0.00    +0.000 C 
ATOM     11  C   UNK A   1      -5.472  -1.806 128.095  0.00  0.00    +0.000 C 
ATOM     12  C   UNK A   1      -6.686  -2.467 127.512  0.00  0.00    +0.000 A 
ATOM     13  C   UNK A   1      -7.132  -2.421 126.206  0.00  0.00    +0.000 A 
ATOM     14  C   UNK A   1      -8.384  -2.971 125.919  0.00  0.00    +0.000 A 
ATOM     15  C   UNK A   1      -9.173  -3.539 126.933  0.00  0.00    +0.000 A 
ATOM     16  C   UNK A   1      -8.716  -3.583 128.250  0.00  0.00    +0.000 A 
ATOM     17  C   UNK A   1      -7.460  -3.067 128.518  0.00  0.00    +0.000 A 
ATOM     18  C   UNK A   1      -6.811  -2.900 129.856  0.00  0.00    +0.000 C 
ENDBRANCH   5  10
BRANCH   1  19
ATOM     19  CB  LEU A   2      -8.437   2.584 132.201  0.00  0.00    +0.000 C 
BRANCH  19  21
ATOM     20  CD1 LEU A   2      -9.142   4.842 131.856  0.00  0.00    +0.000 C 
ATOM     21  CG  LEU A   2      -9.314   3.490 131.303  0.00  0.00    +0.000 C 
ATOM     22  CD2 LEU A   2      -9.055   3.553 129.798  0.00  0.00    +0.000 C 
ENDBRANCH  19  21
ENDBRANCH   1  19
BRANCH   8  23
ATOM     23  C   UNK A   0      -5.427   2.340 132.514  0.00  0.00    +0.000 C 
BRANCH  23  24
ATOM     24  C   UNK A   0      -4.844   3.493 131.613  0.00  0.00    +0.000 A 
ATOM     25  C   UNK A   0      -5.628   4.276 130.747  0.00  0.00    +0.000 A 
ATOM     26  C   UNK A   0      -5.097   5.269 129.931  0.00  0.00    +0.000 A 
ATOM     27  C   UNK A   0      -3.776   5.680 130.045  0.00  0.00    +0.000 A 
ATOM     28  C   UNK A   0      -2.995   4.916 130.932  0.00  0.00    +0.000 A 
ATOM     29  C   UNK A   0      -3.498   3.831 131.671  0.00  0.00    +0.000 A 
BRANCH  27  30
ATOM     30  N   UNK A   0      -3.297   6.773 129.345  0.00  0.00    +0.000 N 
ATOM     31  C   UNK A   0      -2.295   6.659 128.284  0.00  0.00    +0.000 C 
ATOM     32  C   UNK A   0      -3.865   8.105 129.512  0.00  0.00    +0.000 C 
ENDBRANCH  27  30
ENDBRANCH  23  24
BRANCH  23  33
ATOM     33  C   UNK A   0      -5.816   2.993 134.075  0.00  0.00    +0.000 C 
ATOM     34  O   UNK A   0      -5.663   2.348 135.123  0.00  0.00    +0.000 OA
ATOM     35  N   UNK A   0      -6.350   4.266 134.242  0.00  0.00    +0.000 N 
ATOM     36  H   UNK A   0      -6.732   4.743 133.435  0.00  0.00    +0.000 HD
BRANCH  35  37
ATOM     37  C   UNK A   0      -6.437   4.918 135.604  0.00  0.00    +0.000 C 
ATOM     38  C   UNK A   0      -5.354   5.931 135.979  0.00  0.00    +0.000 C 
ATOM     39  C   UNK A   0      -7.675   5.753 135.737  0.00  0.00    +0.000 C 
ENDBRANCH  35  37
ENDBRANCH  23  33
ENDBRANCH   8  23
TORSDOF 8
ENDMDL
MODEL 9
REMARK VINA RESULT:      -8.2      4.545      7.515
REMARK  Name = CHEMBL371291
REMARK  14 active torsions:
REMARK  status: ('A' for Active; 'I' for Inactive)
REMARK    1  A    between atoms: CD1_1  and  CG_2
REMARK    2  A    between atoms: CG_2  and  CD2_3
REMARK    3  A    between atoms: CG_2  and  CB_4
REMARK    4  A    between atoms: CB_4  and  CA_5
REMARK    5  A    between atoms: C_9  and  C_10
REMARK    6  A    between atoms: N_21  and  C_22
REMARK    7  A    between atoms: C_22  and  C_23
REMARK    8  A    between atoms: C_22  and  C_29
REMARK    9  A    between atoms: N_25  and  C_26
REMARK   10  A    between atoms: C_26  and  C_27
REMARK   11  A    between atoms: C_26  and  C_28
REMARK   12  A    between atoms: C_32  and  N_33
REMARK   13  A    between atoms: N_33  and  C_34
REMARK   14  A    between atoms: N_33  and  C_35
REMARK                            x       y       z     vdW  Elec       q    Type
REMARK                         _______ _______ _______ _____ _____    ______ ____
ROOT
ATOM      1  CA  LEU A   2      -7.082   0.781 129.199  0.00  0.00    +0.000 C 
ATOM      2  C   LEU A   2      -6.573  -0.633 128.916  0.00  0.00    +0.000 C 
ATOM      3  O   LEU A   2      -6.365  -1.516 129.710  0.00  0.00    +0.000 OA
ATOM      4  N   UNK A   1      -6.452  -0.843 127.577  0.00  0.00    +0.000 N 
ATOM      5  C   UNK A   1      -6.734   0.189 126.594  0.00  0.00    +0.000 C 
ATOM      6  C   UNK A   1      -6.160   1.553 127.104  0.00  0.00    +0.000 C 
ATOM      7  O   UNK A   1      -5.755   2.392 126.302  0.00  0.00    +0.000 OA
ATOM      8  N   LEU A   2      -6.230   1.766 128.502  0.00  0.00    +0.000 N 
ATOM      9  H   UNK A   1      -6.166  -1.782 127.339  0.00  0.00    +0.000 HD
ENDROOT
BRANCH   5  10
ATOM     10  C   UNK A   1      -6.033  -0.088 125.246  0.00  0.00    +0.000 C 
ATOM     11  C   UNK A   1      -6.927   0.164 124.017  0.00  0.00    +0.000 C 
ATOM     12  C   UNK A   1      -7.586  -1.174 123.859  0.00  0.00    +0.000 A 
ATOM     13  C   UNK A   1      -8.799  -1.456 123.262  0.00  0.00    +0.000 A 
ATOM     14  C   UNK A   1      -9.304  -2.754 123.379  0.00  0.00    +0.000 A 
ATOM     15  C   UNK A   1      -8.605  -3.737 124.097  0.00  0.00    +0.000 A 
ATOM     16  C   UNK A   1      -7.381  -3.447 124.697  0.00  0.00    +0.000 A 
ATOM     17  C   UNK A   1      -6.873  -2.168 124.547  0.00  0.00    +0.000 A 
ATOM     18  C   UNK A   1      -5.649  -1.593 125.187  0.00  0.00    +0.000 C 
ENDBRANCH   5  10
BRANCH   1  19
ATOM     19  CB  LEU A   2      -7.171   0.950 130.660  0.00  0.00    +0.000 C 
BRANCH  19  21
ATOM     20  CD1 LEU A   2      -8.577  -0.364 132.079  0.00  0.00    +0.000 C 
ATOM     21  CG  LEU A   2      -8.642   0.718 131.083  0.00  0.00    +0.000 C 
ATOM     22  CD2 LEU A   2      -9.456   1.867 131.677  0.00  0.00    +0.000 C 
ENDBRANCH  19  21
ENDBRANCH   1  19
BRANCH   8  23
ATOM     23  C   UNK A   0      -5.756   3.122 129.078  0.00  0.00    +0.000 C 
BRANCH  23  24
ATOM     24  C   UNK A   0      -7.004   3.957 129.553  0.00  0.00    +0.000 A 
ATOM     25  C   UNK A   0      -7.066   4.632 130.786  0.00  0.00    +0.000 A 
ATOM     26  C   UNK A   0      -8.186   5.339 131.209  0.00  0.00    +0.000 A 
ATOM     27  C   UNK A   0      -9.262   5.579 130.364  0.00  0.00    +0.000 A 
ATOM     28  C   UNK A   0      -9.190   4.927 129.119  0.00  0.00    +0.000 A 
ATOM     29  C   UNK A   0      -8.114   4.110 128.732  0.00  0.00    +0.000 A 
BRANCH  27  30
ATOM     30  N   UNK A   0     -10.299   6.415 130.736  0.00  0.00    +0.000 N 
ATOM     31  C   UNK A   0     -10.949   6.338 132.046  0.00  0.00    +0.000 C 
ATOM     32  C   UNK A   0     -10.725   7.534 129.905  0.00  0.00    +0.000 C 
ENDBRANCH  27  30
ENDBRANCH  23  24
BRANCH  23  33
ATOM     33  C   UNK A   0      -4.453   3.379 130.195  0.00  0.00    +0.000 C 
ATOM     34  O   UNK A   0      -3.567   4.224 130.002  0.00  0.00    +0.000 OA
ATOM     35  N   UNK A   0      -4.308   2.633 131.360  0.00  0.00    +0.000 N 
ATOM     36  H   UNK A   0      -4.834   1.774 131.456  0.00  0.00    +0.000 HD
BRANCH  35  37
ATOM     37  C   UNK A   0      -3.334   3.036 132.445  0.00  0.00    +0.000 C 
ATOM     38  C   UNK A   0      -3.826   4.008 133.519  0.00  0.00    +0.000 C 
ATOM     39  C   UNK A   0      -2.923   1.862 133.282  0.00  0.00    +0.000 C 
ENDBRANCH  35  37
ENDBRANCH  23  33
ENDBRANCH   8  23
TORSDOF 8
ENDMDL
