MODEL 1
REMARK VINA RESULT:      -8.6      0.000      0.000
REMARK  Name = CHEMBL143304
REMARK  8 active torsions:
REMARK  status: ('A' for Active; 'I' for Inactive)
REMARK    1  A    between atoms: C_1  and  C_2
REMARK    2  A    between atoms: N_4  and  C_5
REMARK    3  A    between atoms: C_5  and  C_6
REMARK    4  A    between atoms: C_6  and  C_7
REMARK    5  A    between atoms: C_7  and  O_8
REMARK    6  A    between atoms: O_8  and  C_9
REMARK    7  A    between atoms: C_12  and  C_13
REMARK    8  A    between atoms: C_18  and  N_19
REMARK                            x       y       z     vdW  Elec       q    Type
REMARK                         _______ _______ _______ _____ _____    ______ ____
ROOT
ATOM      1  C   UNL     1      -7.481  -2.176 130.758  0.00  0.00    +0.000 C 
ATOM      2  O   UNL     1      -7.363  -3.133 131.526  0.00  0.00    +0.000 OA
ATOM      3  N   UNL     1      -7.310  -0.800 131.196  0.00  0.00    +0.000 N 
ATOM      4  C   UNL     1      -6.008  -0.212 131.585  0.00  0.00    +0.000 C 
ATOM      5  C   UNL     1      -6.116   0.916 132.688  0.00  0.00    +0.000 C 
ATOM      6  C   UNL     1      -7.093   2.418 132.265  0.00  0.00    +0.000 C 
ATOM      7  C   UNL     1      -8.481   1.339 131.995  0.00  0.00    +0.000 C 
ATOM      8  C   UNL     1      -8.308   0.224 130.903  0.00  0.00    +0.000 C 
ENDROOT
BRANCH   6   9
ATOM      9  N   UNL     1      -6.551   4.131 131.733  0.00  0.00    +0.000 N 
ATOM     10  C   UNL     1      -6.569   4.277 133.158  0.00  0.00    +0.000 C 
ATOM     11  O   UNL     1      -7.573   4.112 133.935  0.00  0.00    +0.000 OA
ATOM     12  O   UNL     1      -5.408   4.510 133.726  0.00  0.00    +0.000 OA
ATOM     13  C   UNL     1      -5.553   5.877 133.840  0.00  0.00    +0.000 C 
ATOM     14  C   UNL     1      -4.828   6.079 132.601  0.00  0.00    +0.000 A 
ATOM     15  C   UNL     1      -3.456   6.618 132.671  0.00  0.00    +0.000 A 
ATOM     16  C   UNL     1      -2.879   7.631 131.952  0.00  0.00    +0.000 A 
ATOM     17  C   UNL     1      -3.792   8.053 131.040  0.00  0.00    +0.000 A 
ATOM     18  C   UNL     1      -5.153   7.125 130.768  0.00  0.00    +0.000 A 
ATOM     19  C   UNL     1      -5.583   5.751 131.528  0.00  0.00    +0.000 A 
ENDBRANCH   6   9
BRANCH   1  23
ATOM     20  C   UNL     1      -8.725  -3.003 126.620  0.00  0.00    +0.000 A 
ATOM     21  C   UNL     1      -7.882  -1.922 126.890  0.00  0.00    +0.000 A 
ATOM     22  C   UNL     1      -7.381  -1.705 128.203  0.00  0.00    +0.000 A 
ATOM     23  C   UNL     1      -7.805  -2.505 129.293  0.00  0.00    +0.000 A 
ATOM     24  C   UNL     1      -8.655  -3.560 128.982  0.00  0.00    +0.000 A 
ATOM     25  C   UNL     1      -9.093  -3.823 127.676  0.00  0.00    +0.000 A 
BRANCH  20  26
ATOM     26  O   UNL     1      -9.050  -3.256 125.311  0.00  0.00    +0.000 OA
BRANCH  26  27
ATOM     27  C   UNL     1      -7.972  -3.690 124.465  0.00  0.00    +0.000 C 
BRANCH  27  28
ATOM     28  C   UNL     1      -7.793  -2.685 123.319  0.00  0.00    +0.000 C 
BRANCH  28  29
ATOM     29  C   UNL     1      -9.049  -1.839 123.115  0.00  0.00    +0.000 C 
BRANCH  29  33
ATOM     30  C   UNL     1      -9.592   1.867 123.860  0.00  0.00    +0.000 C 
ATOM     31  C   UNL     1      -9.811   0.502 123.248  0.00  0.00    +0.000 C 
ATOM     32  O   UNL     1     -10.722   0.295 122.451  0.00  0.00    +0.000 OA
ATOM     33  N   UNL     1      -8.927  -0.484 123.641  0.00  0.00    +0.000 N 
ATOM     34  H   UNL     1      -8.190  -0.272 124.302  0.00  0.00    +0.000 HD
ENDBRANCH  29  33
ENDBRANCH  28  29
ENDBRANCH  27  28
ENDBRANCH  26  27
ENDBRANCH  20  26
ENDBRANCH   1  23
TORSDOF 7
ENDMDL
MODEL 2
REMARK VINA RESULT:      -8.6      6.036      8.271
REMARK  Name = CHEMBL143304
REMARK  8 active torsions:
REMARK  status: ('A' for Active; 'I' for Inactive)
REMARK    1  A    between atoms: C_1  and  C_2
REMARK    2  A    between atoms: N_4  and  C_5
REMARK    3  A    between atoms: C_5  and  C_6
REMARK    4  A    between atoms: C_6  and  C_7
REMARK    5  A    between atoms: C_7  and  O_8
REMARK    6  A    between atoms: O_8  and  C_9
REMARK    7  A    between atoms: C_12  and  C_13
REMARK    8  A    between atoms: C_18  and  N_19
REMARK                            x       y       z     vdW  Elec       q    Type
REMARK                         _______ _______ _______ _____ _____    ______ ____
ROOT
ATOM      1  C   UNL     1      -6.024   4.356 130.717  0.00  0.00    +0.000 C 
ATOM      2  O   UNL     1      -5.728   3.246 130.267  0.00  0.00    +0.000 OA
ATOM      3  N   UNL     1      -5.045   5.227 131.347  0.00  0.00    +0.000 N 
ATOM      4  C   UNL     1      -3.957   5.914 130.614  0.00  0.00    +0.000 C 
ATOM      5  C   UNL     1      -2.646   6.137 131.471  0.00  0.00    +0.000 C 
ATOM      6  C   UNL     1      -2.794   7.177 132.982  0.00  0.00    +0.000 C 
ATOM      7  C   UNL     1      -4.016   6.021 133.559  0.00  0.00    +0.000 C 
ATOM      8  C   UNL     1      -5.286   5.825 132.656  0.00  0.00    +0.000 C 
ENDROOT
BRANCH   6   9
ATOM      9  N   UNL     1      -2.323   8.963 133.299  0.00  0.00    +0.000 N 
ATOM     10  C   UNL     1      -1.237   8.275 133.930  0.00  0.00    +0.000 C 
ATOM     11  O   UNL     1      -1.315   7.431 134.889  0.00  0.00    +0.000 OA
ATOM     12  O   UNL     1      -0.051   8.464 133.398  0.00  0.00    +0.000 OA
ATOM     13  C   UNL     1       0.377   9.426 134.289  0.00  0.00    +0.000 C 
ATOM     14  C   UNL     1      -0.041  10.480 133.385  0.00  0.00    +0.000 A 
ATOM     15  C   UNL     1       1.000  11.245 132.671  0.00  0.00    +0.000 A 
ATOM     16  C   UNL     1       1.133  12.599 132.513  0.00  0.00    +0.000 A 
ATOM     17  C   UNL     1       0.049  13.183 133.083  0.00  0.00    +0.000 A 
ATOM     18  C   UNL     1      -1.257  12.230 133.502  0.00  0.00    +0.000 A 
ATOM     19  C   UNL     1      -1.386  10.612 133.370  0.00  0.00    +0.000 A 
ENDBRANCH   6   9
BRANCH   1  23
ATOM     20  C   UNL     1     -10.280   5.462 130.591  0.00  0.00    +0.000 A 
ATOM     21  C   UNL     1      -9.312   6.444 130.820  0.00  0.00    +0.000 A 
ATOM     22  C   UNL     1      -7.928   6.125 130.754  0.00  0.00    +0.000 A 
ATOM     23  C   UNL     1      -7.489   4.792 130.566  0.00  0.00    +0.000 A 
ATOM     24  C   UNL     1      -8.485   3.844 130.357  0.00  0.00    +0.000 A 
ATOM     25  C   UNL     1      -9.850   4.166 130.348  0.00  0.00    +0.000 A 
BRANCH  20  26
ATOM     26  O   UNL     1     -11.592   5.856 130.511  0.00  0.00    +0.000 OA
BRANCH  26  27
ATOM     27  C   UNL     1     -12.023   6.821 131.485  0.00  0.00    +0.000 C 
BRANCH  27  28
ATOM     28  C   UNL     1     -13.055   7.758 130.845  0.00  0.00    +0.000 C 
BRANCH  28  29
ATOM     29  C   UNL     1     -12.405   8.700 129.832  0.00  0.00    +0.000 C 
BRANCH  29  33
ATOM     30  C   UNL     1     -11.072   7.512 126.456  0.00  0.00    +0.000 C 
ATOM     31  C   UNL     1     -11.078   8.141 127.831  0.00  0.00    +0.000 C 
ATOM     32  O   UNL     1     -10.063   8.636 128.314  0.00  0.00    +0.000 OA
ATOM     33  N   UNL     1     -12.288   8.123 128.498  0.00  0.00    +0.000 N 
ATOM     34  H   UNL     1     -13.100   7.703 128.064  0.00  0.00    +0.000 HD
ENDBRANCH  29  33
ENDBRANCH  28  29
ENDBRANCH  27  28
ENDBRANCH  26  27
ENDBRANCH  20  26
ENDBRANCH   1  23
TORSDOF 7
ENDMDL
MODEL 3
REMARK VINA RESULT:      -8.6      1.526      2.136
REMARK  Name = CHEMBL143304
REMARK  8 active torsions:
REMARK  status: ('A' for Active; 'I' for Inactive)
REMARK    1  A    between atoms: C_1  and  C_2
REMARK    2  A    between atoms: N_4  and  C_5
REMARK    3  A    between atoms: C_5  and  C_6
REMARK    4  A    between atoms: C_6  and  C_7
REMARK    5  A    between atoms: C_7  and  O_8
REMARK    6  A    between atoms: O_8  and  C_9
REMARK    7  A    between atoms: C_12  and  C_13
REMARK    8  A    between atoms: C_18  and  N_19
REMARK                            x       y       z     vdW  Elec       q    Type
REMARK                         _______ _______ _______ _____ _____    ______ ____
ROOT
ATOM      1  C   UNL     1      -7.461  -2.272 131.015  0.00  0.00    +0.000 C 
ATOM      2  O   UNL     1      -7.415  -3.186 131.842  0.00  0.00    +0.000 OA
ATOM      3  N   UNL     1      -7.347  -0.873 131.394  0.00  0.00    +0.000 N 
ATOM      4  C   UNL     1      -6.095  -0.248 131.881  0.00  0.00    +0.000 C 
ATOM      5  C   UNL     1      -6.323   0.935 132.905  0.00  0.00    +0.000 C 
ATOM      6  C   UNL     1      -7.263   2.400 132.305  0.00  0.00    +0.000 C 
ATOM      7  C   UNL     1      -8.609   1.290 131.954  0.00  0.00    +0.000 C 
ATOM      8  C   UNL     1      -8.316   0.121 130.946  0.00  0.00    +0.000 C 
ENDROOT
BRANCH   6   9
ATOM      9  N   UNL     1      -6.682   4.089 131.740  0.00  0.00    +0.000 N 
ATOM     10  C   UNL     1      -6.739   4.278 133.158  0.00  0.00    +0.000 C 
ATOM     11  O   UNL     1      -7.767   4.148 133.910  0.00  0.00    +0.000 OA
ATOM     12  O   UNL     1      -5.592   4.512 133.753  0.00  0.00    +0.000 OA
ATOM     13  C   UNL     1      -5.721   5.883 133.822  0.00  0.00    +0.000 C 
ATOM     14  C   UNL     1      -4.959   6.039 132.599  0.00  0.00    +0.000 A 
ATOM     15  C   UNL     1      -3.582   6.562 132.694  0.00  0.00    +0.000 A 
ATOM     16  C   UNL     1      -2.970   7.546 131.962  0.00  0.00    +0.000 A 
ATOM     17  C   UNL     1      -3.851   7.954 131.013  0.00  0.00    +0.000 A 
ATOM     18  C   UNL     1      -5.216   7.036 130.729  0.00  0.00    +0.000 A 
ATOM     19  C   UNL     1      -5.687   5.690 131.516  0.00  0.00    +0.000 A 
ENDBRANCH   6   9
BRANCH   1  23
ATOM     20  C   UNL     1      -8.237  -3.262 126.800  0.00  0.00    +0.000 A 
ATOM     21  C   UNL     1      -7.226  -2.356 127.127  0.00  0.00    +0.000 A 
ATOM     22  C   UNL     1      -6.887  -2.107 128.485  0.00  0.00    +0.000 A 
ATOM     23  C   UNL     1      -7.632  -2.681 129.545  0.00  0.00    +0.000 A 
ATOM     24  C   UNL     1      -8.639  -3.566 129.175  0.00  0.00    +0.000 A 
ATOM     25  C   UNL     1      -8.929  -3.871 127.837  0.00  0.00    +0.000 A 
BRANCH  20  26
ATOM     26  O   UNL     1      -8.415  -3.581 125.477  0.00  0.00    +0.000 OA
BRANCH  26  27
ATOM     27  C   UNL     1      -9.503  -2.922 124.809  0.00  0.00    +0.000 C 
BRANCH  27  28
ATOM     28  C   UNL     1      -9.083  -2.583 123.373  0.00  0.00    +0.000 C 
BRANCH  28  29
ATOM     29  C   UNL     1      -7.688  -1.961 123.329  0.00  0.00    +0.000 C 
BRANCH  29  33
ATOM     30  C   UNL     1      -4.371  -3.832 123.615  0.00  0.00    +0.000 C 
ATOM     31  C   UNL     1      -5.403  -2.746 123.819  0.00  0.00    +0.000 C 
ATOM     32  O   UNL     1      -5.161  -1.752 124.499  0.00  0.00    +0.000 OA
ATOM     33  N   UNL     1      -6.620  -2.945 123.196  0.00  0.00    +0.000 N 
ATOM     34  H   UNL     1      -6.778  -3.780 122.646  0.00  0.00    +0.000 HD
ENDBRANCH  29  33
ENDBRANCH  28  29
ENDBRANCH  27  28
ENDBRANCH  26  27
ENDBRANCH  20  26
ENDBRANCH   1  23
TORSDOF 7
ENDMDL
MODEL 4
REMARK VINA RESULT:      -8.5      5.733      7.266
REMARK  Name = CHEMBL143304
REMARK  8 active torsions:
REMARK  status: ('A' for Active; 'I' for Inactive)
REMARK    1  A    between atoms: C_1  and  C_2
REMARK    2  A    between atoms: N_4  and  C_5
REMARK    3  A    between atoms: C_5  and  C_6
REMARK    4  A    between atoms: C_6  and  C_7
REMARK    5  A    between atoms: C_7  and  O_8
REMARK    6  A    between atoms: O_8  and  C_9
REMARK    7  A    between atoms: C_12  and  C_13
REMARK    8  A    between atoms: C_18  and  N_19
REMARK                            x       y       z     vdW  Elec       q    Type
REMARK                         _______ _______ _______ _____ _____    ______ ____
ROOT
ATOM      1  C   UNL     1      -2.854   6.237 128.498  0.00  0.00    +0.000 C 
ATOM      2  O   UNL     1      -2.020   6.965 127.953  0.00  0.00    +0.000 OA
ATOM      3  N   UNL     1      -3.125   6.296 129.925  0.00  0.00    +0.000 N 
ATOM      4  C   UNL     1      -3.811   7.427 130.590  0.00  0.00    +0.000 C 
ATOM      5  C   UNL     1      -3.346   7.673 132.081  0.00  0.00    +0.000 C 
ATOM      6  C   UNL     1      -3.621   6.308 133.286  0.00  0.00    +0.000 C 
ATOM      7  C   UNL     1      -2.623   5.284 132.229  0.00  0.00    +0.000 C 
ATOM      8  C   UNL     1      -3.123   5.094 130.752  0.00  0.00    +0.000 C 
ENDROOT
BRANCH   6   9
ATOM      9  N   UNL     1      -4.937   6.070 134.599  0.00  0.00    +0.000 N 
ATOM     10  C   UNL     1      -3.849   6.568 135.386  0.00  0.00    +0.000 C 
ATOM     11  O   UNL     1      -2.687   6.044 135.510  0.00  0.00    +0.000 OA
ATOM     12  O   UNL     1      -4.040   7.734 135.959  0.00  0.00    +0.000 OA
ATOM     13  C   UNL     1      -4.385   7.250 137.204  0.00  0.00    +0.000 C 
ATOM     14  C   UNL     1      -5.794   7.339 136.872  0.00  0.00    +0.000 A 
ATOM     15  C   UNL     1      -6.596   8.405 137.504  0.00  0.00    +0.000 A 
ATOM     16  C   UNL     1      -7.819   8.330 138.116  0.00  0.00    +0.000 A 
ATOM     17  C   UNL     1      -8.262   7.054 137.984  0.00  0.00    +0.000 A 
ATOM     18  C   UNL     1      -7.482   6.033 136.917  0.00  0.00    +0.000 A 
ATOM     19  C   UNL     1      -6.163   6.358 136.019  0.00  0.00    +0.000 A 
ENDBRANCH   6   9
BRANCH   1  23
ATOM     20  C   UNL     1      -4.930   3.632 125.625  0.00  0.00    +0.000 A 
ATOM     21  C   UNL     1      -3.766   3.185 126.253  0.00  0.00    +0.000 A 
ATOM     22  C   UNL     1      -3.143   3.967 127.265  0.00  0.00    +0.000 A 
ATOM     23  C   UNL     1      -3.616   5.263 127.587  0.00  0.00    +0.000 A 
ATOM     24  C   UNL     1      -4.769   5.674 126.928  0.00  0.00    +0.000 A 
ATOM     25  C   UNL     1      -5.429   4.876 125.983  0.00  0.00    +0.000 A 
BRANCH  20  26
ATOM     26  O   UNL     1      -5.575   2.771 124.773  0.00  0.00    +0.000 OA
BRANCH  26  27
ATOM     27  C   UNL     1      -6.694   3.314 124.052  0.00  0.00    +0.000 C 
BRANCH  27  28
ATOM     28  C   UNL     1      -6.558   2.958 122.566  0.00  0.00    +0.000 C 
BRANCH  28  29
ATOM     29  C   UNL     1      -5.542   3.858 121.864  0.00  0.00    +0.000 C 
BRANCH  29  33
ATOM     30  C   UNL     1      -5.905   5.655 118.514  0.00  0.00    +0.000 C 
ATOM     31  C   UNL     1      -5.433   5.374 119.923  0.00  0.00    +0.000 C 
ATOM     32  O   UNL     1      -4.656   6.127 120.501  0.00  0.00    +0.000 OA
ATOM     33  N   UNL     1      -5.933   4.226 120.508  0.00  0.00    +0.000 N 
ATOM     34  H   UNL     1      -6.572   3.631 119.996  0.00  0.00    +0.000 HD
ENDBRANCH  29  33
ENDBRANCH  28  29
ENDBRANCH  27  28
ENDBRANCH  26  27
ENDBRANCH  20  26
ENDBRANCH   1  23
TORSDOF 7
ENDMDL
MODEL 5
REMARK VINA RESULT:      -8.5      4.679      9.431
REMARK  Name = CHEMBL143304
REMARK  8 active torsions:
REMARK  status: ('A' for Active; 'I' for Inactive)
REMARK    1  A    between atoms: C_1  and  C_2
REMARK    2  A    between atoms: N_4  and  C_5
REMARK    3  A    between atoms: C_5  and  C_6
REMARK    4  A    between atoms: C_6  and  C_7
REMARK    5  A    between atoms: C_7  and  O_8
REMARK    6  A    between atoms: O_8  and  C_9
REMARK    7  A    between atoms: C_12  and  C_13
REMARK    8  A    between atoms: C_18  and  N_19
REMARK                            x       y       z     vdW  Elec       q    Type
REMARK                         _______ _______ _______ _____ _____    ______ ____
ROOT
ATOM      1  C   UNL     1      -7.428   3.905 129.364  0.00  0.00    +0.000 C 
ATOM      2  O   UNL     1      -6.725   4.571 128.599  0.00  0.00    +0.000 OA
ATOM      3  N   UNL     1      -7.169   2.501 129.636  0.00  0.00    +0.000 N 
ATOM      4  C   UNL     1      -6.012   2.011 130.419  0.00  0.00    +0.000 C 
ATOM      5  C   UNL     1      -5.492   0.585 129.975  0.00  0.00    +0.000 C 
ATOM      6  C   UNL     1      -6.667  -0.824 130.124  0.00  0.00    +0.000 C 
ATOM      7  C   UNL     1      -7.754   0.075 129.040  0.00  0.00    +0.000 C 
ATOM      8  C   UNL     1      -8.219   1.495 129.524  0.00  0.00    +0.000 C 
ENDROOT
BRANCH   6   9
ATOM      9  N   UNL     1      -6.810  -2.179 131.411  0.00  0.00    +0.000 N 
ATOM     10  C   UNL     1      -6.383  -2.928 130.267  0.00  0.00    +0.000 C 
ATOM     11  O   UNL     1      -6.984  -3.019 129.140  0.00  0.00    +0.000 OA
ATOM     12  O   UNL     1      -5.205  -3.499 130.361  0.00  0.00    +0.000 OA
ATOM     13  C   UNL     1      -5.658  -4.757 130.698  0.00  0.00    +0.000 C 
ATOM     14  C   UNL     1      -5.476  -4.470 132.107  0.00  0.00    +0.000 A 
ATOM     15  C   UNL     1      -4.354  -5.119 132.815  0.00  0.00    +0.000 A 
ATOM     16  C   UNL     1      -4.344  -5.769 134.021  0.00  0.00    +0.000 A 
ATOM     17  C   UNL     1      -5.588  -5.660 134.552  0.00  0.00    +0.000 A 
ATOM     18  C   UNL     1      -6.664  -4.576 133.877  0.00  0.00    +0.000 A 
ATOM     19  C   UNL     1      -6.433  -3.635 132.569  0.00  0.00    +0.000 A 
ENDBRANCH   6   9
BRANCH   1  23
ATOM     20  C   UNL     1     -10.767   6.230 131.037  0.00  0.00    +0.000 A 
ATOM     21  C   UNL     1     -11.014   4.996 130.430  0.00  0.00    +0.000 A 
ATOM     22  C   UNL     1      -9.938   4.181 129.983  0.00  0.00    +0.000 A 
ATOM     23  C   UNL     1      -8.598   4.638 130.037  0.00  0.00    +0.000 A 
ATOM     24  C   UNL     1      -8.399   5.878 130.636  0.00  0.00    +0.000 A 
ATOM     25  C   UNL     1      -9.450   6.653 131.145  0.00  0.00    +0.000 A 
BRANCH  20  26
ATOM     26  O   UNL     1     -11.829   6.901 131.590  0.00  0.00    +0.000 OA
BRANCH  26  27
ATOM     27  C   UNL     1     -12.873   7.289 130.682  0.00  0.00    +0.000 C 
BRANCH  27  28
ATOM     28  C   UNL     1     -12.757   8.791 130.390  0.00  0.00    +0.000 C 
BRANCH  28  29
ATOM     29  C   UNL     1     -12.816   9.077 128.890  0.00  0.00    +0.000 C 
BRANCH  29  33
ATOM     30  C   UNL     1     -10.399   6.836 126.961  0.00  0.00    +0.000 C 
ATOM     31  C   UNL     1     -10.884   7.986 127.814  0.00  0.00    +0.000 C 
ATOM     32  O   UNL     1     -10.110   8.838 128.242  0.00  0.00    +0.000 OA
ATOM     33  N   UNL     1     -12.241   8.013 128.075  0.00  0.00    +0.000 N 
ATOM     34  H   UNL     1     -12.843   7.290 127.704  0.00  0.00    +0.000 HD
ENDBRANCH  29  33
ENDBRANCH  28  29
ENDBRANCH  27  28
ENDBRANCH  26  27
ENDBRANCH  20  26
ENDBRANCH   1  23
TORSDOF 7
ENDMDL
MODEL 6
REMARK VINA RESULT:      -8.4      2.635      9.520
REMARK  Name = CHEMBL143304
REMARK  8 active torsions:
REMARK  status: ('A' for Active; 'I' for Inactive)
REMARK    1  A    between atoms: C_1  and  C_2
REMARK    2  A    between atoms: N_4  and  C_5
REMARK    3  A    between atoms: C_5  and  C_6
REMARK    4  A    between atoms: C_6  and  C_7
REMARK    5  A    between atoms: C_7  and  O_8
REMARK    6  A    between atoms: O_8  and  C_9
REMARK    7  A    between atoms: C_12  and  C_13
REMARK    8  A    between atoms: C_18  and  N_19
REMARK                            x       y       z     vdW  Elec       q    Type
REMARK                         _______ _______ _______ _____ _____    ______ ____
ROOT
ATOM      1  C   UNL     1      -7.434   3.473 133.065  0.00  0.00    +0.000 C 
ATOM      2  O   UNL     1      -8.145   3.608 134.064  0.00  0.00    +0.000 OA
ATOM      3  N   UNL     1      -7.399   2.240 132.295  0.00  0.00    +0.000 N 
ATOM      4  C   UNL     1      -8.518   1.762 131.450  0.00  0.00    +0.000 C 
ATOM      5  C   UNL     1      -8.617   0.188 131.347  0.00  0.00    +0.000 C 
ATOM      6  C   UNL     1      -7.185  -0.701 130.607  0.00  0.00    +0.000 C 
ATOM      7  C   UNL     1      -6.182   0.019 131.888  0.00  0.00    +0.000 C 
ATOM      8  C   UNL     1      -6.140   1.587 131.955  0.00  0.00    +0.000 C 
ENDROOT
BRANCH   6   9
ATOM      9  N   UNL     1      -6.933  -1.422 128.895  0.00  0.00    +0.000 N 
ATOM     10  C   UNL     1      -7.616  -2.497 129.550  0.00  0.00    +0.000 C 
ATOM     11  O   UNL     1      -7.234  -3.127 130.597  0.00  0.00    +0.000 OA
ATOM     12  O   UNL     1      -8.804  -2.795 129.076  0.00  0.00    +0.000 OA
ATOM     13  C   UNL     1      -8.406  -3.861 128.296  0.00  0.00    +0.000 C 
ATOM     14  C   UNL     1      -8.312  -3.003 127.132  0.00  0.00    +0.000 A 
ATOM     15  C   UNL     1      -9.342  -3.131 126.082  0.00  0.00    +0.000 A 
ATOM     16  C   UNL     1      -9.194  -3.226 124.723  0.00  0.00    +0.000 A 
ATOM     17  C   UNL     1      -7.871  -3.100 124.448  0.00  0.00    +0.000 A 
ATOM     18  C   UNL     1      -6.843  -2.560 125.648  0.00  0.00    +0.000 A 
ATOM     19  C   UNL     1      -7.221  -2.207 127.192  0.00  0.00    +0.000 A 
ENDBRANCH   6   9
BRANCH   1  23
ATOM     20  C   UNL     1      -4.814   6.734 131.704  0.00  0.00    +0.000 A 
ATOM     21  C   UNL     1      -6.114   6.631 131.203  0.00  0.00    +0.000 A 
ATOM     22  C   UNL     1      -7.011   5.651 131.712  0.00  0.00    +0.000 A 
ATOM     23  C   UNL     1      -6.584   4.685 132.657  0.00  0.00    +0.000 A 
ATOM     24  C   UNL     1      -5.279   4.816 133.118  0.00  0.00    +0.000 A 
ATOM     25  C   UNL     1      -4.413   5.825 132.673  0.00  0.00    +0.000 A 
BRANCH  20  26
ATOM     26  O   UNL     1      -4.046   7.793 131.291  0.00  0.00    +0.000 OA
BRANCH  26  27
ATOM     27  C   UNL     1      -3.799   7.882 129.878  0.00  0.00    +0.000 C 
BRANCH  27  28
ATOM     28  C   UNL     1      -2.860   6.744 129.457  0.00  0.00    +0.000 C 
BRANCH  28  29
ATOM     29  C   UNL     1      -3.301   6.113 128.137  0.00  0.00    +0.000 C 
BRANCH  29  33
ATOM     30  C   UNL     1      -1.616   2.978 126.753  0.00  0.00    +0.000 C 
ATOM     31  C   UNL     1      -2.701   3.867 127.316  0.00  0.00    +0.000 C 
ATOM     32  O   UNL     1      -3.837   3.445 127.512  0.00  0.00    +0.000 OA
ATOM     33  N   UNL     1      -2.332   5.169 127.593  0.00  0.00    +0.000 N 
ATOM     34  H   UNL     1      -1.384   5.477 127.415  0.00  0.00    +0.000 HD
ENDBRANCH  29  33
ENDBRANCH  28  29
ENDBRANCH  27  28
ENDBRANCH  26  27
ENDBRANCH  20  26
ENDBRANCH   1  23
TORSDOF 7
ENDMDL
MODEL 7
REMARK VINA RESULT:      -8.1      3.559      5.558
REMARK  Name = CHEMBL143304
REMARK  8 active torsions:
REMARK  status: ('A' for Active; 'I' for Inactive)
REMARK    1  A    between atoms: C_1  and  C_2
REMARK    2  A    between atoms: N_4  and  C_5
REMARK    3  A    between atoms: C_5  and  C_6
REMARK    4  A    between atoms: C_6  and  C_7
REMARK    5  A    between atoms: C_7  and  O_8
REMARK    6  A    between atoms: O_8  and  C_9
REMARK    7  A    between atoms: C_12  and  C_13
REMARK    8  A    between atoms: C_18  and  N_19
REMARK                            x       y       z     vdW  Elec       q    Type
REMARK                         _______ _______ _______ _____ _____    ______ ____
ROOT
ATOM      1  C   UNL     1      -5.890   3.520 124.541  0.00  0.00    +0.000 C 
ATOM      2  O   UNL     1      -5.929   4.244 123.542  0.00  0.00    +0.000 OA
ATOM      3  N   UNL     1      -5.083   3.843 125.706  0.00  0.00    +0.000 N 
ATOM      4  C   UNL     1      -5.382   4.956 126.636  0.00  0.00    +0.000 C 
ATOM      5  C   UNL     1      -4.100   5.601 127.300  0.00  0.00    +0.000 C 
ATOM      6  C   UNL     1      -3.054   4.508 128.349  0.00  0.00    +0.000 C 
ATOM      7  C   UNL     1      -2.855   3.466 126.921  0.00  0.00    +0.000 C 
ATOM      8  C   UNL     1      -4.165   2.872 126.292  0.00  0.00    +0.000 C 
ENDROOT
BRANCH   6   9
ATOM      9  N   UNL     1      -2.929   4.339 130.211  0.00  0.00    +0.000 N 
ATOM     10  C   UNL     1      -2.664   5.737 130.043  0.00  0.00    +0.000 C 
ATOM     11  O   UNL     1      -1.718   6.263 129.360  0.00  0.00    +0.000 OA
ATOM     12  O   UNL     1      -3.547   6.556 130.566  0.00  0.00    +0.000 OA
ATOM     13  C   UNL     1      -2.853   6.825 131.727  0.00  0.00    +0.000 C 
ATOM     14  C   UNL     1      -3.594   5.799 132.434  0.00  0.00    +0.000 A 
ATOM     15  C   UNL     1      -4.612   6.221 133.416  0.00  0.00    +0.000 A 
ATOM     16  C   UNL     1      -4.825   5.780 134.696  0.00  0.00    +0.000 A 
ATOM     17  C   UNL     1      -3.949   4.770 134.928  0.00  0.00    +0.000 A 
ATOM     18  C   UNL     1      -3.124   4.101 133.640  0.00  0.00    +0.000 A 
ATOM     19  C   UNL     1      -3.184   4.561 132.079  0.00  0.00    +0.000 A 
ENDBRANCH   6   9
BRANCH   1  23
ATOM     20  C   UNL     1      -8.642   0.091 124.416  0.00  0.00    +0.000 A 
ATOM     21  C   UNL     1      -7.862   0.397 123.299  0.00  0.00    +0.000 A 
ATOM     22  C   UNL     1      -6.888   1.432 123.357  0.00  0.00    +0.000 A 
ATOM     23  C   UNL     1      -6.756   2.252 124.505  0.00  0.00    +0.000 A 
ATOM     24  C   UNL     1      -7.562   1.922 125.589  0.00  0.00    +0.000 A 
ATOM     25  C   UNL     1      -8.472   0.855 125.561  0.00  0.00    +0.000 A 
BRANCH  20  26
ATOM     26  O   UNL     1      -9.452  -1.015 124.354  0.00  0.00    +0.000 OA
BRANCH  26  27
ATOM     27  C   UNL     1      -9.255  -1.880 123.222  0.00  0.00    +0.000 C 
BRANCH  27  28
ATOM     28  C   UNL     1      -9.425  -3.339 123.665  0.00  0.00    +0.000 C 
BRANCH  28  29
ATOM     29  C   UNL     1      -8.335  -3.755 124.652  0.00  0.00    +0.000 C 
BRANCH  29  33
ATOM     30  C   UNL     1      -5.271  -1.600 125.393  0.00  0.00    +0.000 C 
ATOM     31  C   UNL     1      -6.540  -2.385 125.640  0.00  0.00    +0.000 C 
ATOM     32  O   UNL     1      -7.023  -2.484 126.764  0.00  0.00    +0.000 OA
ATOM     33  N   UNL     1      -7.111  -2.973 124.528  0.00  0.00    +0.000 N 
ATOM     34  H   UNL     1      -6.678  -2.867 123.619  0.00  0.00    +0.000 HD
ENDBRANCH  29  33
ENDBRANCH  28  29
ENDBRANCH  27  28
ENDBRANCH  26  27
ENDBRANCH  20  26
ENDBRANCH   1  23
TORSDOF 7
ENDMDL
MODEL 8
REMARK VINA RESULT:      -8.0      4.403      6.840
REMARK  Name = CHEMBL143304
REMARK  8 active torsions:
REMARK  status: ('A' for Active; 'I' for Inactive)
REMARK    1  A    between atoms: C_1  and  C_2
REMARK    2  A    between atoms: N_4  and  C_5
REMARK    3  A    between atoms: C_5  and  C_6
REMARK    4  A    between atoms: C_6  and  C_7
REMARK    5  A    between atoms: C_7  and  O_8
REMARK    6  A    between atoms: O_8  and  C_9
REMARK    7  A    between atoms: C_12  and  C_13
REMARK    8  A    between atoms: C_18  and  N_19
REMARK                            x       y       z     vdW  Elec       q    Type
REMARK                         _______ _______ _______ _____ _____    ______ ____
ROOT
ATOM      1  C   UNL     1      -2.606   6.076 128.724  0.00  0.00    +0.000 C 
ATOM      2  O   UNL     1      -1.893   6.855 128.086  0.00  0.00    +0.000 OA
ATOM      3  N   UNL     1      -2.857   6.239 130.147  0.00  0.00    +0.000 N 
ATOM      4  C   UNL     1      -3.684   7.324 130.722  0.00  0.00    +0.000 C 
ATOM      5  C   UNL     1      -3.232   7.780 132.166  0.00  0.00    +0.000 C 
ATOM      6  C   UNL     1      -3.290   6.518 133.505  0.00  0.00    +0.000 C 
ATOM      7  C   UNL     1      -2.177   5.541 132.520  0.00  0.00    +0.000 C 
ATOM      8  C   UNL     1      -2.671   5.137 131.085  0.00  0.00    +0.000 C 
ENDROOT
BRANCH   6   9
ATOM      9  N   UNL     1      -4.536   6.232 134.876  0.00  0.00    +0.000 N 
ATOM     10  C   UNL     1      -3.521   6.962 135.574  0.00  0.00    +0.000 C 
ATOM     11  O   UNL     1      -2.293   6.628 135.714  0.00  0.00    +0.000 OA
ATOM     12  O   UNL     1      -3.873   8.142 136.030  0.00  0.00    +0.000 OA
ATOM     13  C   UNL     1      -4.123   7.748 137.327  0.00  0.00    +0.000 C 
ATOM     14  C   UNL     1      -5.534   7.596 137.033  0.00  0.00    +0.000 A 
ATOM     15  C   UNL     1      -6.475   8.596 137.576  0.00  0.00    +0.000 A 
ATOM     16  C   UNL     1      -7.664   8.409 138.230  0.00  0.00    +0.000 A 
ATOM     17  C   UNL     1      -7.915   7.076 138.244  0.00  0.00    +0.000 A 
ATOM     18  C   UNL     1      -7.010   6.072 137.264  0.00  0.00    +0.000 A 
ATOM     19  C   UNL     1      -5.768   6.488 136.296  0.00  0.00    +0.000 A 
ENDBRANCH   6   9
BRANCH   1  23
ATOM     20  C   UNL     1      -4.305   2.554 126.710  0.00  0.00    +0.000 A 
ATOM     21  C   UNL     1      -5.148   3.452 127.368  0.00  0.00    +0.000 A 
ATOM     22  C   UNL     1      -4.630   4.652 127.930  0.00  0.00    +0.000 A 
ATOM     23  C   UNL     1      -3.239   4.920 127.936  0.00  0.00    +0.000 A 
ATOM     24  C   UNL     1      -2.435   3.992 127.282  0.00  0.00    +0.000 A 
ATOM     25  C   UNL     1      -2.949   2.844 126.663  0.00  0.00    +0.000 A 
BRANCH  20  26
ATOM     26  O   UNL     1      -4.878   1.494 126.053  0.00  0.00    +0.000 OA
BRANCH  26  27
ATOM     27  C   UNL     1      -6.312   1.512 125.956  0.00  0.00    +0.000 C 
BRANCH  27  28
ATOM     28  C   UNL     1      -6.718   1.597 124.479  0.00  0.00    +0.000 C 
BRANCH  28  29
ATOM     29  C   UNL     1      -7.175   0.240 123.944  0.00  0.00    +0.000 C 
BRANCH  29  33
ATOM     30  C   UNL     1      -5.105  -2.967 124.066  0.00  0.00    +0.000 C 
ATOM     31  C   UNL     1      -5.980  -1.870 123.502  0.00  0.00    +0.000 C 
ATOM     32  O   UNL     1      -6.346  -1.882 122.330  0.00  0.00    +0.000 OA
ATOM     33  N   UNL     1      -6.336  -0.868 124.384  0.00  0.00    +0.000 N 
ATOM     34  H   UNL     1      -6.011  -0.897 125.342  0.00  0.00    +0.000 HD
ENDBRANCH  29  33
ENDBRANCH  28  29
ENDBRANCH  27  28
ENDBRANCH  26  27
ENDBRANCH  20  26
ENDBRANCH   1  23
TORSDOF 7
ENDMDL
MODEL 9
REMARK VINA RESULT:      -7.9      3.373     10.570
REMARK  Name = CHEMBL143304
REMARK  8 active torsions:
REMARK  status: ('A' for Active; 'I' for Inactive)
REMARK    1  A    between atoms: C_1  and  C_2
REMARK    2  A    between atoms: N_4  and  C_5
REMARK    3  A    between atoms: C_5  and  C_6
REMARK    4  A    between atoms: C_6  and  C_7
REMARK    5  A    between atoms: C_7  and  O_8
REMARK    6  A    between atoms: O_8  and  C_9
REMARK    7  A    between atoms: C_12  and  C_13
REMARK    8  A    between atoms: C_18  and  N_19
REMARK                            x       y       z     vdW  Elec       q    Type
REMARK                         _______ _______ _______ _____ _____    ______ ____
ROOT
ATOM      1  C   UNL     1      -3.902   5.384 128.531  0.00  0.00    +0.000 C 
ATOM      2  O   UNL     1      -3.111   6.167 128.000  0.00  0.00    +0.000 OA
ATOM      3  N   UNL     1      -4.793   4.533 127.759  0.00  0.00    +0.000 N 
ATOM      4  C   UNL     1      -4.337   3.379 126.950  0.00  0.00    +0.000 C 
ATOM      5  C   UNL     1      -5.227   3.099 125.673  0.00  0.00    +0.000 C 
ATOM      6  C   UNL     1      -6.998   2.681 125.955  0.00  0.00    +0.000 C 
ATOM      7  C   UNL     1      -7.150   4.247 126.786  0.00  0.00    +0.000 C 
ATOM      8  C   UNL     1      -6.225   4.477 128.034  0.00  0.00    +0.000 C 
ENDROOT
BRANCH   6   9
ATOM      9  N   UNL     1      -7.895   1.036 125.934  0.00  0.00    +0.000 N 
ATOM     10  C   UNL     1      -8.532   1.712 124.844  0.00  0.00    +0.000 C 
ATOM     11  O   UNL     1      -9.176   2.817 124.896  0.00  0.00    +0.000 OA
ATOM     12  O   UNL     1      -8.348   1.186 123.655  0.00  0.00    +0.000 OA
ATOM     13  C   UNL     1      -9.542   0.498 123.593  0.00  0.00    +0.000 C 
ATOM     14  C   UNL     1      -8.898  -0.708 124.073  0.00  0.00    +0.000 A 
ATOM     15  C   UNL     1      -8.672  -1.810 123.116  0.00  0.00    +0.000 A 
ATOM     16  C   UNL     1      -8.930  -3.149 123.251  0.00  0.00    +0.000 A 
ATOM     17  C   UNL     1      -9.387  -3.349 124.513  0.00  0.00    +0.000 A 
ATOM     18  C   UNL     1      -9.227  -2.124 125.636  0.00  0.00    +0.000 A 
ATOM     19  C   UNL     1      -8.625  -0.631 125.394  0.00  0.00    +0.000 A 
ENDBRANCH   6   9
BRANCH   1  23
ATOM     20  C   UNL     1      -4.215   5.161 132.913  0.00  0.00    +0.000 A 
ATOM     21  C   UNL     1      -3.532   4.163 132.213  0.00  0.00    +0.000 A 
ATOM     22  C   UNL     1      -3.326   4.275 130.810  0.00  0.00    +0.000 A 
ATOM     23  C   UNL     1      -3.897   5.337 130.066  0.00  0.00    +0.000 A 
ATOM     24  C   UNL     1      -4.581   6.300 130.801  0.00  0.00    +0.000 A 
ATOM     25  C   UNL     1      -4.724   6.232 132.194  0.00  0.00    +0.000 A 
BRANCH  20  26
ATOM     26  O   UNL     1      -4.248   5.080 134.283  0.00  0.00    +0.000 OA
BRANCH  26  27
ATOM     27  C   UNL     1      -5.465   5.514 134.913  0.00  0.00    +0.000 C 
BRANCH  27  28
ATOM     28  C   UNL     1      -6.471   4.355 134.920  0.00  0.00    +0.000 C 
BRANCH  28  29
ATOM     29  C   UNL     1      -7.817   4.778 134.334  0.00  0.00    +0.000 C 
BRANCH  29  33
ATOM     30  C   UNL     1      -8.514   6.391 130.943  0.00  0.00    +0.000 C 
ATOM     31  C   UNL     1      -8.700   6.023 132.398  0.00  0.00    +0.000 C 
ATOM     32  O   UNL     1      -9.654   6.442 133.048  0.00  0.00    +0.000 OA
ATOM     33  N   UNL     1      -7.737   5.193 132.938  0.00  0.00    +0.000 N 
ATOM     34  H   UNL     1      -6.966   4.871 132.367  0.00  0.00    +0.000 HD
ENDBRANCH  29  33
ENDBRANCH  28  29
ENDBRANCH  27  28
ENDBRANCH  26  27
ENDBRANCH  20  26
ENDBRANCH   1  23
TORSDOF 7
ENDMDL
