MODEL 1
REMARK VINA RESULT:     -10.7      0.000      0.000
REMARK  Name = CHEMBL417133
REMARK  6 active torsions:
REMARK  status: ('A' for Active; 'I' for Inactive)
REMARK    1  A    between atoms: C_2  and  C_3
REMARK    2  A    between atoms: C_3  and  N_4
REMARK    3  A    between atoms: N_10  and  C_11
REMARK    4  A    between atoms: C_11  and  C_12
REMARK    5  A    between atoms: C_16  and  C_17
REMARK    6  A    between atoms: C_22  and  N_23
REMARK                            x       y       z     vdW  Elec       q    Type
REMARK                         _______ _______ _______ _____ _____    ______ ____
ROOT
ATOM      1  C   UNL     1      -8.684   4.347 133.007  0.00  0.00    +0.000 A 
ATOM      2  C   UNL     1      -9.091   3.392 132.099  0.00  0.00    +0.000 A 
ATOM      3  C   UNL     1      -8.345   2.223 132.357  0.00  0.00    +0.000 A 
ATOM      4  C   UNL     1      -8.313   0.929 131.804  0.00  0.00    +0.000 A 
ATOM      5  C   UNL     1      -7.400  -0.015 132.303  0.00  0.00    +0.000 A 
ATOM      6  C   UNL     1      -6.513   0.367 133.323  0.00  0.00    +0.000 A 
ATOM      7  C   UNL     1      -6.553   1.643 133.916  0.00  0.00    +0.000 A 
ATOM      8  C   UNL     1      -7.484   2.543 133.401  0.00  0.00    +0.000 A 
ATOM      9  O   UNL     1      -7.694   3.838 133.806  0.00  0.00    +0.000 OA
ENDROOT
BRANCH   5  10
ATOM     10  C   UNL     1      -7.351  -1.366 131.642  0.00  0.00    +0.000 C 
ATOM     11  O   UNL     1      -7.473  -2.389 132.311  0.00  0.00    +0.000 OA
ATOM     12  N   UNL     1      -7.265  -1.404 130.261  0.00  0.00    +0.000 N 
ATOM     13  C   UNL     1      -8.243  -2.169 129.495  0.00  0.00    +0.000 C 
ATOM     14  C   UNL     1      -7.578  -3.212 128.618  0.00  0.00    +0.000 C 
ATOM     15  C   UNL     1      -6.475  -2.583 127.739  0.00  0.00    +0.000 C 
ATOM     16  C   UNL     1      -5.466  -1.838 128.624  0.00  0.00    +0.000 C 
ATOM     17  C   UNL     1      -6.129  -0.830 129.548  0.00  0.00    +0.000 C 
BRANCH  15  18
ATOM     18  N   UNL     1      -7.029  -1.808 126.578  0.00  0.00    +0.000 N 
ATOM     19  C   UNL     1      -8.011  -0.821 126.688  0.00  0.00    +0.000 C 
ATOM     20  O   UNL     1      -8.068   0.106 127.487  0.00  0.00    +0.000 OA
ATOM     21  O   UNL     1      -9.043  -0.995 125.827  0.00  0.00    +0.000 OA
ATOM     22  C   UNL     1      -8.619  -0.756 124.504  0.00  0.00    +0.000 C 
ATOM     23  C   UNL     1      -7.385  -1.544 124.193  0.00  0.00    +0.000 A 
ATOM     24  C   UNL     1      -7.003  -1.699 122.859  0.00  0.00    +0.000 A 
ATOM     25  C   UNL     1      -5.848  -2.401 122.552  0.00  0.00    +0.000 A 
ATOM     26  C   UNL     1      -5.070  -2.939 123.574  0.00  0.00    +0.000 A 
ATOM     27  C   UNL     1      -5.448  -2.787 124.912  0.00  0.00    +0.000 A 
ATOM     28  C   UNL     1      -6.615  -2.089 125.237  0.00  0.00    +0.000 A 
ENDBRANCH  15  18
ENDBRANCH   5  10
BRANCH   1  29
ATOM     29  C   UNL     1      -9.147   5.746 133.212  0.00  0.00    +0.000 C 
BRANCH  29  32
ATOM     30  O   UNL     1     -12.335   6.304 131.629  0.00  0.00    +0.000 OA
ATOM     31  C   UNL     1     -11.110   6.366 131.731  0.00  0.00    +0.000 C 
ATOM     32  N   UNL     1     -10.550   5.811 132.839  0.00  0.00    +0.000 N 
ATOM     33  H   UNL     1     -11.243   5.427 133.471  0.00  0.00    +0.000 HD
BRANCH  31  34
ATOM     34  C   UNL     1     -10.187   7.002 130.680  0.00  0.00    +0.000 C 
BRANCH  34  35
ATOM     35  N   UNL     1     -10.850   7.486 129.474  0.00  0.00    +0.000 N 
ATOM     36  C   UNL     1     -11.893   8.488 129.467  0.00  0.00    +0.000 C 
ATOM     37  C   UNL     1     -12.465   8.403 128.066  0.00  0.00    +0.000 C 
ATOM     38  C   UNL     1     -11.280   7.939 127.228  0.00  0.00    +0.000 C 
ATOM     39  C   UNL     1     -10.502   7.085 128.197  0.00  0.00    +0.000 C 
ATOM     40  O   UNL     1      -9.681   6.234 127.900  0.00  0.00    +0.000 OA
ENDBRANCH  34  35
ENDBRANCH  31  34
ENDBRANCH  29  32
ENDBRANCH   1  29
TORSDOF 6
ENDMDL
MODEL 2
REMARK VINA RESULT:     -10.2      2.068      9.101
REMARK  Name = CHEMBL417133
REMARK  6 active torsions:
REMARK  status: ('A' for Active; 'I' for Inactive)
REMARK    1  A    between atoms: C_2  and  C_3
REMARK    2  A    between atoms: C_3  and  N_4
REMARK    3  A    between atoms: N_10  and  C_11
REMARK    4  A    between atoms: C_11  and  C_12
REMARK    5  A    between atoms: C_16  and  C_17
REMARK    6  A    between atoms: C_22  and  N_23
REMARK                            x       y       z     vdW  Elec       q    Type
REMARK                         _______ _______ _______ _____ _____    ______ ____
ROOT
ATOM      1  C   UNL     1      -6.929  -2.118 126.535  0.00  0.00    +0.000 A 
ATOM      2  C   UNL     1      -6.724  -0.799 126.885  0.00  0.00    +0.000 A 
ATOM      3  C   UNL     1      -6.959  -0.691 128.271  0.00  0.00    +0.000 A 
ATOM      4  C   UNL     1      -6.895   0.359 129.205  0.00  0.00    +0.000 A 
ATOM      5  C   UNL     1      -7.228   0.114 130.547  0.00  0.00    +0.000 A 
ATOM      6  C   UNL     1      -7.653  -1.172 130.920  0.00  0.00    +0.000 A 
ATOM      7  C   UNL     1      -7.688  -2.246 130.011  0.00  0.00    +0.000 A 
ATOM      8  C   UNL     1      -7.336  -1.961 128.693  0.00  0.00    +0.000 A 
ATOM      9  O   UNL     1      -7.310  -2.838 127.637  0.00  0.00    +0.000 OA
ENDROOT
BRANCH   5  10
ATOM     10  C   UNL     1      -7.210   1.277 131.502  0.00  0.00    +0.000 C 
ATOM     11  O   UNL     1      -6.452   1.275 132.469  0.00  0.00    +0.000 OA
ATOM     12  N   UNL     1      -7.997   2.374 131.195  0.00  0.00    +0.000 N 
ATOM     13  C   UNL     1      -7.396   3.701 131.129  0.00  0.00    +0.000 C 
ATOM     14  C   UNL     1      -8.073   4.673 132.076  0.00  0.00    +0.000 C 
ATOM     15  C   UNL     1      -9.602   4.687 131.862  0.00  0.00    +0.000 C 
ATOM     16  C   UNL     1     -10.159   3.262 131.993  0.00  0.00    +0.000 C 
ATOM     17  C   UNL     1      -9.448   2.269 131.090  0.00  0.00    +0.000 C 
BRANCH  15  18
ATOM     18  N   UNL     1     -10.010   5.442 130.630  0.00  0.00    +0.000 N 
ATOM     19  C   UNL     1      -9.442   5.252 129.368  0.00  0.00    +0.000 C 
ATOM     20  O   UNL     1      -9.214   4.195 128.791  0.00  0.00    +0.000 OA
ATOM     21  O   UNL     1      -9.047   6.407 128.780  0.00  0.00    +0.000 OA
ATOM     22  C   UNL     1     -10.171   7.177 128.417  0.00  0.00    +0.000 C 
ATOM     23  C   UNL     1     -11.102   7.335 129.577  0.00  0.00    +0.000 A 
ATOM     24  C   UNL     1     -12.091   8.319 129.520  0.00  0.00    +0.000 A 
ATOM     25  C   UNL     1     -12.981   8.462 130.573  0.00  0.00    +0.000 A 
ATOM     26  C   UNL     1     -12.892   7.618 131.676  0.00  0.00    +0.000 A 
ATOM     27  C   UNL     1     -11.904   6.630 131.740  0.00  0.00    +0.000 A 
ATOM     28  C   UNL     1     -10.993   6.480 130.691  0.00  0.00    +0.000 A 
ENDBRANCH  15  18
ENDBRANCH   5  10
BRANCH   1  29
ATOM     29  C   UNL     1      -6.798  -2.801 125.220  0.00  0.00    +0.000 C 
BRANCH  29  32
ATOM     30  O   UNL     1      -9.965  -3.101 123.528  0.00  0.00    +0.000 OA
ATOM     31  C   UNL     1      -8.839  -2.642 123.724  0.00  0.00    +0.000 C 
ATOM     32  N   UNL     1      -8.132  -3.156 124.766  0.00  0.00    +0.000 N 
ATOM     33  H   UNL     1      -8.654  -3.858 125.277  0.00  0.00    +0.000 HD
BRANCH  31  34
ATOM     34  C   UNL     1      -8.187  -1.556 122.856  0.00  0.00    +0.000 C 
BRANCH  34  35
ATOM     35  N   UNL     1      -8.463  -0.181 123.259  0.00  0.00    +0.000 N 
ATOM     36  C   UNL     1      -7.508   0.677 123.924  0.00  0.00    +0.000 C 
ATOM     37  C   UNL     1      -8.348   1.841 124.412  0.00  0.00    +0.000 C 
ATOM     38  C   UNL     1      -9.478   1.913 123.394  0.00  0.00    +0.000 C 
ATOM     39  C   UNL     1      -9.651   0.471 122.986  0.00  0.00    +0.000 C 
ATOM     40  O   UNL     1     -10.643  -0.010 122.466  0.00  0.00    +0.000 OA
ENDBRANCH  34  35
ENDBRANCH  31  34
ENDBRANCH  29  32
ENDBRANCH   1  29
TORSDOF 6
ENDMDL
MODEL 3
REMARK VINA RESULT:     -10.2      7.668     11.539
REMARK  Name = CHEMBL417133
REMARK  6 active torsions:
REMARK  status: ('A' for Active; 'I' for Inactive)
REMARK    1  A    between atoms: C_2  and  C_3
REMARK    2  A    between atoms: C_3  and  N_4
REMARK    3  A    between atoms: N_10  and  C_11
REMARK    4  A    between atoms: C_11  and  C_12
REMARK    5  A    between atoms: C_16  and  C_17
REMARK    6  A    between atoms: C_22  and  N_23
REMARK                            x       y       z     vdW  Elec       q    Type
REMARK                         _______ _______ _______ _____ _____    ______ ____
ROOT
ATOM      1  C   UNL     1      -8.660   5.838 132.735  0.00  0.00    +0.000 A 
ATOM      2  C   UNL     1      -7.686   5.610 133.685  0.00  0.00    +0.000 A 
ATOM      3  C   UNL     1      -6.454   6.006 133.127  0.00  0.00    +0.000 A 
ATOM      4  C   UNL     1      -5.125   6.043 133.590  0.00  0.00    +0.000 A 
ATOM      5  C   UNL     1      -4.105   6.488 132.734  0.00  0.00    +0.000 A 
ATOM      6  C   UNL     1      -4.431   6.855 131.418  0.00  0.00    +0.000 A 
ATOM      7  C   UNL     1      -5.757   6.862 130.945  0.00  0.00    +0.000 A 
ATOM      8  C   UNL     1      -6.739   6.427 131.833  0.00  0.00    +0.000 A 
ATOM      9  O   UNL     1      -8.088   6.333 131.592  0.00  0.00    +0.000 OA
ENDROOT
BRANCH   5  10
ATOM     10  C   UNL     1      -2.690   6.451 133.244  0.00  0.00    +0.000 C 
ATOM     11  O   UNL     1      -2.093   5.382 133.342  0.00  0.00    +0.000 OA
ATOM     12  N   UNL     1      -2.065   7.660 133.499  0.00  0.00    +0.000 N 
ATOM     13  C   UNL     1      -0.780   7.957 132.877  0.00  0.00    +0.000 C 
ATOM     14  C   UNL     1       0.285   8.272 133.910  0.00  0.00    +0.000 C 
ATOM     15  C   UNL     1      -0.189   9.373 134.883  0.00  0.00    +0.000 C 
ATOM     16  C   UNL     1      -1.521   8.962 135.527  0.00  0.00    +0.000 C 
ATOM     17  C   UNL     1      -2.577   8.590 134.500  0.00  0.00    +0.000 C 
BRANCH  15  18
ATOM     18  N   UNL     1      -0.149  10.745 134.272  0.00  0.00    +0.000 N 
ATOM     19  C   UNL     1      -1.201  11.316 133.555  0.00  0.00    +0.000 C 
ATOM     20  O   UNL     1      -2.390  11.353 133.851  0.00  0.00    +0.000 OA
ATOM     21  O   UNL     1      -0.821  11.818 132.355  0.00  0.00    +0.000 OA
ATOM     22  C   UNL     1      -0.016  12.960 132.539  0.00  0.00    +0.000 C 
ATOM     23  C   UNL     1       1.098  12.675 133.496  0.00  0.00    +0.000 A 
ATOM     24  C   UNL     1       2.177  13.558 133.558  0.00  0.00    +0.000 A 
ATOM     25  C   UNL     1       3.205  13.327 134.459  0.00  0.00    +0.000 A 
ATOM     26  C   UNL     1       3.151  12.222 135.304  0.00  0.00    +0.000 A 
ATOM     27  C   UNL     1       2.072  11.333 135.247  0.00  0.00    +0.000 A 
ATOM     28  C   UNL     1       1.033  11.548 134.338  0.00  0.00    +0.000 A 
ENDBRANCH  15  18
ENDBRANCH   5  10
BRANCH   1  29
ATOM     29  C   UNL     1     -10.132   5.631 132.789  0.00  0.00    +0.000 C 
BRANCH  29  32
ATOM     30  O   UNL     1     -11.440   4.067 129.819  0.00  0.00    +0.000 OA
ATOM     31  C   UNL     1     -11.261   4.993 130.610  0.00  0.00    +0.000 C 
ATOM     32  N   UNL     1     -10.498   4.734 131.705  0.00  0.00    +0.000 N 
ATOM     33  H   UNL     1     -10.185   3.771 131.740  0.00  0.00    +0.000 HD
BRANCH  31  34
ATOM     34  C   UNL     1     -11.820   6.411 130.421  0.00  0.00    +0.000 C 
BRANCH  34  35
ATOM     35  N   UNL     1     -11.717   6.951 129.069  0.00  0.00    +0.000 N 
ATOM     36  C   UNL     1     -12.770   6.874 128.082  0.00  0.00    +0.000 C 
ATOM     37  C   UNL     1     -12.081   7.263 126.789  0.00  0.00    +0.000 C 
ATOM     38  C   UNL     1     -10.970   8.199 127.247  0.00  0.00    +0.000 C 
ATOM     39  C   UNL     1     -10.620   7.656 128.610  0.00  0.00    +0.000 C 
ATOM     40  O   UNL     1      -9.576   7.852 129.211  0.00  0.00    +0.000 OA
ENDBRANCH  34  35
ENDBRANCH  31  34
ENDBRANCH  29  32
ENDBRANCH   1  29
TORSDOF 6
ENDMDL
MODEL 4
REMARK VINA RESULT:     -10.0      1.800      2.318
REMARK  Name = CHEMBL417133
REMARK  6 active torsions:
REMARK  status: ('A' for Active; 'I' for Inactive)
REMARK    1  A    between atoms: C_2  and  C_3
REMARK    2  A    between atoms: C_3  and  N_4
REMARK    3  A    between atoms: N_10  and  C_11
REMARK    4  A    between atoms: C_11  and  C_12
REMARK    5  A    between atoms: C_16  and  C_17
REMARK    6  A    between atoms: C_22  and  N_23
REMARK                            x       y       z     vdW  Elec       q    Type
REMARK                         _______ _______ _______ _____ _____    ______ ____
ROOT
ATOM      1  C   UNL     1      -8.785   4.528 132.459  0.00  0.00    +0.000 A 
ATOM      2  C   UNL     1      -7.708   4.281 131.633  0.00  0.00    +0.000 A 
ATOM      3  C   UNL     1      -7.748   2.914 131.288  0.00  0.00    +0.000 A 
ATOM      4  C   UNL     1      -6.960   2.077 130.477  0.00  0.00    +0.000 A 
ATOM      5  C   UNL     1      -7.281   0.713 130.371  0.00  0.00    +0.000 A 
ATOM      6  C   UNL     1      -8.365   0.209 131.110  0.00  0.00    +0.000 A 
ATOM      7  C   UNL     1      -9.188   1.035 131.897  0.00  0.00    +0.000 A 
ATOM      8  C   UNL     1      -8.843   2.383 131.961  0.00  0.00    +0.000 A 
ATOM      9  O   UNL     1      -9.484   3.369 132.671  0.00  0.00    +0.000 OA
ENDROOT
BRANCH   5  10
ATOM     10  C   UNL     1      -6.377  -0.163 129.546  0.00  0.00    +0.000 C 
ATOM     11  O   UNL     1      -5.571  -0.912 130.092  0.00  0.00    +0.000 OA
ATOM     12  N   UNL     1      -6.558  -0.163 128.174  0.00  0.00    +0.000 N 
ATOM     13  C   UNL     1      -6.770  -1.423 127.471  0.00  0.00    +0.000 C 
ATOM     14  C   UNL     1      -5.738  -1.640 126.382  0.00  0.00    +0.000 C 
ATOM     15  C   UNL     1      -5.659  -0.423 125.436  0.00  0.00    +0.000 C 
ATOM     16  C   UNL     1      -5.388   0.851 126.249  0.00  0.00    +0.000 C 
ATOM     17  C   UNL     1      -6.384   1.048 127.379  0.00  0.00    +0.000 C 
BRANCH  15  18
ATOM     18  N   UNL     1      -6.811  -0.358 124.475  0.00  0.00    +0.000 N 
ATOM     19  C   UNL     1      -7.211   0.799 123.803  0.00  0.00    +0.000 C 
ATOM     20  O   UNL     1      -6.512   1.608 123.205  0.00  0.00    +0.000 OA
ATOM     21  O   UNL     1      -8.537   1.052 123.916  0.00  0.00    +0.000 OA
ATOM     22  C   UNL     1      -9.278   0.094 123.194  0.00  0.00    +0.000 C 
ATOM     23  C   UNL     1      -8.856  -1.292 123.565  0.00  0.00    +0.000 A 
ATOM     24  C   UNL     1      -9.679  -2.364 123.213  0.00  0.00    +0.000 A 
ATOM     25  C   UNL     1      -9.292  -3.659 123.522  0.00  0.00    +0.000 A 
ATOM     26  C   UNL     1      -8.082  -3.884 124.173  0.00  0.00    +0.000 A 
ATOM     27  C   UNL     1      -7.253  -2.814 124.528  0.00  0.00    +0.000 A 
ATOM     28  C   UNL     1      -7.634  -1.503 124.231  0.00  0.00    +0.000 A 
ENDBRANCH  15  18
ENDBRANCH   5  10
BRANCH   1  29
ATOM     29  C   UNL     1      -9.245   5.790 133.096  0.00  0.00    +0.000 C 
BRANCH  29  32
ATOM     30  O   UNL     1     -12.443   6.587 131.639  0.00  0.00    +0.000 OA
ATOM     31  C   UNL     1     -11.214   6.555 131.691  0.00  0.00    +0.000 C 
ATOM     32  N   UNL     1     -10.654   5.962 132.780  0.00  0.00    +0.000 N 
ATOM     33  H   UNL     1     -11.348   5.634 133.441  0.00  0.00    +0.000 HD
BRANCH  31  34
ATOM     34  C   UNL     1     -10.289   7.115 130.601  0.00  0.00    +0.000 C 
BRANCH  34  35
ATOM     35  N   UNL     1     -10.953   7.551 129.377  0.00  0.00    +0.000 N 
ATOM     36  C   UNL     1     -12.020   8.526 129.336  0.00  0.00    +0.000 C 
ATOM     37  C   UNL     1     -12.578   8.391 127.933  0.00  0.00    +0.000 C 
ATOM     38  C   UNL     1     -11.376   7.933 127.117  0.00  0.00    +0.000 C 
ATOM     39  C   UNL     1     -10.585   7.124 128.114  0.00  0.00    +0.000 C 
ATOM     40  O   UNL     1      -9.742   6.285 127.846  0.00  0.00    +0.000 OA
ENDBRANCH  34  35
ENDBRANCH  31  34
ENDBRANCH  29  32
ENDBRANCH   1  29
TORSDOF 6
ENDMDL
MODEL 5
REMARK VINA RESULT:      -9.8      3.711      8.811
REMARK  Name = CHEMBL417133
REMARK  6 active torsions:
REMARK  status: ('A' for Active; 'I' for Inactive)
REMARK    1  A    between atoms: C_2  and  C_3
REMARK    2  A    between atoms: C_3  and  N_4
REMARK    3  A    between atoms: N_10  and  C_11
REMARK    4  A    between atoms: C_11  and  C_12
REMARK    5  A    between atoms: C_16  and  C_17
REMARK    6  A    between atoms: C_22  and  N_23
REMARK                            x       y       z     vdW  Elec       q    Type
REMARK                         _______ _______ _______ _____ _____    ______ ____
ROOT
ATOM      1  C   UNL     1      -6.654  -2.629 126.004  0.00  0.00    +0.000 A 
ATOM      2  C   UNL     1      -5.784  -1.776 126.652  0.00  0.00    +0.000 A 
ATOM      3  C   UNL     1      -6.213  -1.679 127.992  0.00  0.00    +0.000 A 
ATOM      4  C   UNL     1      -5.745  -1.001 129.132  0.00  0.00    +0.000 A 
ATOM      5  C   UNL     1      -6.451  -1.109 130.342  0.00  0.00    +0.000 A 
ATOM      6  C   UNL     1      -7.633  -1.867 130.375  0.00  0.00    +0.000 A 
ATOM      7  C   UNL     1      -8.099  -2.584 129.257  0.00  0.00    +0.000 A 
ATOM      8  C   UNL     1      -7.360  -2.460 128.082  0.00  0.00    +0.000 A 
ATOM      9  O   UNL     1      -7.627  -3.049 126.871  0.00  0.00    +0.000 OA
ENDROOT
BRANCH   5  10
ATOM     10  C   UNL     1      -5.955  -0.317 131.522  0.00  0.00    +0.000 C 
ATOM     11  O   UNL     1      -5.699  -0.879 132.583  0.00  0.00    +0.000 OA
ATOM     12  N   UNL     1      -5.709   1.032 131.334  0.00  0.00    +0.000 N 
ATOM     13  C   UNL     1      -4.404   1.586 131.678  0.00  0.00    +0.000 C 
ATOM     14  C   UNL     1      -4.521   2.716 132.681  0.00  0.00    +0.000 C 
ATOM     15  C   UNL     1      -5.528   3.785 132.205  0.00  0.00    +0.000 C 
ATOM     16  C   UNL     1      -6.883   3.128 131.909  0.00  0.00    +0.000 C 
ATOM     17  C   UNL     1      -6.769   1.957 130.948  0.00  0.00    +0.000 C 
BRANCH  15  18
ATOM     18  N   UNL     1      -4.972   4.665 131.122  0.00  0.00    +0.000 N 
ATOM     19  C   UNL     1      -5.644   4.972 129.937  0.00  0.00    +0.000 C 
ATOM     20  O   UNL     1      -6.808   5.329 129.795  0.00  0.00    +0.000 OA
ATOM     21  O   UNL     1      -4.894   4.765 128.827  0.00  0.00    +0.000 OA
ATOM     22  C   UNL     1      -3.854   5.714 128.759  0.00  0.00    +0.000 C 
ATOM     23  C   UNL     1      -3.095   5.762 130.048  0.00  0.00    +0.000 A 
ATOM     24  C   UNL     1      -1.847   6.387 130.072  0.00  0.00    +0.000 A 
ATOM     25  C   UNL     1      -1.140   6.466 131.262  0.00  0.00    +0.000 A 
ATOM     26  C   UNL     1      -1.682   5.931 132.427  0.00  0.00    +0.000 A 
ATOM     27  C   UNL     1      -2.932   5.303 132.409  0.00  0.00    +0.000 A 
ATOM     28  C   UNL     1      -3.652   5.208 131.216  0.00  0.00    +0.000 A 
ENDBRANCH  15  18
ENDBRANCH   5  10
BRANCH   1  29
ATOM     29  C   UNL     1      -6.666  -3.111 124.596  0.00  0.00    +0.000 C 
BRANCH  29  32
ATOM     30  O   UNL     1     -10.015  -3.207 123.272  0.00  0.00    +0.000 OA
ATOM     31  C   UNL     1      -8.883  -2.748 123.419  0.00  0.00    +0.000 C 
ATOM     32  N   UNL     1      -8.040  -3.426 124.244  0.00  0.00    +0.000 N 
ATOM     33  H   UNL     1      -8.480  -4.237 124.663  0.00  0.00    +0.000 HD
BRANCH  31  34
ATOM     34  C   UNL     1      -8.365  -1.485 122.716  0.00  0.00    +0.000 C 
BRANCH  34  35
ATOM     35  N   UNL     1      -8.666  -0.224 123.387  0.00  0.00    +0.000 N 
ATOM     36  C   UNL     1      -7.780   0.428 124.324  0.00  0.00    +0.000 C 
ATOM     37  C   UNL     1      -8.654   1.485 124.971  0.00  0.00    +0.000 C 
ATOM     38  C   UNL     1      -9.663   1.823 123.882  0.00  0.00    +0.000 C 
ATOM     39  C   UNL     1      -9.809   0.516 123.144  0.00  0.00    +0.000 C 
ATOM     40  O   UNL     1     -10.743   0.200 122.427  0.00  0.00    +0.000 OA
ENDBRANCH  34  35
ENDBRANCH  31  34
ENDBRANCH  29  32
ENDBRANCH   1  29
TORSDOF 6
ENDMDL
MODEL 6
REMARK VINA RESULT:      -9.8      1.762      2.588
REMARK  Name = CHEMBL417133
REMARK  6 active torsions:
REMARK  status: ('A' for Active; 'I' for Inactive)
REMARK    1  A    between atoms: C_2  and  C_3
REMARK    2  A    between atoms: C_3  and  N_4
REMARK    3  A    between atoms: N_10  and  C_11
REMARK    4  A    between atoms: C_11  and  C_12
REMARK    5  A    between atoms: C_16  and  C_17
REMARK    6  A    between atoms: C_22  and  N_23
REMARK                            x       y       z     vdW  Elec       q    Type
REMARK                         _______ _______ _______ _____ _____    ______ ____
ROOT
ATOM      1  C   UNL     1      -8.694   4.350 132.476  0.00  0.00    +0.000 A 
ATOM      2  C   UNL     1      -7.599   4.133 131.666  0.00  0.00    +0.000 A 
ATOM      3  C   UNL     1      -7.625   2.777 131.280  0.00  0.00    +0.000 A 
ATOM      4  C   UNL     1      -6.816   1.968 130.461  0.00  0.00    +0.000 A 
ATOM      5  C   UNL     1      -7.128   0.607 130.308  0.00  0.00    +0.000 A 
ATOM      6  C   UNL     1      -8.223   0.076 131.008  0.00  0.00    +0.000 A 
ATOM      7  C   UNL     1      -9.068   0.874 131.803  0.00  0.00    +0.000 A 
ATOM      8  C   UNL     1      -8.730   2.222 131.914  0.00  0.00    +0.000 A 
ATOM      9  O   UNL     1      -9.391   3.182 132.640  0.00  0.00    +0.000 OA
ENDROOT
BRANCH   5  10
ATOM     10  C   UNL     1      -6.202  -0.240 129.477  0.00  0.00    +0.000 C 
ATOM     11  O   UNL     1      -5.161  -0.678 129.959  0.00  0.00    +0.000 OA
ATOM     12  N   UNL     1      -6.614  -0.581 128.200  0.00  0.00    +0.000 N 
ATOM     13  C   UNL     1      -6.645  -1.983 127.799  0.00  0.00    +0.000 C 
ATOM     14  C   UNL     1      -5.797  -2.235 126.568  0.00  0.00    +0.000 C 
ATOM     15  C   UNL     1      -6.171  -1.267 125.424  0.00  0.00    +0.000 C 
ATOM     16  C   UNL     1      -6.068   0.184 125.915  0.00  0.00    +0.000 C 
ATOM     17  C   UNL     1      -6.870   0.432 127.182  0.00  0.00    +0.000 C 
BRANCH  15  18
ATOM     18  N   UNL     1      -7.456  -1.642 124.743  0.00  0.00    +0.000 N 
ATOM     19  C   UNL     1      -8.002  -2.927 124.748  0.00  0.00    +0.000 C 
ATOM     20  O   UNL     1      -8.146  -3.686 125.700  0.00  0.00    +0.000 OA
ATOM     21  O   UNL     1      -8.336  -3.372 123.513  0.00  0.00    +0.000 OA
ATOM     22  C   UNL     1      -9.441  -2.650 123.017  0.00  0.00    +0.000 C 
ATOM     23  C   UNL     1      -9.203  -1.177 123.126  0.00  0.00    +0.000 A 
ATOM     24  C   UNL     1     -10.020  -0.307 122.402  0.00  0.00    +0.000 A 
ATOM     25  C   UNL     1      -9.834   1.063 122.511  0.00  0.00    +0.000 A 
ATOM     26  C   UNL     1      -8.841   1.563 123.349  0.00  0.00    +0.000 A 
ATOM     27  C   UNL     1      -8.019   0.696 124.077  0.00  0.00    +0.000 A 
ATOM     28  C   UNL     1      -8.188  -0.686 123.970  0.00  0.00    +0.000 A 
ENDBRANCH  15  18
ENDBRANCH   5  10
BRANCH   1  29
ATOM     29  C   UNL     1      -9.174   5.591 133.141  0.00  0.00    +0.000 C 
BRANCH  29  32
ATOM     30  O   UNL     1     -12.367   6.398 131.678  0.00  0.00    +0.000 OA
ATOM     31  C   UNL     1     -11.138   6.380 131.742  0.00  0.00    +0.000 C 
ATOM     32  N   UNL     1     -10.581   5.756 132.815  0.00  0.00    +0.000 N 
ATOM     33  H   UNL     1     -11.278   5.396 133.457  0.00  0.00    +0.000 HD
BRANCH  31  34
ATOM     34  C   UNL     1     -10.209   6.991 130.683  0.00  0.00    +0.000 C 
BRANCH  34  35
ATOM     35  N   UNL     1     -10.869   7.487 129.480  0.00  0.00    +0.000 N 
ATOM     36  C   UNL     1     -11.910   8.490 129.481  0.00  0.00    +0.000 C 
ATOM     37  C   UNL     1     -12.480   8.419 128.078  0.00  0.00    +0.000 C 
ATOM     38  C   UNL     1     -11.295   7.960 127.238  0.00  0.00    +0.000 C 
ATOM     39  C   UNL     1     -10.520   7.096 128.200  0.00  0.00    +0.000 C 
ATOM     40  O   UNL     1      -9.700   6.246 127.897  0.00  0.00    +0.000 OA
ENDBRANCH  34  35
ENDBRANCH  31  34
ENDBRANCH  29  32
ENDBRANCH   1  29
TORSDOF 6
ENDMDL
MODEL 7
REMARK VINA RESULT:      -9.7      8.179     12.243
REMARK  Name = CHEMBL417133
REMARK  6 active torsions:
REMARK  status: ('A' for Active; 'I' for Inactive)
REMARK    1  A    between atoms: C_2  and  C_3
REMARK    2  A    between atoms: C_3  and  N_4
REMARK    3  A    between atoms: N_10  and  C_11
REMARK    4  A    between atoms: C_11  and  C_12
REMARK    5  A    between atoms: C_16  and  C_17
REMARK    6  A    between atoms: C_22  and  N_23
REMARK                            x       y       z     vdW  Elec       q    Type
REMARK                         _______ _______ _______ _____ _____    ______ ____
ROOT
ATOM      1  C   UNL     1      -5.231   3.877 128.157  0.00  0.00    +0.000 A 
ATOM      2  C   UNL     1      -4.957   3.701 129.497  0.00  0.00    +0.000 A 
ATOM      3  C   UNL     1      -3.922   4.597 129.835  0.00  0.00    +0.000 A 
ATOM      4  C   UNL     1      -3.232   4.907 131.022  0.00  0.00    +0.000 A 
ATOM      5  C   UNL     1      -2.207   5.867 130.997  0.00  0.00    +0.000 A 
ATOM      6  C   UNL     1      -1.869   6.471 129.774  0.00  0.00    +0.000 A 
ATOM      7  C   UNL     1      -2.569   6.203 128.583  0.00  0.00    +0.000 A 
ATOM      8  C   UNL     1      -3.589   5.256 128.657  0.00  0.00    +0.000 A 
ATOM      9  O   UNL     1      -4.392   4.825 127.631  0.00  0.00    +0.000 OA
ENDROOT
BRANCH   5  10
ATOM     10  C   UNL     1      -1.450   6.124 132.272  0.00  0.00    +0.000 C 
ATOM     11  O   UNL     1      -0.918   5.196 132.876  0.00  0.00    +0.000 OA
ATOM     12  N   UNL     1      -1.294   7.439 132.674  0.00  0.00    +0.000 N 
ATOM     13  C   UNL     1       0.040   7.961 132.946  0.00  0.00    +0.000 C 
ATOM     14  C   UNL     1       0.152   8.512 134.354  0.00  0.00    +0.000 C 
ATOM     15  C   UNL     1      -0.970   9.531 134.647  0.00  0.00    +0.000 C 
ATOM     16  C   UNL     1      -2.339   8.889 134.381  0.00  0.00    +0.000 C 
ATOM     17  C   UNL     1      -2.442   8.283 132.991  0.00  0.00    +0.000 C 
BRANCH  15  18
ATOM     18  N   UNL     1      -0.730  10.863 133.996  0.00  0.00    +0.000 N 
ATOM     19  C   UNL     1      -1.663  11.527 133.197  0.00  0.00    +0.000 C 
ATOM     20  O   UNL     1      -2.853  11.716 133.419  0.00  0.00    +0.000 OA
ATOM     21  O   UNL     1      -1.157  11.932 132.008  0.00  0.00    +0.000 OA
ATOM     22  C   UNL     1      -0.231  12.977 132.204  0.00  0.00    +0.000 C 
ATOM     23  C   UNL     1       0.783  12.600 133.237  0.00  0.00    +0.000 A 
ATOM     24  C   UNL     1       1.956  13.350 133.336  0.00  0.00    +0.000 A 
ATOM     25  C   UNL     1       2.895  13.034 134.305  0.00  0.00    +0.000 A 
ATOM     26  C   UNL     1       2.660  11.977 135.180  0.00  0.00    +0.000 A 
ATOM     27  C   UNL     1       1.487  11.221 135.086  0.00  0.00    +0.000 A 
ATOM     28  C   UNL     1       0.535  11.522 134.108  0.00  0.00    +0.000 A 
ENDBRANCH  15  18
ENDBRANCH   5  10
BRANCH   1  29
ATOM     29  C   UNL     1      -6.239   3.221 127.281  0.00  0.00    +0.000 C 
BRANCH  29  32
ATOM     30  O   UNL     1      -8.789   5.344 125.877  0.00  0.00    +0.000 OA
ATOM     31  C   UNL     1      -7.905   4.487 125.849  0.00  0.00    +0.000 C 
ATOM     32  N   UNL     1      -7.302   4.180 127.028  0.00  0.00    +0.000 N 
ATOM     33  H   UNL     1      -7.655   4.735 127.799  0.00  0.00    +0.000 HD
BRANCH  31  34
ATOM     34  C   UNL     1      -7.469   3.738 124.582  0.00  0.00    +0.000 C 
BRANCH  34  35
ATOM     35  N   UNL     1      -8.316   2.615 124.194  0.00  0.00    +0.000 N 
ATOM     36  C   UNL     1      -8.636   1.502 125.060  0.00  0.00    +0.000 C 
ATOM     37  C   UNL     1      -9.243   0.478 124.122  0.00  0.00    +0.000 C 
ATOM     38  C   UNL     1      -9.872   1.330 123.027  0.00  0.00    +0.000 C 
ATOM     39  C   UNL     1      -8.959   2.528 122.972  0.00  0.00    +0.000 C 
ATOM     40  O   UNL     1      -8.852   3.304 122.037  0.00  0.00    +0.000 OA
ENDBRANCH  34  35
ENDBRANCH  31  34
ENDBRANCH  29  32
ENDBRANCH   1  29
TORSDOF 6
ENDMDL
MODEL 8
REMARK VINA RESULT:      -9.6      3.867      8.607
REMARK  Name = CHEMBL417133
REMARK  6 active torsions:
REMARK  status: ('A' for Active; 'I' for Inactive)
REMARK    1  A    between atoms: C_2  and  C_3
REMARK    2  A    between atoms: C_3  and  N_4
REMARK    3  A    between atoms: N_10  and  C_11
REMARK    4  A    between atoms: C_11  and  C_12
REMARK    5  A    between atoms: C_16  and  C_17
REMARK    6  A    between atoms: C_22  and  N_23
REMARK                            x       y       z     vdW  Elec       q    Type
REMARK                         _______ _______ _______ _____ _____    ______ ____
ROOT
ATOM      1  C   UNL     1      -8.172  -3.067 125.911  0.00  0.00    +0.000 A 
ATOM      2  C   UNL     1      -7.010  -2.481 126.367  0.00  0.00    +0.000 A 
ATOM      3  C   UNL     1      -7.017  -2.576 127.774  0.00  0.00    +0.000 A 
ATOM      4  C   UNL     1      -6.125  -2.195 128.794  0.00  0.00    +0.000 A 
ATOM      5  C   UNL     1      -6.468  -2.428 130.136  0.00  0.00    +0.000 A 
ATOM      6  C   UNL     1      -7.714  -3.005 130.431  0.00  0.00    +0.000 A 
ATOM      7  C   UNL     1      -8.605  -3.428 129.426  0.00  0.00    +0.000 A 
ATOM      8  C   UNL     1      -8.218  -3.192 128.109  0.00  0.00    +0.000 A 
ATOM      9  O   UNL     1      -8.923  -3.501 126.972  0.00  0.00    +0.000 OA
ENDROOT
BRANCH   5  10
ATOM     10  C   UNL     1      -5.519  -1.947 131.201  0.00  0.00    +0.000 C 
ATOM     11  O   UNL     1      -4.824  -2.748 131.821  0.00  0.00    +0.000 OA
ATOM     12  N   UNL     1      -5.390  -0.580 131.379  0.00  0.00    +0.000 N 
ATOM     13  C   UNL     1      -4.069   0.036 131.323  0.00  0.00    +0.000 C 
ATOM     14  C   UNL     1      -3.751   0.798 132.595  0.00  0.00    +0.000 C 
ATOM     15  C   UNL     1      -4.874   1.798 132.945  0.00  0.00    +0.000 C 
ATOM     16  C   UNL     1      -6.219   1.062 133.028  0.00  0.00    +0.000 C 
ATOM     17  C   UNL     1      -6.521   0.249 131.780  0.00  0.00    +0.000 C 
BRANCH  15  18
ATOM     18  N   UNL     1      -4.849   3.025 132.080  0.00  0.00    +0.000 N 
ATOM     19  C   UNL     1      -5.916   3.450 131.285  0.00  0.00    +0.000 C 
ATOM     20  O   UNL     1      -7.098   3.544 131.592  0.00  0.00    +0.000 OA
ATOM     21  O   UNL     1      -5.559   3.710 130.004  0.00  0.00    +0.000 OA
ATOM     22  C   UNL     1      -4.752   4.865 129.949  0.00  0.00    +0.000 C 
ATOM     23  C   UNL     1      -3.621   4.768 130.923  0.00  0.00    +0.000 A 
ATOM     24  C   UNL     1      -2.542   5.645 130.793  0.00  0.00    +0.000 A 
ATOM     25  C   UNL     1      -1.497   5.590 131.702  0.00  0.00    +0.000 A 
ATOM     26  C   UNL     1      -1.533   4.668 132.745  0.00  0.00    +0.000 A 
ATOM     27  C   UNL     1      -2.611   3.787 132.881  0.00  0.00    +0.000 A 
ATOM     28  C   UNL     1      -3.667   3.825 131.967  0.00  0.00    +0.000 A 
ENDBRANCH  15  18
ENDBRANCH   5  10
BRANCH   1  29
ATOM     29  C   UNL     1      -8.673  -3.271 124.525  0.00  0.00    +0.000 C 
BRANCH  29  32
ATOM     30  O   UNL     1      -6.457  -1.595 122.231  0.00  0.00    +0.000 OA
ATOM     31  C   UNL     1      -7.434  -1.693 122.974  0.00  0.00    +0.000 C 
ATOM     32  N   UNL     1      -7.615  -2.883 123.606  0.00  0.00    +0.000 N 
ATOM     33  H   UNL     1      -6.910  -3.566 123.355  0.00  0.00    +0.000 HD
BRANCH  31  34
ATOM     34  C   UNL     1      -8.431  -0.557 123.243  0.00  0.00    +0.000 C 
BRANCH  34  35
ATOM     35  N   UNL     1      -8.154   0.255 124.424  0.00  0.00    +0.000 N 
ATOM     36  C   UNL     1      -6.921   0.976 124.642  0.00  0.00    +0.000 C 
ATOM     37  C   UNL     1      -6.988   1.372 126.104  0.00  0.00    +0.000 C 
ATOM     38  C   UNL     1      -8.483   1.499 126.367  0.00  0.00    +0.000 C 
ATOM     39  C   UNL     1      -9.074   0.473 125.433  0.00  0.00    +0.000 C 
ATOM     40  O   UNL     1     -10.181  -0.029 125.530  0.00  0.00    +0.000 OA
ENDBRANCH  34  35
ENDBRANCH  31  34
ENDBRANCH  29  32
ENDBRANCH   1  29
TORSDOF 6
ENDMDL
MODEL 9
REMARK VINA RESULT:      -9.5      7.959     11.704
REMARK  Name = CHEMBL417133
REMARK  6 active torsions:
REMARK  status: ('A' for Active; 'I' for Inactive)
REMARK    1  A    between atoms: C_2  and  C_3
REMARK    2  A    between atoms: C_3  and  N_4
REMARK    3  A    between atoms: N_10  and  C_11
REMARK    4  A    between atoms: C_11  and  C_12
REMARK    5  A    between atoms: C_16  and  C_17
REMARK    6  A    between atoms: C_22  and  N_23
REMARK                            x       y       z     vdW  Elec       q    Type
REMARK                         _______ _______ _______ _____ _____    ______ ____
ROOT
ATOM      1  C   UNL     1      -6.169   4.379 128.842  0.00  0.00    +0.000 A 
ATOM      2  C   UNL     1      -5.795   4.263 130.165  0.00  0.00    +0.000 A 
ATOM      3  C   UNL     1      -4.576   4.955 130.319  0.00  0.00    +0.000 A 
ATOM      4  C   UNL     1      -3.719   5.217 131.404  0.00  0.00    +0.000 A 
ATOM      5  C   UNL     1      -2.535   5.943 131.192  0.00  0.00    +0.000 A 
ATOM      6  C   UNL     1      -2.217   6.362 129.889  0.00  0.00    +0.000 A 
ATOM      7  C   UNL     1      -3.077   6.144 128.797  0.00  0.00    +0.000 A 
ATOM      8  C   UNL     1      -4.247   5.433 129.055  0.00  0.00    +0.000 A 
ATOM      9  O   UNL     1      -5.223   5.090 128.152  0.00  0.00    +0.000 OA
ENDROOT
BRANCH   5  10
ATOM     10  C   UNL     1      -1.613   6.146 132.364  0.00  0.00    +0.000 C 
ATOM     11  O   UNL     1      -1.019   5.191 132.859  0.00  0.00    +0.000 OA
ATOM     12  N   UNL     1      -1.388   7.444 132.788  0.00  0.00    +0.000 N 
ATOM     13  C   UNL     1      -0.022   7.943 132.899  0.00  0.00    +0.000 C 
ATOM     14  C   UNL     1       0.283   8.440 134.299  0.00  0.00    +0.000 C 
ATOM     15  C   UNL     1      -0.777   9.458 134.774  0.00  0.00    +0.000 C 
ATOM     16  C   UNL     1      -2.177   8.838 134.668  0.00  0.00    +0.000 C 
ATOM     17  C   UNL     1      -2.471   8.286 133.283  0.00  0.00    +0.000 C 
BRANCH  15  18
ATOM     18  N   UNL     1      -0.606  10.811 134.144  0.00  0.00    +0.000 N 
ATOM     19  C   UNL     1      -1.592  11.461 133.400  0.00  0.00    +0.000 C 
ATOM     20  O   UNL     1      -2.778  11.607 133.676  0.00  0.00    +0.000 OA
ATOM     21  O   UNL     1      -1.150  11.909 132.200  0.00  0.00    +0.000 OA
ATOM     22  C   UNL     1      -0.250  12.979 132.382  0.00  0.00    +0.000 C 
ATOM     23  C   UNL     1       0.818  12.612 133.362  0.00  0.00    +0.000 A 
ATOM     24  C   UNL     1       1.970  13.397 133.430  0.00  0.00    +0.000 A 
ATOM     25  C   UNL     1       2.959  13.091 134.352  0.00  0.00    +0.000 A 
ATOM     26  C   UNL     1       2.794  12.008 135.211  0.00  0.00    +0.000 A 
ATOM     27  C   UNL     1       1.642  11.217 135.148  0.00  0.00    +0.000 A 
ATOM     28  C   UNL     1       0.641  11.508 134.218  0.00  0.00    +0.000 A 
ENDBRANCH  15  18
ENDBRANCH   5  10
BRANCH   1  29
ATOM     29  C   UNL     1      -7.372   3.872 128.129  0.00  0.00    +0.000 C 
BRANCH  29  32
ATOM     30  O   UNL     1      -9.936   3.360 130.607  0.00  0.00    +0.000 OA
ATOM     31  C   UNL     1      -9.273   4.013 129.801  0.00  0.00    +0.000 C 
ATOM     32  N   UNL     1      -8.296   3.353 129.124  0.00  0.00    +0.000 N 
ATOM     33  H   UNL     1      -8.224   2.380 129.399  0.00  0.00    +0.000 HD
BRANCH  31  34
ATOM     34  C   UNL     1      -9.500   5.502 129.502  0.00  0.00    +0.000 C 
BRANCH  34  35
ATOM     35  N   UNL     1     -10.702   6.084 130.089  0.00  0.00    +0.000 N 
ATOM     36  C   UNL     1     -11.966   6.206 129.398  0.00  0.00    +0.000 C 
ATOM     37  C   UNL     1     -12.769   7.142 130.278  0.00  0.00    +0.000 C 
ATOM     38  C   UNL     1     -12.217   6.879 131.673  0.00  0.00    +0.000 C 
ATOM     39  C   UNL     1     -10.777   6.524 131.398  0.00  0.00    +0.000 C 
ATOM     40  O   UNL     1      -9.863   6.571 132.204  0.00  0.00    +0.000 OA
ENDBRANCH  34  35
ENDBRANCH  31  34
ENDBRANCH  29  32
ENDBRANCH   1  29
TORSDOF 6
ENDMDL
