MODEL 1
REMARK VINA RESULT:      -8.7      0.000      0.000
REMARK  Name = CHEMBL582857
REMARK  14 active torsions:
REMARK  status: ('A' for Active; 'I' for Inactive)
REMARK    1  A    between atoms: C_1  and  O_2
REMARK    2  A    between atoms: O_2  and  C_3
REMARK    3  A    between atoms: C_6  and  S_7
REMARK    4  A    between atoms: S_7  and  N_10
REMARK    5  A    between atoms: C_13  and  C_14
REMARK    6  A    between atoms: C_13  and  N_22
REMARK    7  A    between atoms: C_19  and  O_20
REMARK    8  A    between atoms: O_20  and  C_21
REMARK    9  A    between atoms: C_24  and  O_25
REMARK   10  A    between atoms: C_27  and  C_28
REMARK   11  A    between atoms: N_30  and  C_31
REMARK   12  A    between atoms: N_30  and  C_32
REMARK   13  A    between atoms: C_40  and  O_41
REMARK   14  A    between atoms: O_41  and  C_42
REMARK                            x       y       z     vdW  Elec       q    Type
REMARK                         _______ _______ _______ _____ _____    ______ ____
ROOT
ATOM      1  N   UNL     1      -8.931   1.887 127.956  0.00  0.00    +0.000 N 
ATOM      2  C   UNL     1      -7.638   2.388 127.922  0.00  0.00    +0.000 C 
ATOM      3  O   UNL     1      -7.518   3.643 128.022  0.00  0.00    +0.000 OA
ATOM      4  C   UNL     1      -6.748   1.401 127.175  0.00  0.00    +0.000 C 
ATOM      5  C   UNL     1      -7.176   1.637 125.800  0.00  0.00    +0.000 A 
ATOM      6  C   UNL     1      -6.253   1.724 124.515  0.00  0.00    +0.000 A 
ATOM      7  C   UNL     1      -6.801   2.286 123.359  0.00  0.00    +0.000 A 
ATOM      8 CL   UNL     1      -6.029   3.786 122.639  0.00  0.00    +0.000 Cl
ATOM      9  C   UNL     1      -8.213   2.257 123.395  0.00  0.00    +0.000 A 
ATOM     10  C   UNL     1      -9.085   1.974 124.727  0.00  0.00    +0.000 A 
ATOM     11  C   UNL     1      -8.573   1.975 126.100  0.00  0.00    +0.000 A 
ENDROOT
BRANCH   4  12
ATOM     12  C   UNL     1      -5.421   2.012 127.383  0.00  0.00    +0.000 A 
ATOM     13  C   UNL     1      -4.719   2.317 126.214  0.00  0.00    +0.000 A 
ATOM     14  C   UNL     1      -3.463   2.850 126.273  0.00  0.00    +0.000 A 
ATOM     15  C   UNL     1      -3.028   3.297 127.508  0.00  0.00    +0.000 A 
ATOM     16  C   UNL     1      -3.719   2.974 128.693  0.00  0.00    +0.000 A 
ATOM     17  C   UNL     1      -4.836   2.151 128.684  0.00  0.00    +0.000 A 
BRANCH  17  18
ATOM     18  O   UNL     1      -5.200   1.709 129.964  0.00  0.00    +0.000 OA
ATOM     19  C   UNL     1      -4.509   1.662 131.230  0.00  0.00    +0.000 C 
ENDBRANCH  17  18
ENDBRANCH   4  12
BRANCH   4  20
ATOM     20  N   UNL     1      -7.118  -0.091 127.368  0.00  0.00    +0.000 NA
ATOM     21  C   UNL     1      -6.876  -0.746 128.732  0.00  0.00    +0.000 C 
ATOM     22  C   UNL     1      -5.648  -1.664 128.637  0.00  0.00    +0.000 C 
ATOM     23  C   UNL     1      -5.855  -2.197 127.236  0.00  0.00    +0.000 C 
ATOM     24  C   UNL     1      -6.534  -1.070 126.409  0.00  0.00    +0.000 C 
BRANCH  24  25
ATOM     25  C   UNL     1      -7.692  -1.555 125.509  0.00  0.00    +0.000 C 
ATOM     26  O   UNL     1      -8.837  -1.641 125.962  0.00  0.00    +0.000 OA
ATOM     27  N   UNL     1      -7.469  -1.727 124.140  0.00  0.00    +0.000 N 
ATOM     28  C   UNL     1      -6.038  -1.832 123.619  0.00  0.00    +0.000 C 
ATOM     29  C   UNL     1      -8.786  -1.588 123.294  0.00  0.00    +0.000 C 
ENDBRANCH  24  25
BRANCH  22  30
ATOM     30  O   UNL     1      -4.349  -1.118 128.842  0.00  0.00    +0.000 OA
ATOM     31  H   UNL     1      -4.228  -0.895 129.788  0.00  0.00    +0.000 HD
ENDBRANCH  22  30
ENDBRANCH   4  20
BRANCH   1  32
ATOM     32  S   UNL     1      -9.075   2.847 129.946  0.00  0.00    +0.000 S 
ATOM     33  O   UNL     1      -8.987   1.657 130.766  0.00  0.00    +0.000 OA
ATOM     34  O   UNL     1     -10.241   3.722 130.044  0.00  0.00    +0.000 OA
BRANCH  32  38
ATOM     35  C   UNL     1      -6.021   5.621 133.273  0.00  0.00    +0.000 A 
ATOM     36  C   UNL     1      -6.642   4.424 133.587  0.00  0.00    +0.000 A 
ATOM     37  C   UNL     1      -7.454   3.619 132.595  0.00  0.00    +0.000 A 
ATOM     38  C   UNL     1      -7.795   4.043 131.257  0.00  0.00    +0.000 A 
ATOM     39  C   UNL     1      -7.399   5.368 131.151  0.00  0.00    +0.000 A 
ATOM     40  C   UNL     1      -6.390   6.063 132.042  0.00  0.00    +0.000 A 
BRANCH  35  42
ATOM     41  C   UNL     1      -3.799   6.527 133.583  0.00  0.00    +0.000 C 
ATOM     42  O   UNL     1      -5.120   6.240 134.099  0.00  0.00    +0.000 OA
ENDBRANCH  35  42
BRANCH  39  43
ATOM     43  O   UNL     1      -7.951   6.063 130.143  0.00  0.00    +0.000 OA
ATOM     44  C   UNL     1      -8.884   6.950 130.669  0.00  0.00    +0.000 C 
ENDBRANCH  39  43
ENDBRANCH  32  38
ENDBRANCH   1  32
TORSDOF 9
ENDMDL
MODEL 2
REMARK VINA RESULT:      -7.9      3.109      7.831
REMARK  Name = CHEMBL582857
REMARK  14 active torsions:
REMARK  status: ('A' for Active; 'I' for Inactive)
REMARK    1  A    between atoms: C_1  and  O_2
REMARK    2  A    between atoms: O_2  and  C_3
REMARK    3  A    between atoms: C_6  and  S_7
REMARK    4  A    between atoms: S_7  and  N_10
REMARK    5  A    between atoms: C_13  and  C_14
REMARK    6  A    between atoms: C_13  and  N_22
REMARK    7  A    between atoms: C_19  and  O_20
REMARK    8  A    between atoms: O_20  and  C_21
REMARK    9  A    between atoms: C_24  and  O_25
REMARK   10  A    between atoms: C_27  and  C_28
REMARK   11  A    between atoms: N_30  and  C_31
REMARK   12  A    between atoms: N_30  and  C_32
REMARK   13  A    between atoms: C_40  and  O_41
REMARK   14  A    between atoms: O_41  and  C_42
REMARK                            x       y       z     vdW  Elec       q    Type
REMARK                         _______ _______ _______ _____ _____    ______ ____
ROOT
ATOM      1  N   UNL     1      -7.743   3.761 127.247  0.00  0.00    +0.000 N 
ATOM      2  C   UNL     1      -7.365   2.683 128.035  0.00  0.00    +0.000 C 
ATOM      3  O   UNL     1      -8.218   1.760 128.171  0.00  0.00    +0.000 OA
ATOM      4  C   UNL     1      -6.292   3.143 129.015  0.00  0.00    +0.000 C 
ATOM      5  C   UNL     1      -7.097   3.911 129.959  0.00  0.00    +0.000 A 
ATOM      6  C   UNL     1      -6.964   3.922 131.537  0.00  0.00    +0.000 A 
ATOM      7  C   UNL     1      -8.029   4.446 132.275  0.00  0.00    +0.000 A 
ATOM      8 CL   UNL     1      -8.903   3.371 133.476  0.00  0.00    +0.000 Cl
ATOM      9  C   UNL     1      -8.835   5.292 131.481  0.00  0.00    +0.000 A 
ATOM     10  C   UNL     1      -8.777   5.353 129.866  0.00  0.00    +0.000 A 
ATOM     11  C   UNL     1      -8.101   4.385 128.998  0.00  0.00    +0.000 A 
ENDROOT
BRANCH   4  12
ATOM     12  C   UNL     1      -5.911   1.858 129.632  0.00  0.00    +0.000 A 
ATOM     13  C   UNL     1      -4.670   1.355 129.233  0.00  0.00    +0.000 A 
ATOM     14  C   UNL     1      -4.220   0.154 129.703  0.00  0.00    +0.000 A 
ATOM     15  C   UNL     1      -4.916  -0.408 130.758  0.00  0.00    +0.000 A 
ATOM     16  C   UNL     1      -6.178   0.081 131.151  0.00  0.00    +0.000 A 
ATOM     17  C   UNL     1      -6.805   1.113 130.467  0.00  0.00    +0.000 A 
BRANCH  17  18
ATOM     18  O   UNL     1      -8.156   1.256 130.811  0.00  0.00    +0.000 OA
ATOM     19  C   UNL     1      -9.076   0.444 131.573  0.00  0.00    +0.000 C 
ENDBRANCH  17  18
ENDBRANCH   4  12
BRANCH   4  20
ATOM     20  N   UNL     1      -5.328   4.227 128.470  0.00  0.00    +0.000 NA
ATOM     21  C   UNL     1      -4.981   4.231 126.978  0.00  0.00    +0.000 C 
ATOM     22  C   UNL     1      -3.553   3.696 126.793  0.00  0.00    +0.000 C 
ATOM     23  C   UNL     1      -2.911   4.298 128.024  0.00  0.00    +0.000 C 
ATOM     24  C   UNL     1      -3.999   4.355 129.132  0.00  0.00    +0.000 C 
BRANCH  24  25
ATOM     25  C   UNL     1      -4.024   5.679 129.927  0.00  0.00    +0.000 C 
ATOM     26  O   UNL     1      -4.569   6.680 129.451  0.00  0.00    +0.000 OA
ATOM     27  N   UNL     1      -3.583   5.690 131.253  0.00  0.00    +0.000 N 
ATOM     28  C   UNL     1      -2.726   4.537 131.769  0.00  0.00    +0.000 C 
ATOM     29  C   UNL     1      -4.231   6.848 132.093  0.00  0.00    +0.000 C 
ENDBRANCH  24  25
BRANCH  22  30
ATOM     30  O   UNL     1      -3.341   2.293 126.681  0.00  0.00    +0.000 OA
ATOM     31  H   UNL     1      -3.226   1.902 127.572  0.00  0.00    +0.000 HD
ENDBRANCH  22  30
ENDBRANCH   4  20
BRANCH   1  32
ATOM     32  S   UNL     1      -8.016   2.274 125.631  0.00  0.00    +0.000 S 
ATOM     33  O   UNL     1      -7.282   2.955 124.585  0.00  0.00    +0.000 OA
ATOM     34  O   UNL     1      -9.424   1.934 125.437  0.00  0.00    +0.000 OA
BRANCH  32  38
ATOM     35  C   UNL     1      -5.979  -2.482 124.480  0.00  0.00    +0.000 A 
ATOM     36  C   UNL     1      -5.426  -1.585 125.379  0.00  0.00    +0.000 A 
ATOM     37  C   UNL     1      -6.066  -0.262 125.739  0.00  0.00    +0.000 A 
ATOM     38  C   UNL     1      -7.243   0.294 125.111  0.00  0.00    +0.000 A 
ATOM     39  C   UNL     1      -7.532  -0.521 124.026  0.00  0.00    +0.000 A 
ATOM     40  C   UNL     1      -7.046  -1.942 123.834  0.00  0.00    +0.000 A 
BRANCH  35  42
ATOM     41  C   UNL     1      -4.302  -3.959 123.551  0.00  0.00    +0.000 C 
ATOM     42  O   UNL     1      -5.516  -3.761 124.312  0.00  0.00    +0.000 OA
ENDBRANCH  35  42
BRANCH  39  43
ATOM     43  O   UNL     1      -8.342   0.012 123.096  0.00  0.00    +0.000 OA
ATOM     44  C   UNL     1      -9.385  -0.873 122.852  0.00  0.00    +0.000 C 
ENDBRANCH  39  43
ENDBRANCH  32  38
ENDBRANCH   1  32
TORSDOF 9
ENDMDL
MODEL 3
REMARK VINA RESULT:      -7.9      3.007      7.720
REMARK  Name = CHEMBL582857
REMARK  14 active torsions:
REMARK  status: ('A' for Active; 'I' for Inactive)
REMARK    1  A    between atoms: C_1  and  O_2
REMARK    2  A    between atoms: O_2  and  C_3
REMARK    3  A    between atoms: C_6  and  S_7
REMARK    4  A    between atoms: S_7  and  N_10
REMARK    5  A    between atoms: C_13  and  C_14
REMARK    6  A    between atoms: C_13  and  N_22
REMARK    7  A    between atoms: C_19  and  O_20
REMARK    8  A    between atoms: O_20  and  C_21
REMARK    9  A    between atoms: C_24  and  O_25
REMARK   10  A    between atoms: C_27  and  C_28
REMARK   11  A    between atoms: N_30  and  C_31
REMARK   12  A    between atoms: N_30  and  C_32
REMARK   13  A    between atoms: C_40  and  O_41
REMARK   14  A    between atoms: O_41  and  C_42
REMARK                            x       y       z     vdW  Elec       q    Type
REMARK                         _______ _______ _______ _____ _____    ______ ____
ROOT
ATOM      1  N   UNL     1      -7.301   4.598 128.054  0.00  0.00    +0.000 N 
ATOM      2  C   UNL     1      -7.648   3.352 128.558  0.00  0.00    +0.000 C 
ATOM      3  O   UNL     1      -8.841   2.980 128.368  0.00  0.00    +0.000 OA
ATOM      4  C   UNL     1      -6.717   3.015 129.718  0.00  0.00    +0.000 C 
ATOM      5  C   UNL     1      -7.247   3.895 130.755  0.00  0.00    +0.000 A 
ATOM      6  C   UNL     1      -7.459   3.545 132.285  0.00  0.00    +0.000 A 
ATOM      7  C   UNL     1      -8.281   4.388 133.036  0.00  0.00    +0.000 A 
ATOM      8 CL   UNL     1      -9.788   3.703 133.826  0.00  0.00    +0.000 Cl
ATOM      9  C   UNL     1      -8.409   5.656 132.426  0.00  0.00    +0.000 A 
ATOM     10  C   UNL     1      -7.991   5.977 130.897  0.00  0.00    +0.000 A 
ATOM     11  C   UNL     1      -7.684   4.980 129.867  0.00  0.00    +0.000 A 
ENDROOT
BRANCH   4  12
ATOM     12  C   UNL     1      -7.123   1.625 130.004  0.00  0.00    +0.000 A 
ATOM     13  C   UNL     1      -7.776   1.438 131.224  0.00  0.00    +0.000 A 
ATOM     14  C   UNL     1      -8.168   0.192 131.623  0.00  0.00    +0.000 A 
ATOM     15  C   UNL     1      -8.114  -0.815 130.676  0.00  0.00    +0.000 A 
ATOM     16  C   UNL     1      -7.438  -0.641 129.453  0.00  0.00    +0.000 A 
ATOM     17  C   UNL     1      -6.750   0.529 129.161  0.00  0.00    +0.000 A 
BRANCH  17  18
ATOM     18  O   UNL     1      -5.906   0.404 128.048  0.00  0.00    +0.000 OA
ATOM     19  C   UNL     1      -5.487  -0.719 127.242  0.00  0.00    +0.000 C 
ENDBRANCH  17  18
ENDBRANCH   4  12
BRANCH   4  20
ATOM     20  N   UNL     1      -5.268   3.542 129.569  0.00  0.00    +0.000 NA
ATOM     21  C   UNL     1      -4.846   4.197 128.250  0.00  0.00    +0.000 C 
ATOM     22  C   UNL     1      -3.954   3.222 127.467  0.00  0.00    +0.000 C 
ATOM     23  C   UNL     1      -3.197   2.608 128.625  0.00  0.00    +0.000 C 
ATOM     24  C   UNL     1      -4.160   2.583 129.845  0.00  0.00    +0.000 C 
BRANCH  24  25
ATOM     25  C   UNL     1      -3.510   3.025 131.174  0.00  0.00    +0.000 C 
ATOM     26  O   UNL     1      -2.975   4.134 131.266  0.00  0.00    +0.000 OA
ATOM     27  N   UNL     1      -3.684   2.238 132.316  0.00  0.00    +0.000 N 
ATOM     28  C   UNL     1      -4.147   0.792 132.169  0.00  0.00    +0.000 C 
ATOM     29  C   UNL     1      -3.551   3.068 133.643  0.00  0.00    +0.000 C 
ENDBRANCH  24  25
BRANCH  22  30
ATOM     30  O   UNL     1      -4.555   2.253 126.615  0.00  0.00    +0.000 OA
ATOM     31  H   UNL     1      -5.068   1.614 127.151  0.00  0.00    +0.000 HD
ENDBRANCH  22  30
ENDBRANCH   4  20
BRANCH   1  32
ATOM     32  S   UNL     1      -7.894   3.782 126.083  0.00  0.00    +0.000 S 
ATOM     33  O   UNL     1      -6.604   3.844 125.428  0.00  0.00    +0.000 OA
ATOM     34  O   UNL     1      -9.038   4.495 125.521  0.00  0.00    +0.000 OA
BRANCH  32  38
ATOM     35  C   UNL     1      -9.143  -1.015 124.206  0.00  0.00    +0.000 A 
ATOM     36  C   UNL     1      -9.002  -0.707 125.548  0.00  0.00    +0.000 A 
ATOM     37  C   UNL     1      -8.711   0.687 126.060  0.00  0.00    +0.000 A 
ATOM     38  C   UNL     1      -8.415   1.834 125.232  0.00  0.00    +0.000 A 
ATOM     39  C   UNL     1      -8.273   1.359 123.937  0.00  0.00    +0.000 A 
ATOM     40  C   UNL     1      -8.800   0.038 123.418  0.00  0.00    +0.000 A 
BRANCH  35  42
ATOM     41  C   UNL     1      -8.903  -3.422 124.145  0.00  0.00    +0.000 C 
ATOM     42  O   UNL     1      -9.610  -2.222 123.755  0.00  0.00    +0.000 OA
ENDBRANCH  35  42
BRANCH  39  43
ATOM     43  O   UNL     1      -7.635   2.176 123.083  0.00  0.00    +0.000 OA
ATOM     44  C   UNL     1      -8.580   2.903 122.369  0.00  0.00    +0.000 C 
ENDBRANCH  39  43
ENDBRANCH  32  38
ENDBRANCH   1  32
TORSDOF 9
ENDMDL
MODEL 4
REMARK VINA RESULT:      -7.8      3.038      8.277
REMARK  Name = CHEMBL582857
REMARK  14 active torsions:
REMARK  status: ('A' for Active; 'I' for Inactive)
REMARK    1  A    between atoms: C_1  and  O_2
REMARK    2  A    between atoms: O_2  and  C_3
REMARK    3  A    between atoms: C_6  and  S_7
REMARK    4  A    between atoms: S_7  and  N_10
REMARK    5  A    between atoms: C_13  and  C_14
REMARK    6  A    between atoms: C_13  and  N_22
REMARK    7  A    between atoms: C_19  and  O_20
REMARK    8  A    between atoms: O_20  and  C_21
REMARK    9  A    between atoms: C_24  and  O_25
REMARK   10  A    between atoms: C_27  and  C_28
REMARK   11  A    between atoms: N_30  and  C_31
REMARK   12  A    between atoms: N_30  and  C_32
REMARK   13  A    between atoms: C_40  and  O_41
REMARK   14  A    between atoms: O_41  and  C_42
REMARK                            x       y       z     vdW  Elec       q    Type
REMARK                         _______ _______ _______ _____ _____    ______ ____
ROOT
ATOM      1  N   UNL     1      -5.401  -0.275 131.502  0.00  0.00    +0.000 N 
ATOM      2  C   UNL     1      -5.727   0.543 130.429  0.00  0.00    +0.000 C 
ATOM      3  O   UNL     1      -5.061   0.370 129.368  0.00  0.00    +0.000 OA
ATOM      4  C   UNL     1      -6.357   1.824 130.962  0.00  0.00    +0.000 C 
ATOM      5  C   UNL     1      -5.180   2.508 131.487  0.00  0.00    +0.000 A 
ATOM      6  C   UNL     1      -4.838   4.049 131.365  0.00  0.00    +0.000 A 
ATOM      7  C   UNL     1      -3.525   4.447 131.630  0.00  0.00    +0.000 A 
ATOM      8 CL   UNL     1      -2.554   5.273 130.311  0.00  0.00    +0.000 Cl
ATOM      9  C   UNL     1      -2.844   3.481 132.404  0.00  0.00    +0.000 A 
ATOM     10  C   UNL     1      -3.362   1.967 132.633  0.00  0.00    +0.000 A 
ATOM     11  C   UNL     1      -4.433   1.306 131.881  0.00  0.00    +0.000 A 
ENDROOT
BRANCH   4  12
ATOM     12  C   UNL     1      -6.775   2.472 129.703  0.00  0.00    +0.000 A 
ATOM     13  C   UNL     1      -6.307   1.858 128.537  0.00  0.00    +0.000 A 
ATOM     14  C   UNL     1      -6.592   2.384 127.310  0.00  0.00    +0.000 A 
ATOM     15  C   UNL     1      -7.549   3.382 127.260  0.00  0.00    +0.000 A 
ATOM     16  C   UNL     1      -8.008   4.020 128.430  0.00  0.00    +0.000 A 
ATOM     17  C   UNL     1      -7.486   3.715 129.679  0.00  0.00    +0.000 A 
BRANCH  17  18
ATOM     18  O   UNL     1      -7.845   4.646 130.664  0.00  0.00    +0.000 OA
ATOM     19  C   UNL     1      -8.526   5.919 130.623  0.00  0.00    +0.000 C 
ENDBRANCH  17  18
ENDBRANCH   4  12
BRANCH   4  20
ATOM     20  N   UNL     1      -7.217   1.650 132.239  0.00  0.00    +0.000 NA
ATOM     21  C   UNL     1      -8.588   0.975 132.126  0.00  0.00    +0.000 C 
ATOM     22  C   UNL     1      -9.685   2.045 132.236  0.00  0.00    +0.000 C 
ATOM     23  C   UNL     1      -9.037   2.946 133.265  0.00  0.00    +0.000 C 
ATOM     24  C   UNL     1      -7.501   2.872 133.044  0.00  0.00    +0.000 C 
BRANCH  24  25
ATOM     25  C   UNL     1      -6.679   2.747 134.346  0.00  0.00    +0.000 C 
ATOM     26  O   UNL     1      -6.411   1.634 134.807  0.00  0.00    +0.000 OA
ATOM     27  N   UNL     1      -6.096   3.890 134.899  0.00  0.00    +0.000 N 
ATOM     28  C   UNL     1      -6.589   5.269 134.469  0.00  0.00    +0.000 C 
ATOM     29  C   UNL     1      -4.834   3.558 135.774  0.00  0.00    +0.000 C 
ENDBRANCH  24  25
BRANCH  22  30
ATOM     30  O   UNL     1     -10.102   2.741 131.066  0.00  0.00    +0.000 OA
ATOM     31  H   UNL     1     -10.470   2.107 130.417  0.00  0.00    +0.000 HD
ENDBRANCH  22  30
ENDBRANCH   4  20
BRANCH   1  32
ATOM     32  S   UNL     1      -5.901  -1.960 130.156  0.00  0.00    +0.000 S 
ATOM     33  O   UNL     1      -6.820  -2.665 131.026  0.00  0.00    +0.000 OA
ATOM     34  O   UNL     1      -4.703  -2.631 129.657  0.00  0.00    +0.000 OA
BRANCH  32  38
ATOM     35  C   UNL     1      -8.884  -2.914 125.881  0.00  0.00    +0.000 A 
ATOM     36  C   UNL     1      -8.986  -3.598 127.080  0.00  0.00    +0.000 A 
ATOM     37  C   UNL     1      -8.167  -3.260 128.307  0.00  0.00    +0.000 A 
ATOM     38  C   UNL     1      -7.099  -2.288 128.355  0.00  0.00    +0.000 A 
ATOM     39  C   UNL     1      -6.870  -1.890 127.046  0.00  0.00    +0.000 A 
ATOM     40  C   UNL     1      -7.839  -2.046 125.893  0.00  0.00    +0.000 A 
BRANCH  35  42
ATOM     41  C   UNL     1      -9.239  -3.124 123.496  0.00  0.00    +0.000 C 
ATOM     42  O   UNL     1      -9.765  -3.078 124.843  0.00  0.00    +0.000 OA
ENDBRANCH  35  42
BRANCH  39  43
ATOM     43  O   UNL     1      -5.691  -1.289 126.817  0.00  0.00    +0.000 OA
ATOM     44  C   UNL     1      -5.646  -0.882 125.489  0.00  0.00    +0.000 C 
ENDBRANCH  39  43
ENDBRANCH  32  38
ENDBRANCH   1  32
TORSDOF 9
ENDMDL
MODEL 5
REMARK VINA RESULT:      -7.8      2.991      8.207
REMARK  Name = CHEMBL582857
REMARK  14 active torsions:
REMARK  status: ('A' for Active; 'I' for Inactive)
REMARK    1  A    between atoms: C_1  and  O_2
REMARK    2  A    between atoms: O_2  and  C_3
REMARK    3  A    between atoms: C_6  and  S_7
REMARK    4  A    between atoms: S_7  and  N_10
REMARK    5  A    between atoms: C_13  and  C_14
REMARK    6  A    between atoms: C_13  and  N_22
REMARK    7  A    between atoms: C_19  and  O_20
REMARK    8  A    between atoms: O_20  and  C_21
REMARK    9  A    between atoms: C_24  and  O_25
REMARK   10  A    between atoms: C_27  and  C_28
REMARK   11  A    between atoms: N_30  and  C_31
REMARK   12  A    between atoms: N_30  and  C_32
REMARK   13  A    between atoms: C_40  and  O_41
REMARK   14  A    between atoms: O_41  and  C_42
REMARK                            x       y       z     vdW  Elec       q    Type
REMARK                         _______ _______ _______ _____ _____    ______ ____
ROOT
ATOM      1  N   UNL     1      -5.266  -0.056 131.183  0.00  0.00    +0.000 N 
ATOM      2  C   UNL     1      -5.242   0.766 130.065  0.00  0.00    +0.000 C 
ATOM      3  O   UNL     1      -4.314   0.557 129.233  0.00  0.00    +0.000 OA
ATOM      4  C   UNL     1      -5.942   2.077 130.405  0.00  0.00    +0.000 C 
ATOM      5  C   UNL     1      -4.931   2.715 131.243  0.00  0.00    +0.000 A 
ATOM      6  C   UNL     1      -4.503   4.239 131.228  0.00  0.00    +0.000 A 
ATOM      7  C   UNL     1      -3.301   4.583 131.852  0.00  0.00    +0.000 A 
ATOM      8 CL   UNL     1      -1.965   5.357 130.862  0.00  0.00    +0.000 Cl
ATOM      9  C   UNL     1      -2.907   3.595 132.782  0.00  0.00    +0.000 A 
ATOM     10  C   UNL     1      -3.533   2.106 132.851  0.00  0.00    +0.000 A 
ATOM     11  C   UNL     1      -4.377   1.486 131.825  0.00  0.00    +0.000 A 
ENDROOT
BRANCH   4  12
ATOM     12  C   UNL     1      -5.961   2.732 129.083  0.00  0.00    +0.000 A 
ATOM     13  C   UNL     1      -5.282   3.951 129.015  0.00  0.00    +0.000 A 
ATOM     14  C   UNL     1      -5.259   4.674 127.857  0.00  0.00    +0.000 A 
ATOM     15  C   UNL     1      -5.715   4.042 126.713  0.00  0.00    +0.000 A 
ATOM     16  C   UNL     1      -6.420   2.824 126.777  0.00  0.00    +0.000 A 
ATOM     17  C   UNL     1      -6.737   2.227 127.989  0.00  0.00    +0.000 A 
BRANCH  17  18
ATOM     18  O   UNL     1      -7.682   1.200 127.862  0.00  0.00    +0.000 OA
ATOM     19  C   UNL     1      -8.636   0.852 126.836  0.00  0.00    +0.000 C 
ENDBRANCH  17  18
ENDBRANCH   4  12
BRANCH   4  20
ATOM     20  N   UNL     1      -7.132   1.949 131.389  0.00  0.00    +0.000 NA
ATOM     21  C   UNL     1      -8.435   1.310 130.901  0.00  0.00    +0.000 C 
ATOM     22  C   UNL     1      -9.485   2.411 130.686  0.00  0.00    +0.000 C 
ATOM     23  C   UNL     1      -9.127   3.312 131.847  0.00  0.00    +0.000 C 
ATOM     24  C   UNL     1      -7.593   3.193 132.070  0.00  0.00    +0.000 C 
BRANCH  24  25
ATOM     25  C   UNL     1      -7.176   3.069 133.552  0.00  0.00    +0.000 C 
ATOM     26  O   UNL     1      -7.137   1.962 134.097  0.00  0.00    +0.000 OA
ATOM     27  N   UNL     1      -6.677   4.192 134.218  0.00  0.00    +0.000 N 
ATOM     28  C   UNL     1      -6.919   5.582 133.634  0.00  0.00    +0.000 C 
ATOM     29  C   UNL     1      -5.738   3.811 135.418  0.00  0.00    +0.000 C 
ENDBRANCH  24  25
BRANCH  22  30
ATOM     30  O   UNL     1      -9.534   3.096 129.440  0.00  0.00    +0.000 OA
ATOM     31  H   UNL     1      -8.994   3.912 129.488  0.00  0.00    +0.000 HD
ENDBRANCH  22  30
ENDBRANCH   4  20
BRANCH   1  32
ATOM     32  S   UNL     1      -5.440  -1.730 129.745  0.00  0.00    +0.000 S 
ATOM     33  O   UNL     1      -6.494  -2.472 130.404  0.00  0.00    +0.000 OA
ATOM     34  O   UNL     1      -4.148  -2.362 129.486  0.00  0.00    +0.000 OA
BRANCH  32  38
ATOM     35  C   UNL     1      -7.267  -2.374 124.811  0.00  0.00    +0.000 A 
ATOM     36  C   UNL     1      -6.208  -1.552 125.157  0.00  0.00    +0.000 A 
ATOM     37  C   UNL     1      -5.664  -1.439 126.565  0.00  0.00    +0.000 A 
ATOM     38  C   UNL     1      -6.244  -2.055 127.736  0.00  0.00    +0.000 A 
ATOM     39  C   UNL     1      -7.461  -2.590 127.337  0.00  0.00    +0.000 A 
ATOM     40  C   UNL     1      -7.862  -2.905 125.911  0.00  0.00    +0.000 A 
BRANCH  35  42
ATOM     41  C   UNL     1      -9.013  -2.913 123.225  0.00  0.00    +0.000 C 
ATOM     42  O   UNL     1      -7.623  -2.637 123.514  0.00  0.00    +0.000 OA
ENDBRANCH  35  42
BRANCH  39  43
ATOM     43  O   UNL     1      -8.325  -2.872 128.325  0.00  0.00    +0.000 OA
ATOM     44  C   UNL     1      -9.012  -4.036 128.001  0.00  0.00    +0.000 C 
ENDBRANCH  39  43
ENDBRANCH  32  38
ENDBRANCH   1  32
TORSDOF 9
ENDMDL
MODEL 6
REMARK VINA RESULT:      -7.7      3.096      8.064
REMARK  Name = CHEMBL582857
REMARK  14 active torsions:
REMARK  status: ('A' for Active; 'I' for Inactive)
REMARK    1  A    between atoms: C_1  and  O_2
REMARK    2  A    between atoms: O_2  and  C_3
REMARK    3  A    between atoms: C_6  and  S_7
REMARK    4  A    between atoms: S_7  and  N_10
REMARK    5  A    between atoms: C_13  and  C_14
REMARK    6  A    between atoms: C_13  and  N_22
REMARK    7  A    between atoms: C_19  and  O_20
REMARK    8  A    between atoms: O_20  and  C_21
REMARK    9  A    between atoms: C_24  and  O_25
REMARK   10  A    between atoms: C_27  and  C_28
REMARK   11  A    between atoms: N_30  and  C_31
REMARK   12  A    between atoms: N_30  and  C_32
REMARK   13  A    between atoms: C_40  and  O_41
REMARK   14  A    between atoms: O_41  and  C_42
REMARK                            x       y       z     vdW  Elec       q    Type
REMARK                         _______ _______ _______ _____ _____    ______ ____
ROOT
ATOM      1  N   UNL     1      -5.373   3.663 128.640  0.00  0.00    +0.000 N 
ATOM      2  C   UNL     1      -6.435   2.962 129.193  0.00  0.00    +0.000 C 
ATOM      3  O   UNL     1      -7.533   3.020 128.569  0.00  0.00    +0.000 OA
ATOM      4  C   UNL     1      -6.195   2.808 130.691  0.00  0.00    +0.000 C 
ATOM      5  C   UNL     1      -6.484   4.162 131.152  0.00  0.00    +0.000 A 
ATOM      6  C   UNL     1      -7.285   4.575 132.455  0.00  0.00    +0.000 A 
ATOM      7  C   UNL     1      -7.743   5.891 132.545  0.00  0.00    +0.000 A 
ATOM      8 CL   UNL     1      -9.544   6.206 132.694  0.00  0.00    +0.000 Cl
ATOM      9  C   UNL     1      -7.023   6.745 131.680  0.00  0.00    +0.000 A 
ATOM     10  C   UNL     1      -6.071   6.231 130.478  0.00  0.00    +0.000 A 
ATOM     11  C   UNL     1      -6.024   4.866 129.948  0.00  0.00    +0.000 A 
ENDROOT
BRANCH   4  12
ATOM     12  C   UNL     1      -7.314   1.918 131.060  0.00  0.00    +0.000 A 
ATOM     13  C   UNL     1      -8.218   2.455 131.981  0.00  0.00    +0.000 A 
ATOM     14  C   UNL     1      -9.275   1.717 132.432  0.00  0.00    +0.000 A 
ATOM     15  C   UNL     1      -9.546   0.536 131.766  0.00  0.00    +0.000 A 
ATOM     16  C   UNL     1      -8.629  -0.022 130.854  0.00  0.00    +0.000 A 
ATOM     17  C   UNL     1      -7.390   0.558 130.619  0.00  0.00    +0.000 A 
BRANCH  17  18
ATOM     18  O   UNL     1      -6.514  -0.287 129.922  0.00  0.00    +0.000 OA
ATOM     19  C   UNL     1      -6.638  -1.625 129.394  0.00  0.00    +0.000 C 
ENDBRANCH  17  18
ENDBRANCH   4  12
BRANCH   4  20
ATOM     20  N   UNL     1      -4.711   2.644 131.103  0.00  0.00    +0.000 NA
ATOM     21  C   UNL     1      -4.000   1.318 130.812  0.00  0.00    +0.000 C 
ATOM     22  C   UNL     1      -3.847   0.531 132.123  0.00  0.00    +0.000 C 
ATOM     23  C   UNL     1      -3.576   1.685 133.063  0.00  0.00    +0.000 C 
ATOM     24  C   UNL     1      -4.363   2.914 132.527  0.00  0.00    +0.000 C 
BRANCH  24  25
ATOM     25  C   UNL     1      -3.564   4.236 132.546  0.00  0.00    +0.000 C 
ATOM     26  O   UNL     1      -2.821   4.526 131.604  0.00  0.00    +0.000 OA
ATOM     27  N   UNL     1      -3.819   5.175 133.549  0.00  0.00    +0.000 N 
ATOM     28  C   UNL     1      -4.560   4.745 134.812  0.00  0.00    +0.000 C 
ATOM     29  C   UNL     1      -3.452   6.638 133.108  0.00  0.00    +0.000 C 
ENDBRANCH  24  25
BRANCH  22  30
ATOM     30  O   UNL     1      -4.908  -0.311 132.561  0.00  0.00    +0.000 OA
ATOM     31  H   UNL     1      -5.769   0.118 132.377  0.00  0.00    +0.000 HD
ENDBRANCH  22  30
ENDBRANCH   4  20
BRANCH   1  32
ATOM     32  S   UNL     1      -5.685   2.399 126.849  0.00  0.00    +0.000 S 
ATOM     33  O   UNL     1      -4.563   1.500 127.022  0.00  0.00    +0.000 OA
ATOM     34  O   UNL     1      -5.804   3.200 125.633  0.00  0.00    +0.000 OA
BRANCH  32  38
ATOM     35  C   UNL     1      -8.855  -1.527 125.229  0.00  0.00    +0.000 A 
ATOM     36  C   UNL     1      -7.472  -1.591 125.253  0.00  0.00    +0.000 A 
ATOM     37  C   UNL     1      -6.594  -0.479 125.784  0.00  0.00    +0.000 A 
ATOM     38  C   UNL     1      -7.059   0.823 126.206  0.00  0.00    +0.000 A 
ATOM     39  C   UNL     1      -8.399   0.895 125.853  0.00  0.00    +0.000 A 
ATOM     40  C   UNL     1      -9.300  -0.286 125.558  0.00  0.00    +0.000 A 
BRANCH  35  42
ATOM     41  C   UNL     1      -9.422  -3.330 123.718  0.00  0.00    +0.000 C 
ATOM     42  O   UNL     1      -9.653  -2.605 124.948  0.00  0.00    +0.000 OA
ENDBRANCH  35  42
BRANCH  39  43
ATOM     43  O   UNL     1      -8.924   2.130 125.807  0.00  0.00    +0.000 OA
ATOM     44  C   UNL     1      -9.030   2.522 124.478  0.00  0.00    +0.000 C 
ENDBRANCH  39  43
ENDBRANCH  32  38
ENDBRANCH   1  32
TORSDOF 9
ENDMDL
MODEL 7
REMARK VINA RESULT:      -7.7      3.325      8.062
REMARK  Name = CHEMBL582857
REMARK  14 active torsions:
REMARK  status: ('A' for Active; 'I' for Inactive)
REMARK    1  A    between atoms: C_1  and  O_2
REMARK    2  A    between atoms: O_2  and  C_3
REMARK    3  A    between atoms: C_6  and  S_7
REMARK    4  A    between atoms: S_7  and  N_10
REMARK    5  A    between atoms: C_13  and  C_14
REMARK    6  A    between atoms: C_13  and  N_22
REMARK    7  A    between atoms: C_19  and  O_20
REMARK    8  A    between atoms: O_20  and  C_21
REMARK    9  A    between atoms: C_24  and  O_25
REMARK   10  A    between atoms: C_27  and  C_28
REMARK   11  A    between atoms: N_30  and  C_31
REMARK   12  A    between atoms: N_30  and  C_32
REMARK   13  A    between atoms: C_40  and  O_41
REMARK   14  A    between atoms: O_41  and  C_42
REMARK                            x       y       z     vdW  Elec       q    Type
REMARK                         _______ _______ _______ _____ _____    ______ ____
ROOT
ATOM      1  N   UNL     1      -7.142   4.997 130.334  0.00  0.00    +0.000 N 
ATOM      2  C   UNL     1      -6.553   3.758 130.545  0.00  0.00    +0.000 C 
ATOM      3  O   UNL     1      -7.309   2.844 130.984  0.00  0.00    +0.000 OA
ATOM      4  C   UNL     1      -5.061   3.958 130.780  0.00  0.00    +0.000 C 
ATOM      5  C   UNL     1      -5.069   4.497 132.136  0.00  0.00    +0.000 A 
ATOM      6  C   UNL     1      -4.071   4.137 133.312  0.00  0.00    +0.000 A 
ATOM      7  C   UNL     1      -4.443   4.494 134.611  0.00  0.00    +0.000 A 
ATOM      8 CL   UNL     1      -4.639   3.184 135.879  0.00  0.00    +0.000 Cl
ATOM      9  C   UNL     1      -5.418   5.516 134.602  0.00  0.00    +0.000 A 
ATOM     10  C   UNL     1      -6.270   5.952 133.299  0.00  0.00    +0.000 A 
ATOM     11  C   UNL     1      -6.355   5.201 132.043  0.00  0.00    +0.000 A 
ENDROOT
BRANCH   4  12
ATOM     12  C   UNL     1      -4.596   2.557 130.817  0.00  0.00    +0.000 A 
ATOM     13  C   UNL     1      -3.988   2.165 132.012  0.00  0.00    +0.000 A 
ATOM     14  C   UNL     1      -3.481   0.905 132.157  0.00  0.00    +0.000 A 
ATOM     15  C   UNL     1      -3.812  -0.020 131.184  0.00  0.00    +0.000 A 
ATOM     16  C   UNL     1      -4.406   0.370 129.968  0.00  0.00    +0.000 A 
ATOM     17  C   UNL     1      -4.639   1.705 129.666  0.00  0.00    +0.000 A 
BRANCH  17  18
ATOM     18  O   UNL     1      -4.951   1.913 128.315  0.00  0.00    +0.000 OA
ATOM     19  C   UNL     1      -4.893   1.073 127.143  0.00  0.00    +0.000 C 
ENDBRANCH  17  18
ENDBRANCH   4  12
BRANCH   4  20
ATOM     20  N   UNL     1      -4.421   5.121 129.982  0.00  0.00    +0.000 NA
ATOM     21  C   UNL     1      -4.422   5.061 128.451  0.00  0.00    +0.000 C 
ATOM     22  C   UNL     1      -3.007   4.718 127.961  0.00  0.00    +0.000 C 
ATOM     23  C   UNL     1      -2.205   5.494 128.982  0.00  0.00    +0.000 C 
ATOM     24  C   UNL     1      -3.013   5.483 130.310  0.00  0.00    +0.000 C 
BRANCH  24  25
ATOM     25  C   UNL     1      -3.061   6.846 131.034  0.00  0.00    +0.000 C 
ATOM     26  O   UNL     1      -3.970   7.646 130.793  0.00  0.00    +0.000 OA
ATOM     27  N   UNL     1      -2.174   7.095 132.084  0.00  0.00    +0.000 N 
ATOM     28  C   UNL     1      -0.933   6.221 132.244  0.00  0.00    +0.000 C 
ATOM     29  C   UNL     1      -2.723   8.166 133.094  0.00  0.00    +0.000 C 
ENDBRANCH  24  25
BRANCH  22  30
ATOM     30  O   UNL     1      -2.614   3.353 127.860  0.00  0.00    +0.000 OA
ATOM     31  H   UNL     1      -2.255   3.048 128.719  0.00  0.00    +0.000 HD
ENDBRANCH  22  30
ENDBRANCH   4  20
BRANCH   1  32
ATOM     32  S   UNL     1      -8.497   3.933 128.944  0.00  0.00    +0.000 S 
ATOM     33  O   UNL     1      -8.259   4.731 127.759  0.00  0.00    +0.000 OA
ATOM     34  O   UNL     1      -9.848   3.812 129.487  0.00  0.00    +0.000 OA
BRANCH  32  38
ATOM     35  C   UNL     1      -8.478  -0.752 126.467  0.00  0.00    +0.000 A 
ATOM     36  C   UNL     1      -8.040  -0.546 127.764  0.00  0.00    +0.000 A 
ATOM     37  C   UNL     1      -8.120   0.791 128.470  0.00  0.00    +0.000 A 
ATOM     38  C   UNL     1      -8.530   2.034 127.858  0.00  0.00    +0.000 A 
ATOM     39  C   UNL     1      -8.644   1.784 126.499  0.00  0.00    +0.000 A 
ATOM     40  C   UNL     1      -8.801   0.420 125.861  0.00  0.00    +0.000 A 
BRANCH  35  42
ATOM     41  C   UNL     1      -8.687  -3.143 126.780  0.00  0.00    +0.000 C 
ATOM     42  O   UNL     1      -8.601  -1.996 125.903  0.00  0.00    +0.000 OA
ENDBRANCH  35  42
BRANCH  39  43
ATOM     43  O   UNL     1      -8.644   2.868 125.705  0.00  0.00    +0.000 OA
ATOM     44  C   UNL     1      -8.986   2.478 124.415  0.00  0.00    +0.000 C 
ENDBRANCH  39  43
ENDBRANCH  32  38
ENDBRANCH   1  32
TORSDOF 9
ENDMDL
MODEL 8
REMARK VINA RESULT:      -7.6      3.085      8.285
REMARK  Name = CHEMBL582857
REMARK  14 active torsions:
REMARK  status: ('A' for Active; 'I' for Inactive)
REMARK    1  A    between atoms: C_1  and  O_2
REMARK    2  A    between atoms: O_2  and  C_3
REMARK    3  A    between atoms: C_6  and  S_7
REMARK    4  A    between atoms: S_7  and  N_10
REMARK    5  A    between atoms: C_13  and  C_14
REMARK    6  A    between atoms: C_13  and  N_22
REMARK    7  A    between atoms: C_19  and  O_20
REMARK    8  A    between atoms: O_20  and  C_21
REMARK    9  A    between atoms: C_24  and  O_25
REMARK   10  A    between atoms: C_27  and  C_28
REMARK   11  A    between atoms: N_30  and  C_31
REMARK   12  A    between atoms: N_30  and  C_32
REMARK   13  A    between atoms: C_40  and  O_41
REMARK   14  A    between atoms: O_41  and  C_42
REMARK                            x       y       z     vdW  Elec       q    Type
REMARK                         _______ _______ _______ _____ _____    ______ ____
ROOT
ATOM      1  N   UNL     1      -4.603   2.730 129.945  0.00  0.00    +0.000 N 
ATOM      2  C   UNL     1      -5.712   3.563 129.876  0.00  0.00    +0.000 C 
ATOM      3  O   UNL     1      -6.114   3.868 128.718  0.00  0.00    +0.000 OA
ATOM      4  C   UNL     1      -5.794   4.378 131.161  0.00  0.00    +0.000 C 
ATOM      5  C   UNL     1      -4.713   5.335 130.945  0.00  0.00    +0.000 A 
ATOM      6  C   UNL     1      -4.728   6.883 131.280  0.00  0.00    +0.000 A 
ATOM      7  C   UNL     1      -3.742   7.683 130.696  0.00  0.00    +0.000 A 
ATOM      8 CL   UNL     1      -4.242   9.059 129.591  0.00  0.00    +0.000 Cl
ATOM      9  C   UNL     1      -2.634   6.910 130.282  0.00  0.00    +0.000 A 
ATOM     10  C   UNL     1      -2.648   5.300 130.143  0.00  0.00    +0.000 A 
ATOM     11  C   UNL     1      -3.842   4.450 130.161  0.00  0.00    +0.000 A 
ENDROOT
BRANCH   4  12
ATOM     12  C   UNL     1      -7.090   5.059 130.975  0.00  0.00    +0.000 A 
ATOM     13  C   UNL     1      -7.035   6.455 130.999  0.00  0.00    +0.000 A 
ATOM     14  C   UNL     1      -8.173   7.200 130.876  0.00  0.00    +0.000 A 
ATOM     15  C   UNL     1      -9.321   6.534 130.486  0.00  0.00    +0.000 A 
ATOM     16  C   UNL     1      -9.390   5.127 130.481  0.00  0.00    +0.000 A 
ATOM     17  C   UNL     1      -8.330   4.344 130.916  0.00  0.00    +0.000 A 
BRANCH  17  18
ATOM     18  O   UNL     1      -8.688   3.003 131.117  0.00  0.00    +0.000 OA
ATOM     19  C   UNL     1      -9.950   2.334 131.327  0.00  0.00    +0.000 C 
ENDBRANCH  17  18
ENDBRANCH   4  12
BRANCH   4  20
ATOM     20  N   UNL     1      -5.313   3.643 132.437  0.00  0.00    +0.000 NA
ATOM     21  C   UNL     1      -6.113   2.440 132.948  0.00  0.00    +0.000 C 
ATOM     22  C   UNL     1      -6.910   2.858 134.193  0.00  0.00    +0.000 C 
ATOM     23  C   UNL     1      -5.898   3.792 134.821  0.00  0.00    +0.000 C 
ATOM     24  C   UNL     1      -5.107   4.463 133.664  0.00  0.00    +0.000 C 
BRANCH  24  25
ATOM     25  C   UNL     1      -3.582   4.538 133.898  0.00  0.00    +0.000 C 
ATOM     26  O   UNL     1      -2.861   3.580 133.606  0.00  0.00    +0.000 OA
ATOM     27  N   UNL     1      -3.007   5.754 134.278  0.00  0.00    +0.000 N 
ATOM     28  C   UNL     1      -3.893   6.862 134.840  0.00  0.00    +0.000 C 
ATOM     29  C   UNL     1      -1.494   5.857 133.867  0.00  0.00    +0.000 C 
ENDBRANCH  24  25
BRANCH  22  30
ATOM     30  O   UNL     1      -8.194   3.450 134.034  0.00  0.00    +0.000 OA
ATOM     31  H   UNL     1      -8.169   4.111 133.312  0.00  0.00    +0.000 HD
ENDBRANCH  22  30
ENDBRANCH   4  20
BRANCH   1  32
ATOM     32  S   UNL     1      -5.820   1.286 128.791  0.00  0.00    +0.000 S 
ATOM     33  O   UNL     1      -6.797   0.965 129.811  0.00  0.00    +0.000 OA
ATOM     34  O   UNL     1      -4.999   0.231 128.202  0.00  0.00    +0.000 OA
BRANCH  32  38
ATOM     35  C   UNL     1      -9.458   1.256 124.936  0.00  0.00    +0.000 A 
ATOM     36  C   UNL     1      -9.417   0.356 125.987  0.00  0.00    +0.000 A 
ATOM     37  C   UNL     1      -8.406   0.429 127.111  0.00  0.00    +0.000 A 
ATOM     38  C   UNL     1      -7.290   1.345 127.171  0.00  0.00    +0.000 A 
ATOM     39  C   UNL     1      -7.238   1.982 125.940  0.00  0.00    +0.000 A 
ATOM     40  C   UNL     1      -8.375   2.078 124.945  0.00  0.00    +0.000 A 
BRANCH  35  42
ATOM     41  C   UNL     1     -10.262   0.842 122.692  0.00  0.00    +0.000 C 
ATOM     42  O   UNL     1     -10.491   1.319 124.038  0.00  0.00    +0.000 OA
ENDBRANCH  35  42
BRANCH  39  43
ATOM     43  O   UNL     1      -6.074   2.585 125.646  0.00  0.00    +0.000 OA
ATOM     44  C   UNL     1      -6.318   3.610 124.739  0.00  0.00    +0.000 C 
ENDBRANCH  39  43
ENDBRANCH  32  38
ENDBRANCH   1  32
TORSDOF 9
ENDMDL
MODEL 9
REMARK VINA RESULT:      -7.4      2.986      5.675
REMARK  Name = CHEMBL582857
REMARK  14 active torsions:
REMARK  status: ('A' for Active; 'I' for Inactive)
REMARK    1  A    between atoms: C_1  and  O_2
REMARK    2  A    between atoms: O_2  and  C_3
REMARK    3  A    between atoms: C_6  and  S_7
REMARK    4  A    between atoms: S_7  and  N_10
REMARK    5  A    between atoms: C_13  and  C_14
REMARK    6  A    between atoms: C_13  and  N_22
REMARK    7  A    between atoms: C_19  and  O_20
REMARK    8  A    between atoms: O_20  and  C_21
REMARK    9  A    between atoms: C_24  and  O_25
REMARK   10  A    between atoms: C_27  and  C_28
REMARK   11  A    between atoms: N_30  and  C_31
REMARK   12  A    between atoms: N_30  and  C_32
REMARK   13  A    between atoms: C_40  and  O_41
REMARK   14  A    between atoms: O_41  and  C_42
REMARK                            x       y       z     vdW  Elec       q    Type
REMARK                         _______ _______ _______ _____ _____    ______ ____
ROOT
ATOM      1  N   UNL     1      -4.132   2.341 130.506  0.00  0.00    +0.000 N 
ATOM      2  C   UNL     1      -5.362   2.305 131.149  0.00  0.00    +0.000 C 
ATOM      3  O   UNL     1      -5.338   2.103 132.397  0.00  0.00    +0.000 OA
ATOM      4  C   UNL     1      -6.433   1.912 130.139  0.00  0.00    +0.000 C 
ATOM      5  C   UNL     1      -6.155   0.488 129.989  0.00  0.00    +0.000 A 
ATOM      6  C   UNL     1      -7.215  -0.686 129.892  0.00  0.00    +0.000 A 
ATOM      7  C   UNL     1      -6.758  -1.991 130.092  0.00  0.00    +0.000 A 
ATOM      8 CL   UNL     1      -7.453  -2.984 131.468  0.00  0.00    +0.000 Cl
ATOM      9  C   UNL     1      -5.363  -2.082 129.888  0.00  0.00    +0.000 A 
ATOM     10  C   UNL     1      -4.368  -0.810 129.814  0.00  0.00    +0.000 A 
ATOM     11  C   UNL     1      -4.705   0.562 130.203  0.00  0.00    +0.000 A 
ENDROOT
BRANCH   4  12
ATOM     12  C   UNL     1      -7.655   2.087 130.948  0.00  0.00    +0.000 A 
ATOM     13  C   UNL     1      -8.446   0.943 131.082  0.00  0.00    +0.000 A 
ATOM     14  C   UNL     1      -9.622   0.985 131.775  0.00  0.00    +0.000 A 
ATOM     15  C   UNL     1      -9.866   2.118 132.531  0.00  0.00    +0.000 A 
ATOM     16  C   UNL     1      -9.085   3.282 132.385  0.00  0.00    +0.000 A 
ATOM     17  C   UNL     1      -8.072   3.366 131.441  0.00  0.00    +0.000 A 
BRANCH  17  18
ATOM     18  O   UNL     1      -7.617   4.678 131.243  0.00  0.00    +0.000 OA
ATOM     19  C   UNL     1      -8.128   5.973 131.625  0.00  0.00    +0.000 C 
ENDBRANCH  17  18
ENDBRANCH   4  12
BRANCH   4  20
ATOM     20  N   UNL     1      -6.199   2.433 128.698  0.00  0.00    +0.000 NA
ATOM     21  C   UNL     1      -6.257   3.941 128.434  0.00  0.00    +0.000 C 
ATOM     22  C   UNL     1      -7.574   4.275 127.717  0.00  0.00    +0.000 C 
ATOM     23  C   UNL     1      -7.686   3.048 126.838  0.00  0.00    +0.000 C 
ATOM     24  C   UNL     1      -7.052   1.862 127.618  0.00  0.00    +0.000 C 
BRANCH  24  25
ATOM     25  C   UNL     1      -6.138   0.957 126.761  0.00  0.00    +0.000 C 
ATOM     26  O   UNL     1      -4.949   1.249 126.600  0.00  0.00    +0.000 OA
ATOM     27  N   UNL     1      -6.620  -0.277 126.317  0.00  0.00    +0.000 N 
ATOM     28  C   UNL     1      -8.122  -0.545 126.325  0.00  0.00    +0.000 C 
ATOM     29  C   UNL     1      -5.467  -1.310 126.047  0.00  0.00    +0.000 C 
ENDBRANCH  24  25
BRANCH  22  30
ATOM     30  O   UNL     1      -8.746   4.521 128.487  0.00  0.00    +0.000 OA
ATOM     31  H   UNL     1      -9.418   3.834 128.296  0.00  0.00    +0.000 HD
ENDBRANCH  22  30
ENDBRANCH   4  20
BRANCH   1  32
ATOM     32  S   UNL     1      -3.648   4.009 131.878  0.00  0.00    +0.000 S 
ATOM     33  O   UNL     1      -3.928   5.112 130.983  0.00  0.00    +0.000 OA
ATOM     34  O   UNL     1      -2.319   3.860 132.467  0.00  0.00    +0.000 OA
BRANCH  32  38
ATOM     35  C   UNL     1      -5.998   6.263 136.060  0.00  0.00    +0.000 A 
ATOM     36  C   UNL     1      -6.559   5.262 135.286  0.00  0.00    +0.000 A 
ATOM     37  C   UNL     1      -5.838   4.589 134.138  0.00  0.00    +0.000 A 
ATOM     38  C   UNL     1      -4.548   4.980 133.620  0.00  0.00    +0.000 A 
ATOM     39  C   UNL     1      -4.216   6.172 134.248  0.00  0.00    +0.000 A 
ATOM     40  C   UNL     1      -4.815   6.686 135.540  0.00  0.00    +0.000 A 
BRANCH  35  42
ATOM     41  C   UNL     1      -7.995   6.606 137.383  0.00  0.00    +0.000 C 
ATOM     42  O   UNL     1      -6.562   6.723 137.221  0.00  0.00    +0.000 OA
ENDBRANCH  35  42
BRANCH  39  43
ATOM     43  O   UNL     1      -3.256   6.897 133.652  0.00  0.00    +0.000 OA
ATOM     44  C   UNL     1      -2.104   6.838 134.428  0.00  0.00    +0.000 C 
ENDBRANCH  39  43
ENDBRANCH  32  38
ENDBRANCH   1  32
TORSDOF 9
ENDMDL
