MODEL 1
REMARK VINA RESULT:     -10.6      0.000      0.000
REMARK  Name = CHEMBL303700
REMARK  9 active torsions:
REMARK  status: ('A' for Active; 'I' for Inactive)
REMARK    1  A    between atoms: C_1  and  O_2
REMARK    2  A    between atoms: O_2  and  C_3
REMARK    3  A    between atoms: C_5  and  O_6
REMARK    4  A    between atoms: O_6  and  C_7
REMARK    5  A    between atoms: N_10  and  C_11
REMARK    6  A    between atoms: C_11  and  C_12
REMARK    7  A    between atoms: C_18  and  C_19
REMARK    8  A    between atoms: C_28  and  C_29
REMARK    9  A    between atoms: C_34  and  N_35
REMARK                            x       y       z     vdW  Elec       q    Type
REMARK                         _______ _______ _______ _____ _____    ______ ____
ROOT
ATOM      1  C   UNL     1      -7.369   1.012 132.551  0.00  0.00    +0.000 A 
ATOM      2  C   UNL     1      -7.763  -0.258 131.951  0.00  0.00    +0.000 A 
ATOM      3  C   UNL     1      -7.978  -0.339 130.623  0.00  0.00    +0.000 A 
ATOM      4  C   UNL     1      -7.623   0.895 130.067  0.00  0.00    +0.000 A 
ATOM      5  F   UNL     1      -8.675   1.550 129.685  0.00  0.00    +0.000 F 
ATOM      6  C   UNL     1      -6.860   1.955 130.510  0.00  0.00    +0.000 A 
ATOM      7  C   UNL     1      -7.056   2.160 131.768  0.00  0.00    +0.000 A 
ENDROOT
BRANCH   7   8
ATOM      8  C   UNL     1      -6.920   3.600 132.086  0.00  0.00    +0.000 C 
ATOM      9  O   UNL     1      -6.013   4.088 132.820  0.00  0.00    +0.000 OA
ATOM     10  N   UNL     1      -7.812   4.364 131.542  0.00  0.00    +0.000 N 
ATOM     11  C   UNL     1      -7.362   5.431 130.697  0.00  0.00    +0.000 C 
ATOM     12  C   UNL     1      -7.964   6.696 131.214  0.00  0.00    +0.000 C 
ATOM     13  C   UNL     1      -9.493   6.525 131.349  0.00  0.00    +0.000 C 
ATOM     14  C   UNL     1      -9.870   5.365 132.281  0.00  0.00    +0.000 C 
ATOM     15  C   UNL     1      -9.205   4.117 131.825  0.00  0.00    +0.000 C 
BRANCH  13  16
ATOM     16  N   UNL     1     -10.161   6.501 130.004  0.00  0.00    +0.000 N 
ATOM     17  C   UNL     1      -9.747   5.758 128.905  0.00  0.00    +0.000 C 
ATOM     18  O   UNL     1      -9.619   4.525 128.828  0.00  0.00    +0.000 OA
ATOM     19  O   UNL     1      -9.461   6.501 127.816  0.00  0.00    +0.000 OA
ATOM     20  C   UNL     1     -10.657   7.040 127.291  0.00  0.00    +0.000 C 
ATOM     21  C   UNL     1     -11.455   7.709 128.367  0.00  0.00    +0.000 A 
ATOM     22  C   UNL     1     -12.495   8.564 128.019  0.00  0.00    +0.000 A 
ATOM     23  C   UNL     1     -13.255   9.165 129.014  0.00  0.00    +0.000 A 
ATOM     24  C   UNL     1     -12.986   8.906 130.355  0.00  0.00    +0.000 A 
ATOM     25  C   UNL     1     -11.947   8.052 130.710  0.00  0.00    +0.000 A 
ATOM     26  C   UNL     1     -11.171   7.454 129.718  0.00  0.00    +0.000 A 
ENDBRANCH  13  16
ENDBRANCH   7   8
BRANCH   1  28
ATOM     27  C   UNL     1      -5.808   0.557 134.060  0.00  0.00    +0.000 C 
ATOM     28  O   UNL     1      -7.151   1.017 133.883  0.00  0.00    +0.000 OA
ENDBRANCH   1  28
BRANCH   3  29
ATOM     29  O   UNL     1      -8.347  -1.512 129.931  0.00  0.00    +0.000 OA
BRANCH  29  30
ATOM     30  C   UNL     1      -7.621  -2.907 129.742  0.00  0.00    +0.000 C 
ATOM     31  C   UNL     1      -6.043  -2.996 129.391  0.00  0.00    +0.000 C 
ATOM     32  C   UNL     1      -5.550  -2.029 128.287  0.00  0.00    +0.000 C 
ATOM     33  N   UNL     1      -6.271  -2.441 126.990  0.00  0.00    +0.000 NA
ATOM     34  C   UNL     1      -7.642  -2.905 127.394  0.00  0.00    +0.000 C 
ATOM     35  C   UNL     1      -8.315  -3.592 128.574  0.00  0.00    +0.000 C 
BRANCH  33  36
ATOM     36  C   UNL     1      -6.217  -1.252 125.993  0.00  0.00    +0.000 C 
BRANCH  36  37
ATOM     37  C   UNL     1      -7.589  -0.511 125.476  0.00  0.00    +0.000 A 
ATOM     38  C   UNL     1      -8.274   0.634 126.044  0.00  0.00    +0.000 A 
ATOM     39  C   UNL     1      -9.299   1.371 125.478  0.00  0.00    +0.000 A 
ATOM     40  C   UNL     1      -9.794   0.889 124.314  0.00  0.00    +0.000 A 
ATOM     41  N   UNL     1      -9.259  -0.249 123.700  0.00  0.00    +0.000 N 
ATOM     42  O   UNL     1      -9.846  -0.658 122.653  0.00  0.00    +0.000 OA
ATOM     43  C   UNL     1      -8.141  -0.911 124.246  0.00  0.00    +0.000 A 
BRANCH  43  44
ATOM     44  C   UNL     1      -7.578  -2.074 123.502  0.00  0.00    +0.000 C 
ATOM     45  F   UNL     1      -7.939  -3.268 124.074  0.00  0.00    +0.000 F 
ATOM     46  F   UNL     1      -8.094  -2.128 122.233  0.00  0.00    +0.000 F 
ATOM     47  F   UNL     1      -6.239  -2.154 123.322  0.00  0.00    +0.000 F 
ENDBRANCH  43  44
ENDBRANCH  36  37
ENDBRANCH  33  36
ENDBRANCH  29  30
ENDBRANCH   3  29
TORSDOF 8
ENDMDL
MODEL 2
REMARK VINA RESULT:     -10.5      2.234      3.398
REMARK  Name = CHEMBL303700
REMARK  9 active torsions:
REMARK  status: ('A' for Active; 'I' for Inactive)
REMARK    1  A    between atoms: C_1  and  O_2
REMARK    2  A    between atoms: O_2  and  C_3
REMARK    3  A    between atoms: C_5  and  O_6
REMARK    4  A    between atoms: O_6  and  C_7
REMARK    5  A    between atoms: N_10  and  C_11
REMARK    6  A    between atoms: C_11  and  C_12
REMARK    7  A    between atoms: C_18  and  C_19
REMARK    8  A    between atoms: C_28  and  C_29
REMARK    9  A    between atoms: C_34  and  N_35
REMARK                            x       y       z     vdW  Elec       q    Type
REMARK                         _______ _______ _______ _____ _____    ______ ____
ROOT
ATOM      1  C   UNL     1      -7.462  -2.008 130.819  0.00  0.00    +0.000 A 
ATOM      2  C   UNL     1      -7.496  -2.780 129.581  0.00  0.00    +0.000 A 
ATOM      3  C   UNL     1      -7.162  -2.197 128.414  0.00  0.00    +0.000 A 
ATOM      4  C   UNL     1      -6.704  -0.908 128.706  0.00  0.00    +0.000 A 
ATOM      5  F   UNL     1      -7.563  -0.015 128.324  0.00  0.00    +0.000 F 
ATOM      6  C   UNL     1      -6.255  -0.295 129.857  0.00  0.00    +0.000 A 
ATOM      7  C   UNL     1      -6.947  -0.681 130.876  0.00  0.00    +0.000 A 
ENDROOT
BRANCH   7   8
ATOM      8  C   UNL     1      -7.050   0.407 131.874  0.00  0.00    +0.000 C 
ATOM      9  O   UNL     1      -6.481   0.397 133.004  0.00  0.00    +0.000 OA
ATOM     10  N   UNL     1      -7.776   1.414 131.510  0.00  0.00    +0.000 N 
ATOM     11  C   UNL     1      -7.169   2.712 131.489  0.00  0.00    +0.000 C 
ATOM     12  C   UNL     1      -8.016   3.617 132.323  0.00  0.00    +0.000 C 
ATOM     13  C   UNL     1      -9.483   3.537 131.847  0.00  0.00    +0.000 C 
ATOM     14  C   UNL     1     -10.043   2.109 131.917  0.00  0.00    +0.000 C 
ATOM     15  C   UNL     1      -9.158   1.184 131.162  0.00  0.00    +0.000 C 
BRANCH  13  16
ATOM     16  N   UNL     1      -9.667   4.226 130.525  0.00  0.00    +0.000 N 
ATOM     17  C   UNL     1      -8.994   3.917 129.349  0.00  0.00    +0.000 C 
ATOM     18  O   UNL     1      -8.981   2.832 128.745  0.00  0.00    +0.000 OA
ATOM     19  O   UNL     1      -8.286   4.945 128.835  0.00  0.00    +0.000 OA
ATOM     20  C   UNL     1      -9.176   5.924 128.340  0.00  0.00    +0.000 C 
ATOM     21  C   UNL     1     -10.209   6.270 129.369  0.00  0.00    +0.000 A 
ATOM     22  C   UNL     1     -10.977   7.419 129.210  0.00  0.00    +0.000 A 
ATOM     23  C   UNL     1     -11.954   7.729 130.146  0.00  0.00    +0.000 A 
ATOM     24  C   UNL     1     -12.173   6.890 131.235  0.00  0.00    +0.000 A 
ATOM     25  C   UNL     1     -11.409   5.740 131.400  0.00  0.00    +0.000 A 
ATOM     26  C   UNL     1     -10.417   5.427 130.471  0.00  0.00    +0.000 A 
ENDBRANCH  13  16
ENDBRANCH   7   8
BRANCH   1  28
ATOM     27  C   UNL     1      -6.590  -3.300 132.398  0.00  0.00    +0.000 C 
ATOM     28  O   UNL     1      -7.790  -2.659 131.955  0.00  0.00    +0.000 OA
ENDBRANCH   1  28
BRANCH   3  29
ATOM     29  O   UNL     1      -7.143  -2.845 127.160  0.00  0.00    +0.000 OA
BRANCH  29  30
ATOM     30  C   UNL     1      -8.297  -3.448 126.258  0.00  0.00    +0.000 C 
ATOM     31  C   UNL     1      -8.046  -3.821 124.703  0.00  0.00    +0.000 C 
ATOM     32  C   UNL     1      -7.281  -2.756 123.878  0.00  0.00    +0.000 C 
ATOM     33  N   UNL     1      -8.172  -1.500 123.850  0.00  0.00    +0.000 NA
ATOM     34  C   UNL     1      -8.872  -1.444 125.179  0.00  0.00    +0.000 C 
ATOM     35  C   UNL     1      -9.405  -2.405 126.232  0.00  0.00    +0.000 C 
BRANCH  33  36
ATOM     36  C   UNL     1      -7.291  -0.275 123.488  0.00  0.00    +0.000 C 
BRANCH  36  37
ATOM     37  C   UNL     1      -7.115   0.985 124.528  0.00  0.00    +0.000 A 
ATOM     38  C   UNL     1      -6.071   1.217 125.507  0.00  0.00    +0.000 A 
ATOM     39  C   UNL     1      -5.823   2.378 126.218  0.00  0.00    +0.000 A 
ATOM     40  C   UNL     1      -6.737   3.365 126.066  0.00  0.00    +0.000 A 
ATOM     41  N   UNL     1      -7.827   3.233 125.198  0.00  0.00    +0.000 N 
ATOM     42  O   UNL     1      -8.662   4.187 125.188  0.00  0.00    +0.000 OA
ATOM     43  C   UNL     1      -7.988   2.081 124.403  0.00  0.00    +0.000 A 
BRANCH  43  44
ATOM     44  C   UNL     1      -9.131   2.037 123.447  0.00  0.00    +0.000 C 
ATOM     45  F   UNL     1     -10.339   2.031 124.099  0.00  0.00    +0.000 F 
ATOM     46  F   UNL     1      -9.159   3.172 122.679  0.00  0.00    +0.000 F 
ATOM     47  F   UNL     1      -9.202   1.025 122.552  0.00  0.00    +0.000 F 
ENDBRANCH  43  44
ENDBRANCH  36  37
ENDBRANCH  33  36
ENDBRANCH  29  30
ENDBRANCH   3  29
TORSDOF 8
ENDMDL
MODEL 3
REMARK VINA RESULT:     -10.1      3.106      8.345
REMARK  Name = CHEMBL303700
REMARK  9 active torsions:
REMARK  status: ('A' for Active; 'I' for Inactive)
REMARK    1  A    between atoms: C_1  and  O_2
REMARK    2  A    between atoms: O_2  and  C_3
REMARK    3  A    between atoms: C_5  and  O_6
REMARK    4  A    between atoms: O_6  and  C_7
REMARK    5  A    between atoms: N_10  and  C_11
REMARK    6  A    between atoms: C_11  and  C_12
REMARK    7  A    between atoms: C_18  and  C_19
REMARK    8  A    between atoms: C_28  and  C_29
REMARK    9  A    between atoms: C_34  and  N_35
REMARK                            x       y       z     vdW  Elec       q    Type
REMARK                         _______ _______ _______ _____ _____    ______ ____
ROOT
ATOM      1  C   UNL     1      -7.484   0.921 132.990  0.00  0.00    +0.000 A 
ATOM      2  C   UNL     1      -7.990   2.280 133.149  0.00  0.00    +0.000 A 
ATOM      3  C   UNL     1      -8.994   2.722 132.368  0.00  0.00    +0.000 A 
ATOM      4  C   UNL     1      -9.435   1.637 131.601  0.00  0.00    +0.000 A 
ATOM      5  F   UNL     1      -9.084   1.776 130.360  0.00  0.00    +0.000 F 
ATOM      6  C   UNL     1      -9.289   0.270 131.714  0.00  0.00    +0.000 A 
ATOM      7  C   UNL     1      -8.104  -0.027 132.127  0.00  0.00    +0.000 A 
ENDROOT
BRANCH   7   8
ATOM      8  C   UNL     1      -7.666  -1.322 131.560  0.00  0.00    +0.000 C 
ATOM      9  O   UNL     1      -7.535  -2.388 132.228  0.00  0.00    +0.000 OA
ATOM     10  N   UNL     1      -7.425  -1.306 130.288  0.00  0.00    +0.000 N 
ATOM     11  C   UNL     1      -8.155  -2.211 129.451  0.00  0.00    +0.000 C 
ATOM     12  C   UNL     1      -7.158  -3.001 128.669  0.00  0.00    +0.000 C 
ATOM     13  C   UNL     1      -6.180  -2.041 127.955  0.00  0.00    +0.000 C 
ATOM     14  C   UNL     1      -5.442  -1.123 128.939  0.00  0.00    +0.000 C 
ATOM     15  C   UNL     1      -6.426  -0.395 129.783  0.00  0.00    +0.000 C 
BRANCH  13  16
ATOM     16  N   UNL     1      -6.846  -1.337 126.808  0.00  0.00    +0.000 N 
ATOM     17  C   UNL     1      -7.898  -0.434 126.910  0.00  0.00    +0.000 C 
ATOM     18  O   UNL     1      -7.919   0.637 127.537  0.00  0.00    +0.000 OA
ATOM     19  O   UNL     1      -9.006  -0.801 126.232  0.00  0.00    +0.000 OA
ATOM     20  C   UNL     1      -8.756  -0.707 124.844  0.00  0.00    +0.000 C 
ATOM     21  C   UNL     1      -7.485  -1.414 124.485  0.00  0.00    +0.000 A 
ATOM     22  C   UNL     1      -7.220  -1.711 123.152  0.00  0.00    +0.000 A 
ATOM     23  C   UNL     1      -6.030  -2.342 122.811  0.00  0.00    +0.000 A 
ATOM     24  C   UNL     1      -5.102  -2.667 123.795  0.00  0.00    +0.000 A 
ATOM     25  C   UNL     1      -5.361  -2.373 125.130  0.00  0.00    +0.000 A 
ATOM     26  C   UNL     1      -6.558  -1.751 125.483  0.00  0.00    +0.000 A 
ENDBRANCH  13  16
ENDBRANCH   7   8
BRANCH   1  28
ATOM     27  C   UNL     1      -5.280   1.022 133.227  0.00  0.00    +0.000 C 
ATOM     28  O   UNL     1      -6.490   0.538 133.819  0.00  0.00    +0.000 OA
ENDBRANCH   1  28
BRANCH   3  29
ATOM     29  O   UNL     1      -9.575   4.006 132.440  0.00  0.00    +0.000 OA
BRANCH  29  30
ATOM     30  C   UNL     1     -10.013   5.039 131.322  0.00  0.00    +0.000 C 
ATOM     31  C   UNL     1      -9.425   4.952 129.816  0.00  0.00    +0.000 C 
ATOM     32  C   UNL     1      -7.896   4.729 129.709  0.00  0.00    +0.000 C 
ATOM     33  N   UNL     1      -7.227   5.970 130.329  0.00  0.00    +0.000 NA
ATOM     34  C   UNL     1      -8.112   6.410 131.462  0.00  0.00    +0.000 C 
ATOM     35  C   UNL     1      -9.590   6.412 131.823  0.00  0.00    +0.000 C 
BRANCH  33  36
ATOM     36  C   UNL     1      -5.764   5.610 130.703  0.00  0.00    +0.000 C 
BRANCH  36  37
ATOM     37  C   UNL     1      -4.581   5.567 129.563  0.00  0.00    +0.000 A 
ATOM     38  C   UNL     1      -3.819   6.666 129.002  0.00  0.00    +0.000 A 
ATOM     39  C   UNL     1      -2.688   6.591 128.209  0.00  0.00    +0.000 A 
ATOM     40  C   UNL     1      -2.328   5.346 127.816  0.00  0.00    +0.000 A 
ATOM     41  N   UNL     1      -3.027   4.210 128.239  0.00  0.00    +0.000 N 
ATOM     42  O   UNL     1      -2.653   3.101 127.753  0.00  0.00    +0.000 OA
ATOM     43  C   UNL     1      -4.107   4.313 129.139  0.00  0.00    +0.000 A 
BRANCH  43  44
ATOM     44  C   UNL     1      -4.760   3.056 129.604  0.00  0.00    +0.000 C 
ATOM     45  F   UNL     1      -5.621   2.551 128.662  0.00  0.00    +0.000 F 
ATOM     46  F   UNL     1      -3.826   2.068 129.783  0.00  0.00    +0.000 F 
ATOM     47  F   UNL     1      -5.461   3.069 130.761  0.00  0.00    +0.000 F 
ENDBRANCH  43  44
ENDBRANCH  36  37
ENDBRANCH  33  36
ENDBRANCH  29  30
ENDBRANCH   3  29
TORSDOF 8
ENDMDL
MODEL 4
REMARK VINA RESULT:     -10.1      3.256      8.572
REMARK  Name = CHEMBL303700
REMARK  9 active torsions:
REMARK  status: ('A' for Active; 'I' for Inactive)
REMARK    1  A    between atoms: C_1  and  O_2
REMARK    2  A    between atoms: O_2  and  C_3
REMARK    3  A    between atoms: C_5  and  O_6
REMARK    4  A    between atoms: O_6  and  C_7
REMARK    5  A    between atoms: N_10  and  C_11
REMARK    6  A    between atoms: C_11  and  C_12
REMARK    7  A    between atoms: C_18  and  C_19
REMARK    8  A    between atoms: C_28  and  C_29
REMARK    9  A    between atoms: C_34  and  N_35
REMARK                            x       y       z     vdW  Elec       q    Type
REMARK                         _______ _______ _______ _____ _____    ______ ____
ROOT
ATOM      1  C   UNL     1      -7.262   0.794 132.856  0.00  0.00    +0.000 A 
ATOM      2  C   UNL     1      -7.695   2.178 133.015  0.00  0.00    +0.000 A 
ATOM      3  C   UNL     1      -8.729   2.649 132.291  0.00  0.00    +0.000 A 
ATOM      4  C   UNL     1      -9.268   1.570 131.582  0.00  0.00    +0.000 A 
ATOM      5  F   UNL     1      -8.996   1.665 130.318  0.00  0.00    +0.000 F 
ATOM      6  C   UNL     1      -9.177   0.200 131.718  0.00  0.00    +0.000 A 
ATOM      7  C   UNL     1      -7.981  -0.143 132.059  0.00  0.00    +0.000 A 
ENDROOT
BRANCH   7   8
ATOM      8  C   UNL     1      -7.641  -1.469 131.496  0.00  0.00    +0.000 C 
ATOM      9  O   UNL     1      -7.565  -2.535 132.171  0.00  0.00    +0.000 OA
ATOM     10  N   UNL     1      -7.427  -1.480 130.219  0.00  0.00    +0.000 N 
ATOM     11  C   UNL     1      -8.233  -2.342 129.406  0.00  0.00    +0.000 C 
ATOM     12  C   UNL     1      -7.307  -3.203 128.611  0.00  0.00    +0.000 C 
ATOM     13  C   UNL     1      -6.285  -2.314 127.867  0.00  0.00    +0.000 C 
ATOM     14  C   UNL     1      -5.467  -1.438 128.825  0.00  0.00    +0.000 C 
ATOM     15  C   UNL     1      -6.383  -0.640 129.683  0.00  0.00    +0.000 C 
BRANCH  13  16
ATOM     16  N   UNL     1      -6.929  -1.578 126.727  0.00  0.00    +0.000 N 
ATOM     17  C   UNL     1      -8.004  -0.704 126.830  0.00  0.00    +0.000 C 
ATOM     18  O   UNL     1      -8.072   0.339 127.500  0.00  0.00    +0.000 OA
ATOM     19  O   UNL     1      -9.080  -1.068 126.100  0.00  0.00    +0.000 OA
ATOM     20  C   UNL     1      -8.787  -0.910 124.727  0.00  0.00    +0.000 C 
ATOM     21  C   UNL     1      -7.488  -1.572 124.382  0.00  0.00    +0.000 A 
ATOM     22  C   UNL     1      -7.170  -1.808 123.048  0.00  0.00    +0.000 A 
ATOM     23  C   UNL     1      -5.956  -2.397 122.723  0.00  0.00    +0.000 A 
ATOM     24  C   UNL     1      -5.053  -2.742 123.725  0.00  0.00    +0.000 A 
ATOM     25  C   UNL     1      -5.364  -2.509 125.061  0.00  0.00    +0.000 A 
ATOM     26  C   UNL     1      -6.587  -1.930 125.397  0.00  0.00    +0.000 A 
ENDBRANCH  13  16
ENDBRANCH   7   8
BRANCH   1  28
ATOM     27  C   UNL     1      -5.045   0.775 132.931  0.00  0.00    +0.000 C 
ATOM     28  O   UNL     1      -6.233   0.383 133.626  0.00  0.00    +0.000 OA
ENDBRANCH   1  28
BRANCH   3  29
ATOM     29  O   UNL     1      -9.245   3.960 132.371  0.00  0.00    +0.000 OA
BRANCH  29  30
ATOM     30  C   UNL     1      -9.718   4.985 131.260  0.00  0.00    +0.000 C 
ATOM     31  C   UNL     1      -9.105   4.948 129.762  0.00  0.00    +0.000 C 
ATOM     32  C   UNL     1      -7.566   4.802 129.675  0.00  0.00    +0.000 C 
ATOM     33  N   UNL     1      -6.969   6.067 130.320  0.00  0.00    +0.000 NA
ATOM     34  C   UNL     1      -7.889   6.446 131.445  0.00  0.00    +0.000 C 
ATOM     35  C   UNL     1      -9.371   6.370 131.785  0.00  0.00    +0.000 C 
BRANCH  33  36
ATOM     36  C   UNL     1      -5.495   5.774 130.710  0.00  0.00    +0.000 C 
BRANCH  36  37
ATOM     37  C   UNL     1      -4.629   4.604 129.948  0.00  0.00    +0.000 A 
ATOM     38  C   UNL     1      -4.694   3.166 130.124  0.00  0.00    +0.000 A 
ATOM     39  C   UNL     1      -4.118   2.191 129.328  0.00  0.00    +0.000 A 
ATOM     40  C   UNL     1      -3.301   2.643 128.347  0.00  0.00    +0.000 A 
ATOM     41  N   UNL     1      -3.105   4.010 128.122  0.00  0.00    +0.000 N 
ATOM     42  O   UNL     1      -2.263   4.322 127.227  0.00  0.00    +0.000 OA
ATOM     43  C   UNL     1      -3.797   4.977 128.878  0.00  0.00    +0.000 A 
BRANCH  43  44
ATOM     44  C   UNL     1      -3.596   6.415 128.537  0.00  0.00    +0.000 C 
ATOM     45  F   UNL     1      -2.265   6.736 128.448  0.00  0.00    +0.000 F 
ATOM     46  F   UNL     1      -4.101   6.688 127.291  0.00  0.00    +0.000 F 
ATOM     47  F   UNL     1      -4.141   7.362 129.334  0.00  0.00    +0.000 F 
ENDBRANCH  43  44
ENDBRANCH  36  37
ENDBRANCH  33  36
ENDBRANCH  29  30
ENDBRANCH   3  29
TORSDOF 8
ENDMDL
MODEL 5
REMARK VINA RESULT:     -10.0      4.282      9.566
REMARK  Name = CHEMBL303700
REMARK  9 active torsions:
REMARK  status: ('A' for Active; 'I' for Inactive)
REMARK    1  A    between atoms: C_1  and  O_2
REMARK    2  A    between atoms: O_2  and  C_3
REMARK    3  A    between atoms: C_5  and  O_6
REMARK    4  A    between atoms: O_6  and  C_7
REMARK    5  A    between atoms: N_10  and  C_11
REMARK    6  A    between atoms: C_11  and  C_12
REMARK    7  A    between atoms: C_18  and  C_19
REMARK    8  A    between atoms: C_28  and  C_29
REMARK    9  A    between atoms: C_34  and  N_35
REMARK                            x       y       z     vdW  Elec       q    Type
REMARK                         _______ _______ _______ _____ _____    ______ ____
ROOT
ATOM      1  C   UNL     1      -3.257   4.059 127.563  0.00  0.00    +0.000 A 
ATOM      2  C   UNL     1      -2.238   4.666 128.413  0.00  0.00    +0.000 A 
ATOM      3  C   UNL     1      -2.488   5.832 129.038  0.00  0.00    +0.000 A 
ATOM      4  C   UNL     1      -3.828   6.156 128.799  0.00  0.00    +0.000 A 
ATOM      5  F   UNL     1      -3.923   7.156 127.979  0.00  0.00    +0.000 F 
ATOM      6  C   UNL     1      -4.922   5.429 128.379  0.00  0.00    +0.000 A 
ATOM      7  C   UNL     1      -4.581   4.579 127.470  0.00  0.00    +0.000 A 
ENDROOT
BRANCH   7   8
ATOM      8  C   UNL     1      -5.690   4.368 126.514  0.00  0.00    +0.000 C 
ATOM      9  O   UNL     1      -6.128   5.250 125.720  0.00  0.00    +0.000 OA
ATOM     10  N   UNL     1      -6.203   3.179 126.528  0.00  0.00    +0.000 N 
ATOM     11  C   UNL     1      -6.204   2.430 125.306  0.00  0.00    +0.000 C 
ATOM     12  C   UNL     1      -7.611   2.005 125.042  0.00  0.00    +0.000 C 
ATOM     13  C   UNL     1      -8.179   1.289 126.288  0.00  0.00    +0.000 C 
ATOM     14  C   UNL     1      -8.143   2.178 127.539  0.00  0.00    +0.000 C 
ATOM     15  C   UNL     1      -6.760   2.678 127.761  0.00  0.00    +0.000 C 
BRANCH  13  16
ATOM     16  N   UNL     1      -7.570  -0.073 126.459  0.00  0.00    +0.000 N 
ATOM     17  C   UNL     1      -6.633  -0.428 127.423  0.00  0.00    +0.000 C 
ATOM     18  O   UNL     1      -6.751  -0.360 128.657  0.00  0.00    +0.000 OA
ATOM     19  O   UNL     1      -5.474  -0.896 126.915  0.00  0.00    +0.000 OA
ATOM     20  C   UNL     1      -5.698  -2.165 126.334  0.00  0.00    +0.000 C 
ATOM     21  C   UNL     1      -6.869  -2.122 125.401  0.00  0.00    +0.000 A 
ATOM     22  C   UNL     1      -7.066  -3.163 124.499  0.00  0.00    +0.000 A 
ATOM     23  C   UNL     1      -8.166  -3.141 123.651  0.00  0.00    +0.000 A 
ATOM     24  C   UNL     1      -9.075  -2.088 123.709  0.00  0.00    +0.000 A 
ATOM     25  C   UNL     1      -8.884  -1.044 124.609  0.00  0.00    +0.000 A 
ATOM     26  C   UNL     1      -7.776  -1.052 125.456  0.00  0.00    +0.000 A 
ENDBRANCH  13  16
ENDBRANCH   7   8
BRANCH   1  28
ATOM     27  C   UNL     1      -1.616   3.030 126.483  0.00  0.00    +0.000 C 
ATOM     28  O   UNL     1      -2.948   2.881 126.983  0.00  0.00    +0.000 OA
ENDBRANCH   1  28
BRANCH   3  29
ATOM     29  O   UNL     1      -1.588   6.503 129.893  0.00  0.00    +0.000 OA
BRANCH  29  30
ATOM     30  C   UNL     1      -1.166   6.253 131.399  0.00  0.00    +0.000 C 
ATOM     31  C   UNL     1      -1.844   5.075 132.280  0.00  0.00    +0.000 C 
ATOM     32  C   UNL     1      -3.385   4.966 132.175  0.00  0.00    +0.000 C 
ATOM     33  N   UNL     1      -3.957   6.276 132.749  0.00  0.00    +0.000 NA
ATOM     34  C   UNL     1      -2.989   7.363 132.377  0.00  0.00    +0.000 C 
ATOM     35  C   UNL     1      -1.494   7.535 132.151  0.00  0.00    +0.000 C 
BRANCH  33  36
ATOM     36  C   UNL     1      -5.412   6.448 132.235  0.00  0.00    +0.000 C 
BRANCH  36  37
ATOM     37  C   UNL     1      -6.643   5.547 132.846  0.00  0.00    +0.000 A 
ATOM     38  C   UNL     1      -6.647   4.687 134.014  0.00  0.00    +0.000 A 
ATOM     39  C   UNL     1      -7.741   4.109 134.633  0.00  0.00    +0.000 A 
ATOM     40  C   UNL     1      -8.927   4.271 133.999  0.00  0.00    +0.000 A 
ATOM     41  N   UNL     1      -9.038   5.026 132.826  0.00  0.00    +0.000 N 
ATOM     42  O   UNL     1     -10.179   5.051 132.274  0.00  0.00    +0.000 OA
ATOM     43  C   UNL     1      -7.923   5.695 132.283  0.00  0.00    +0.000 A 
BRANCH  43  44
ATOM     44  C   UNL     1      -8.128   6.541 131.072  0.00  0.00    +0.000 C 
ATOM     45  F   UNL     1      -8.182   5.785 129.928  0.00  0.00    +0.000 F 
ATOM     46  F   UNL     1      -9.344   7.172 131.128  0.00  0.00    +0.000 F 
ATOM     47  F   UNL     1      -7.247   7.532 130.806  0.00  0.00    +0.000 F 
ENDBRANCH  43  44
ENDBRANCH  36  37
ENDBRANCH  33  36
ENDBRANCH  29  30
ENDBRANCH   3  29
TORSDOF 8
ENDMDL
MODEL 6
REMARK VINA RESULT:     -10.0      3.002      5.108
REMARK  Name = CHEMBL303700
REMARK  9 active torsions:
REMARK  status: ('A' for Active; 'I' for Inactive)
REMARK    1  A    between atoms: C_1  and  O_2
REMARK    2  A    between atoms: O_2  and  C_3
REMARK    3  A    between atoms: C_5  and  O_6
REMARK    4  A    between atoms: O_6  and  C_7
REMARK    5  A    between atoms: N_10  and  C_11
REMARK    6  A    between atoms: C_11  and  C_12
REMARK    7  A    between atoms: C_18  and  C_19
REMARK    8  A    between atoms: C_28  and  C_29
REMARK    9  A    between atoms: C_34  and  N_35
REMARK                            x       y       z     vdW  Elec       q    Type
REMARK                         _______ _______ _______ _____ _____    ______ ____
ROOT
ATOM      1  C   UNL     1      -6.946  -2.961 129.515  0.00  0.00    +0.000 A 
ATOM      2  C   UNL     1      -7.754  -3.457 128.406  0.00  0.00    +0.000 A 
ATOM      3  C   UNL     1      -7.824  -2.759 127.256  0.00  0.00    +0.000 A 
ATOM      4  C   UNL     1      -6.930  -1.688 127.363  0.00  0.00    +0.000 A 
ATOM      5  F   UNL     1      -7.566  -0.566 127.493  0.00  0.00    +0.000 F 
ATOM      6  C   UNL     1      -5.856  -1.423 128.187  0.00  0.00    +0.000 A 
ATOM      7  C   UNL     1      -6.098  -1.823 129.390  0.00  0.00    +0.000 A 
ENDROOT
BRANCH   7   8
ATOM      8  C   UNL     1      -5.421  -0.948 130.373  0.00  0.00    +0.000 C 
ATOM      9  O   UNL     1      -4.226  -1.098 130.760  0.00  0.00    +0.000 OA
ATOM     10  N   UNL     1      -6.144   0.024 130.827  0.00  0.00    +0.000 N 
ATOM     11  C   UNL     1      -5.662   1.363 130.654  0.00  0.00    +0.000 C 
ATOM     12  C   UNL     1      -5.639   2.008 132.001  0.00  0.00    +0.000 C 
ATOM     13  C   UNL     1      -7.024   1.858 132.670  0.00  0.00    +0.000 C 
ATOM     14  C   UNL     1      -7.444   0.389 132.818  0.00  0.00    +0.000 C 
ATOM     15  C   UNL     1      -7.385  -0.286 131.495  0.00  0.00    +0.000 C 
BRANCH  13  16
ATOM     16  N   UNL     1      -8.044   2.748 132.021  0.00  0.00    +0.000 N 
ATOM     17  C   UNL     1      -9.238   2.329 131.446  0.00  0.00    +0.000 C 
ATOM     18  O   UNL     1     -10.168   1.715 131.992  0.00  0.00    +0.000 OA
ATOM     19  O   UNL     1      -9.360   2.647 130.140  0.00  0.00    +0.000 OA
ATOM     20  C   UNL     1      -9.523   4.045 130.014  0.00  0.00    +0.000 C 
ATOM     21  C   UNL     1      -8.466   4.774 130.785  0.00  0.00    +0.000 A 
ATOM     22  C   UNL     1      -8.252   6.128 130.545  0.00  0.00    +0.000 A 
ATOM     23  C   UNL     1      -7.292   6.814 131.277  0.00  0.00    +0.000 A 
ATOM     24  C   UNL     1      -6.551   6.154 132.254  0.00  0.00    +0.000 A 
ATOM     25  C   UNL     1      -6.760   4.801 132.499  0.00  0.00    +0.000 A 
ATOM     26  C   UNL     1      -7.714   4.101 131.760  0.00  0.00    +0.000 A 
ENDBRANCH  13  16
ENDBRANCH   7   8
BRANCH   1  28
ATOM     27  C   UNL     1      -5.749  -4.552 130.492  0.00  0.00    +0.000 C 
ATOM     28  O   UNL     1      -6.905  -3.720 130.629  0.00  0.00    +0.000 OA
ENDBRANCH   1  28
BRANCH   3  29
ATOM     29  O   UNL     1      -8.559  -3.146 126.115  0.00  0.00    +0.000 OA
BRANCH  29  30
ATOM     30  C   UNL     1      -8.114  -3.518 124.641  0.00  0.00    +0.000 C 
ATOM     31  C   UNL     1      -6.792  -2.869 123.970  0.00  0.00    +0.000 C 
ATOM     32  C   UNL     1      -6.628  -1.341 124.164  0.00  0.00    +0.000 C 
ATOM     33  N   UNL     1      -7.813  -0.677 123.438  0.00  0.00    +0.000 NA
ATOM     34  C   UNL     1      -8.986  -1.601 123.605  0.00  0.00    +0.000 C 
ATOM     35  C   UNL     1      -9.258  -3.093 123.733  0.00  0.00    +0.000 C 
BRANCH  33  36
ATOM     36  C   UNL     1      -7.989   0.762 123.992  0.00  0.00    +0.000 C 
BRANCH  36  37
ATOM     37  C   UNL     1      -6.987   1.980 123.531  0.00  0.00    +0.000 A 
ATOM     38  C   UNL     1      -6.777   2.533 122.207  0.00  0.00    +0.000 A 
ATOM     39  C   UNL     1      -6.097   3.691 121.873  0.00  0.00    +0.000 A 
ATOM     40  C   UNL     1      -5.453   4.307 122.893  0.00  0.00    +0.000 A 
ATOM     41  N   UNL     1      -5.526   3.830 124.206  0.00  0.00    +0.000 N 
ATOM     42  O   UNL     1      -4.826   4.438 125.071  0.00  0.00    +0.000 OA
ATOM     43  C   UNL     1      -6.321   2.712 124.531  0.00  0.00    +0.000 A 
BRANCH  43  44
ATOM     44  C   UNL     1      -6.410   2.301 125.961  0.00  0.00    +0.000 C 
ATOM     45  F   UNL     1      -7.695   1.978 126.318  0.00  0.00    +0.000 F 
ATOM     46  F   UNL     1      -5.693   1.152 126.176  0.00  0.00    +0.000 F 
ATOM     47  F   UNL     1      -5.975   3.152 126.919  0.00  0.00    +0.000 F 
ENDBRANCH  43  44
ENDBRANCH  36  37
ENDBRANCH  33  36
ENDBRANCH  29  30
ENDBRANCH   3  29
TORSDOF 8
ENDMDL
MODEL 7
REMARK VINA RESULT:      -9.9      3.372      9.080
REMARK  Name = CHEMBL303700
REMARK  9 active torsions:
REMARK  status: ('A' for Active; 'I' for Inactive)
REMARK    1  A    between atoms: C_1  and  O_2
REMARK    2  A    between atoms: O_2  and  C_3
REMARK    3  A    between atoms: C_5  and  O_6
REMARK    4  A    between atoms: O_6  and  C_7
REMARK    5  A    between atoms: N_10  and  C_11
REMARK    6  A    between atoms: C_11  and  C_12
REMARK    7  A    between atoms: C_18  and  C_19
REMARK    8  A    between atoms: C_28  and  C_29
REMARK    9  A    between atoms: C_34  and  N_35
REMARK                            x       y       z     vdW  Elec       q    Type
REMARK                         _______ _______ _______ _____ _____    ______ ____
ROOT
ATOM      1  C   UNL     1      -6.710   0.903 132.423  0.00  0.00    +0.000 A 
ATOM      2  C   UNL     1      -7.011   2.322 132.581  0.00  0.00    +0.000 A 
ATOM      3  C   UNL     1      -8.161   2.826 132.094  0.00  0.00    +0.000 A 
ATOM      4  C   UNL     1      -8.918   1.752 131.614  0.00  0.00    +0.000 A 
ATOM      5  F   UNL     1      -8.957   1.756 130.318  0.00  0.00    +0.000 F 
ATOM      6  C   UNL     1      -8.876   0.389 131.823  0.00  0.00    +0.000 A 
ATOM      7  C   UNL     1      -7.655  -0.022 131.891  0.00  0.00    +0.000 A 
ENDROOT
BRANCH   7   8
ATOM      8  C   UNL     1      -7.540  -1.398 131.360  0.00  0.00    +0.000 C 
ATOM      9  O   UNL     1      -7.605  -2.446 132.066  0.00  0.00    +0.000 OA
ATOM     10  N   UNL     1      -7.372  -1.475 130.078  0.00  0.00    +0.000 N 
ATOM     11  C   UNL     1      -8.327  -2.225 129.316  0.00  0.00    +0.000 C 
ATOM     12  C   UNL     1      -7.569  -3.238 128.522  0.00  0.00    +0.000 C 
ATOM     13  C   UNL     1      -6.449  -2.537 127.722  0.00  0.00    +0.000 C 
ATOM     14  C   UNL     1      -5.476  -1.772 128.629  0.00  0.00    +0.000 C 
ATOM     15  C   UNL     1      -6.230  -0.821 129.487  0.00  0.00    +0.000 C 
BRANCH  13  16
ATOM     16  N   UNL     1      -7.011  -1.742 126.579  0.00  0.00    +0.000 N 
ATOM     17  C   UNL     1      -8.057  -0.831 126.661  0.00  0.00    +0.000 C 
ATOM     18  O   UNL     1      -8.119   0.192 127.361  0.00  0.00    +0.000 OA
ATOM     19  O   UNL     1      -9.109  -1.130 125.870  0.00  0.00    +0.000 OA
ATOM     20  C   UNL     1      -8.745  -0.940 124.517  0.00  0.00    +0.000 C 
ATOM     21  C   UNL     1      -7.456  -1.640 124.212  0.00  0.00    +0.000 A 
ATOM     22  C   UNL     1      -7.084  -1.845 122.887  0.00  0.00    +0.000 A 
ATOM     23  C   UNL     1      -5.878  -2.469 122.599  0.00  0.00    +0.000 A 
ATOM     24  C   UNL     1      -5.037  -2.880 123.630  0.00  0.00    +0.000 A 
ATOM     25  C   UNL     1      -5.403  -2.678 124.957  0.00  0.00    +0.000 A 
ATOM     26  C   UNL     1      -6.618  -2.063 125.255  0.00  0.00    +0.000 A 
ENDBRANCH  13  16
ENDBRANCH   7   8
BRANCH   1  28
ATOM     27  C   UNL     1      -5.828   0.190 134.329  0.00  0.00    +0.000 C 
ATOM     28  O   UNL     1      -5.550   0.461 132.952  0.00  0.00    +0.000 OA
ENDBRANCH   1  28
BRANCH   3  29
ATOM     29  O   UNL     1      -8.565   4.174 132.200  0.00  0.00    +0.000 OA
BRANCH  29  30
ATOM     30  C   UNL     1      -8.797   5.303 131.113  0.00  0.00    +0.000 C 
ATOM     31  C   UNL     1      -8.610   5.003 129.533  0.00  0.00    +0.000 C 
ATOM     32  C   UNL     1      -7.338   4.207 129.152  0.00  0.00    +0.000 C 
ATOM     33  N   UNL     1      -6.136   5.089 129.538  0.00  0.00    +0.000 NA
ATOM     34  C   UNL     1      -6.533   5.830 130.783  0.00  0.00    +0.000 C 
ATOM     35  C   UNL     1      -7.792   6.402 131.420  0.00  0.00    +0.000 C 
BRANCH  33  36
ATOM     36  C   UNL     1      -4.876   4.189 129.650  0.00  0.00    +0.000 C 
BRANCH  36  37
ATOM     37  C   UNL     1      -3.777   4.408 130.852  0.00  0.00    +0.000 A 
ATOM     38  C   UNL     1      -3.638   3.682 132.099  0.00  0.00    +0.000 A 
ATOM     39  C   UNL     1      -2.584   3.735 132.994  0.00  0.00    +0.000 A 
ATOM     40  C   UNL     1      -1.635   4.664 132.728  0.00  0.00    +0.000 A 
ATOM     41  N   UNL     1      -1.695   5.472 131.587  0.00  0.00    +0.000 N 
ATOM     42  O   UNL     1      -0.796   6.359 131.473  0.00  0.00    +0.000 OA
ATOM     43  C   UNL     1      -2.723   5.314 130.637  0.00  0.00    +0.000 A 
BRANCH  43  44
ATOM     44  C   UNL     1      -2.685   6.158 129.409  0.00  0.00    +0.000 C 
ATOM     45  F   UNL     1      -3.562   7.211 129.488  0.00  0.00    +0.000 F 
ATOM     46  F   UNL     1      -1.453   6.744 129.267  0.00  0.00    +0.000 F 
ATOM     47  F   UNL     1      -2.923   5.584 128.207  0.00  0.00    +0.000 F 
ENDBRANCH  43  44
ENDBRANCH  36  37
ENDBRANCH  33  36
ENDBRANCH  29  30
ENDBRANCH   3  29
TORSDOF 8
ENDMDL
MODEL 8
REMARK VINA RESULT:      -9.9      3.604      7.897
REMARK  Name = CHEMBL303700
REMARK  9 active torsions:
REMARK  status: ('A' for Active; 'I' for Inactive)
REMARK    1  A    between atoms: C_1  and  O_2
REMARK    2  A    between atoms: O_2  and  C_3
REMARK    3  A    between atoms: C_5  and  O_6
REMARK    4  A    between atoms: O_6  and  C_7
REMARK    5  A    between atoms: N_10  and  C_11
REMARK    6  A    between atoms: C_11  and  C_12
REMARK    7  A    between atoms: C_18  and  C_19
REMARK    8  A    between atoms: C_28  and  C_29
REMARK    9  A    between atoms: C_34  and  N_35
REMARK                            x       y       z     vdW  Elec       q    Type
REMARK                         _______ _______ _______ _____ _____    ______ ____
ROOT
ATOM      1  C   UNL     1      -5.648   0.070 131.009  0.00  0.00    +0.000 A 
ATOM      2  C   UNL     1      -6.333   0.836 132.044  0.00  0.00    +0.000 A 
ATOM      3  C   UNL     1      -7.678   0.913 132.047  0.00  0.00    +0.000 A 
ATOM      4  C   UNL     1      -8.148   0.065 131.037  0.00  0.00    +0.000 A 
ATOM      5  F   UNL     1      -8.616   0.749 130.040  0.00  0.00    +0.000 F 
ATOM      6  C   UNL     1      -7.586  -0.981 130.336  0.00  0.00    +0.000 A 
ATOM      7  C   UNL     1      -6.349  -0.733 130.064  0.00  0.00    +0.000 A 
ENDROOT
BRANCH   7   8
ATOM      8  C   UNL     1      -5.966  -1.356 128.777  0.00  0.00    +0.000 C 
ATOM      9  O   UNL     1      -5.306  -2.430 128.670  0.00  0.00    +0.000 OA
ATOM     10  N   UNL     1      -6.368  -0.721 127.723  0.00  0.00    +0.000 N 
ATOM     11  C   UNL     1      -7.194  -1.422 126.785  0.00  0.00    +0.000 C 
ATOM     12  C   UNL     1      -6.544  -1.310 125.445  0.00  0.00    +0.000 C 
ATOM     13  C   UNL     1      -6.258   0.175 125.131  0.00  0.00    +0.000 C 
ATOM     14  C   UNL     1      -5.359   0.832 126.188  0.00  0.00    +0.000 C 
ATOM     15  C   UNL     1      -5.954   0.649 127.538  0.00  0.00    +0.000 C 
BRANCH  13  16
ATOM     16  N   UNL     1      -7.523   0.922 124.822  0.00  0.00    +0.000 N 
ATOM     17  C   UNL     1      -8.746   0.746 125.459  0.00  0.00    +0.000 C 
ATOM     18  O   UNL     1      -8.998   0.882 126.667  0.00  0.00    +0.000 OA
ATOM     19  O   UNL     1      -9.750   0.386 124.631  0.00  0.00    +0.000 OA
ATOM     20  C   UNL     1     -10.081   1.477 123.797  0.00  0.00    +0.000 C 
ATOM     21  C   UNL     1      -8.853   2.045 123.154  0.00  0.00    +0.000 A 
ATOM     22  C   UNL     1      -8.983   2.906 122.068  0.00  0.00    +0.000 A 
ATOM     23  C   UNL     1      -7.848   3.456 121.486  0.00  0.00    +0.000 A 
ATOM     24  C   UNL     1      -6.586   3.156 121.991  0.00  0.00    +0.000 A 
ATOM     25  C   UNL     1      -6.449   2.296 123.075  0.00  0.00    +0.000 A 
ATOM     26  C   UNL     1      -7.582   1.730 123.659  0.00  0.00    +0.000 A 
ENDBRANCH  13  16
ENDBRANCH   7   8
BRANCH   1  28
ATOM     27  C   UNL     1      -3.996  -1.063 131.962  0.00  0.00    +0.000 C 
ATOM     28  O   UNL     1      -4.301   0.019 131.076  0.00  0.00    +0.000 OA
ENDBRANCH   1  28
BRANCH   3  29
ATOM     29  O   UNL     1      -8.449   1.609 133.002  0.00  0.00    +0.000 OA
BRANCH  29  30
ATOM     30  C   UNL     1      -9.350   2.907 132.899  0.00  0.00    +0.000 C 
ATOM     31  C   UNL     1      -9.311   3.859 131.589  0.00  0.00    +0.000 C 
ATOM     32  C   UNL     1      -7.899   4.196 131.052  0.00  0.00    +0.000 C 
ATOM     33  N   UNL     1      -7.191   5.004 132.156  0.00  0.00    +0.000 NA
ATOM     34  C   UNL     1      -7.672   4.448 133.466  0.00  0.00    +0.000 C 
ATOM     35  C   UNL     1      -8.927   3.812 134.047  0.00  0.00    +0.000 C 
BRANCH  33  36
ATOM     36  C   UNL     1      -5.660   4.946 131.907  0.00  0.00    +0.000 C 
BRANCH  36  37
ATOM     37  C   UNL     1      -4.947   5.884 130.761  0.00  0.00    +0.000 A 
ATOM     38  C   UNL     1      -4.931   7.330 130.652  0.00  0.00    +0.000 A 
ATOM     39  C   UNL     1      -4.152   8.104 129.810  0.00  0.00    +0.000 A 
ATOM     40  C   UNL     1      -3.412   7.422 128.904  0.00  0.00    +0.000 A 
ATOM     41  N   UNL     1      -3.397   6.023 128.867  0.00  0.00    +0.000 N 
ATOM     42  O   UNL     1      -2.729   5.487 127.932  0.00  0.00    +0.000 OA
ATOM     43  C   UNL     1      -4.114   5.264 129.813  0.00  0.00    +0.000 A 
BRANCH  43  44
ATOM     44  C   UNL     1      -3.996   3.778 129.761  0.00  0.00    +0.000 C 
ATOM     45  F   UNL     1      -3.166   3.369 128.748  0.00  0.00    +0.000 F 
ATOM     46  F   UNL     1      -3.405   3.304 130.905  0.00  0.00    +0.000 F 
ATOM     47  F   UNL     1      -5.117   3.033 129.630  0.00  0.00    +0.000 F 
ENDBRANCH  43  44
ENDBRANCH  36  37
ENDBRANCH  33  36
ENDBRANCH  29  30
ENDBRANCH   3  29
TORSDOF 8
ENDMDL
MODEL 9
REMARK VINA RESULT:      -9.8      3.333      9.107
REMARK  Name = CHEMBL303700
REMARK  9 active torsions:
REMARK  status: ('A' for Active; 'I' for Inactive)
REMARK    1  A    between atoms: C_1  and  O_2
REMARK    2  A    between atoms: O_2  and  C_3
REMARK    3  A    between atoms: C_5  and  O_6
REMARK    4  A    between atoms: O_6  and  C_7
REMARK    5  A    between atoms: N_10  and  C_11
REMARK    6  A    between atoms: C_11  and  C_12
REMARK    7  A    between atoms: C_18  and  C_19
REMARK    8  A    between atoms: C_28  and  C_29
REMARK    9  A    between atoms: C_34  and  N_35
REMARK                            x       y       z     vdW  Elec       q    Type
REMARK                         _______ _______ _______ _____ _____    ______ ____
ROOT
ATOM      1  C   UNL     1      -7.003   0.463 132.898  0.00  0.00    +0.000 A 
ATOM      2  C   UNL     1      -7.358   1.854 133.160  0.00  0.00    +0.000 A 
ATOM      3  C   UNL     1      -8.400   2.416 132.518  0.00  0.00    +0.000 A 
ATOM      4  C   UNL     1      -9.026   1.408 131.775  0.00  0.00    +0.000 A 
ATOM      5  F   UNL     1      -8.810   1.568 130.506  0.00  0.00    +0.000 F 
ATOM      6  C   UNL     1      -8.997   0.030 131.826  0.00  0.00    +0.000 A 
ATOM      7  C   UNL     1      -7.805  -0.389 132.086  0.00  0.00    +0.000 A 
ENDROOT
BRANCH   7   8
ATOM      8  C   UNL     1      -7.559  -1.692 131.429  0.00  0.00    +0.000 C 
ATOM      9  O   UNL     1      -7.550  -2.805 132.030  0.00  0.00    +0.000 OA
ATOM     10  N   UNL     1      -7.354  -1.630 130.153  0.00  0.00    +0.000 N 
ATOM     11  C   UNL     1      -8.222  -2.378 129.292  0.00  0.00    +0.000 C 
ATOM     12  C   UNL     1      -7.361  -3.242 128.430  0.00  0.00    +0.000 C 
ATOM     13  C   UNL     1      -6.287  -2.375 127.736  0.00  0.00    +0.000 C 
ATOM     14  C   UNL     1      -5.405  -1.623 128.743  0.00  0.00    +0.000 C 
ATOM     15  C   UNL     1      -6.259  -0.827 129.663  0.00  0.00    +0.000 C 
BRANCH  13  16
ATOM     16  N   UNL     1      -6.888  -1.521 126.657  0.00  0.00    +0.000 N 
ATOM     17  C   UNL     1      -7.870  -0.554 126.839  0.00  0.00    +0.000 C 
ATOM     18  O   UNL     1      -7.817   0.453 127.562  0.00  0.00    +0.000 OA
ATOM     19  O   UNL     1      -8.995  -0.774 126.127  0.00  0.00    +0.000 OA
ATOM     20  C   UNL     1      -8.727  -0.573 124.754  0.00  0.00    +0.000 C 
ATOM     21  C   UNL     1      -7.509  -1.337 124.335  0.00  0.00    +0.000 A 
ATOM     22  C   UNL     1      -7.253  -1.531 122.981  0.00  0.00    +0.000 A 
ATOM     23  C   UNL     1      -6.111  -2.215 122.587  0.00  0.00    +0.000 A 
ATOM     24  C   UNL     1      -5.218  -2.698 123.540  0.00  0.00    +0.000 A 
ATOM     25  C   UNL     1      -5.468  -2.508 124.895  0.00  0.00    +0.000 A 
ATOM     26  C   UNL     1      -6.619  -1.833 125.301  0.00  0.00    +0.000 A 
ENDBRANCH  13  16
ENDBRANCH   7   8
BRANCH   1  28
ATOM     27  C   UNL     1      -5.807   0.803 134.736  0.00  0.00    +0.000 C 
ATOM     28  O   UNL     1      -5.960  -0.041 133.590  0.00  0.00    +0.000 OA
ENDBRANCH   1  28
BRANCH   3  29
ATOM     29  O   UNL     1      -8.846   3.743 132.700  0.00  0.00    +0.000 OA
BRANCH  29  30
ATOM     30  C   UNL     1      -9.620   4.744 131.747  0.00  0.00    +0.000 C 
ATOM     31  C   UNL     1      -9.407   4.716 130.142  0.00  0.00    +0.000 C 
ATOM     32  C   UNL     1      -7.937   4.619 129.666  0.00  0.00    +0.000 C 
ATOM     33  N   UNL     1      -7.237   5.907 130.140  0.00  0.00    +0.000 NA
ATOM     34  C   UNL     1      -7.853   6.265 131.463  0.00  0.00    +0.000 C 
ATOM     35  C   UNL     1      -9.197   6.143 132.168  0.00  0.00    +0.000 C 
BRANCH  33  36
ATOM     36  C   UNL     1      -5.703   5.665 130.141  0.00  0.00    +0.000 C 
BRANCH  36  37
ATOM     37  C   UNL     1      -5.038   4.425 130.990  0.00  0.00    +0.000 A 
ATOM     38  C   UNL     1      -4.887   3.036 130.602  0.00  0.00    +0.000 A 
ATOM     39  C   UNL     1      -4.138   2.059 131.234  0.00  0.00    +0.000 A 
ATOM     40  C   UNL     1      -3.583   2.419 132.415  0.00  0.00    +0.000 A 
ATOM     41  N   UNL     1      -3.715   3.714 132.928  0.00  0.00    +0.000 N 
ATOM     42  O   UNL     1      -3.221   3.923 134.076  0.00  0.00    +0.000 OA
ATOM     43  C   UNL     1      -4.390   4.717 132.203  0.00  0.00    +0.000 A 
BRANCH  43  44
ATOM     44  C   UNL     1      -4.431   6.094 132.775  0.00  0.00    +0.000 C 
ATOM     45  F   UNL     1      -5.341   6.194 133.796  0.00  0.00    +0.000 F 
ATOM     46  F   UNL     1      -3.228   6.410 133.351  0.00  0.00    +0.000 F 
ATOM     47  F   UNL     1      -4.695   7.138 131.956  0.00  0.00    +0.000 F 
ENDBRANCH  43  44
ENDBRANCH  36  37
ENDBRANCH  33  36
ENDBRANCH  29  30
ENDBRANCH   3  29
TORSDOF 8
ENDMDL
