MODEL 1
REMARK VINA RESULT:      -8.0      0.000      0.000
REMARK  Name = CHEMBL511265
REMARK  9 active torsions:
REMARK  status: ('A' for Active; 'I' for Inactive)
REMARK    1  A    between atoms: C_1  and  O_2
REMARK    2  A    between atoms: O_2  and  C_3
REMARK    3  A    between atoms: C_3  and  C_4
REMARK    4  A    between atoms: C_7  and  C_8
REMARK    5  A    between atoms: C_11  and  C_12
REMARK    6  A    between atoms: C_17  and  C_18
REMARK    7  A    between atoms: N_22  and  C_23
REMARK    8  A    between atoms: C_26  and  O_27
REMARK    9  A    between atoms: O_27  and  C_28
REMARK                            x       y       z     vdW  Elec       q    Type
REMARK                         _______ _______ _______ _____ _____    ______ ____
ROOT
ATOM      1  C   UNL     1      -5.964   3.733 122.302  0.00  0.00    +0.000 A 
ATOM      2  N   UNL     1      -5.265   4.761 122.750  0.00  0.00    +0.000 NA
ATOM      3  N   UNL     1      -5.626   4.997 124.068  0.00  0.00    +0.000 NA
ATOM      4  C   UNL     1      -6.526   4.098 124.429  0.00  0.00    +0.000 A 
ATOM      5  N   UNL     1      -6.779   3.297 123.327  0.00  0.00    +0.000 N 
ENDROOT
BRANCH   4   6
ATOM      6  C   UNL     1      -7.086   3.843 125.764  0.00  0.00    +0.000 A 
ATOM      7  C   UNL     1      -8.083   4.652 126.315  0.00  0.00    +0.000 A 
ATOM      8  N   UNL     1      -8.523   4.548 127.600  0.00  0.00    +0.000 NA
ATOM      9  C   UNL     1      -7.923   3.597 128.356  0.00  0.00    +0.000 A 
ATOM     10  C   UNL     1      -6.927   2.788 127.802  0.00  0.00    +0.000 A 
ATOM     11  N   UNL     1      -6.484   2.892 126.513  0.00  0.00    +0.000 NA
BRANCH   9  12
ATOM     12  C   UNL     1      -8.378   3.465 129.752  0.00  0.00    +0.000 A 
ATOM     13  C   UNL     1      -8.634   2.204 130.323  0.00  0.00    +0.000 A 
ATOM     14  C   UNL     1      -9.076   2.088 131.645  0.00  0.00    +0.000 A 
ATOM     15  C   UNL     1      -9.277   3.231 132.410  0.00  0.00    +0.000 A 
ATOM     16  F   UNL     1      -9.706   3.093 133.674  0.00  0.00    +0.000 F 
ATOM     17  C   UNL     1      -9.042   4.499 131.884  0.00  0.00    +0.000 A 
ATOM     18  C   UNL     1      -9.284   5.729 132.708  0.00  0.00    +0.000 C 
ATOM     19  C   UNL     1      -8.583   4.605 130.556  0.00  0.00    +0.000 A 
ENDBRANCH   9  12
ENDBRANCH   4   6
BRANCH   5  20
ATOM     20  C   UNL     1      -7.634   2.189 123.313  0.00  0.00    +0.000 A 
ATOM     21  C   UNL     1      -8.959   2.331 122.924  0.00  0.00    +0.000 A 
ATOM     22  C   UNL     1      -9.742   1.187 122.849  0.00  0.00    +0.000 A 
ATOM     23  C   UNL     1      -9.175  -0.044 123.167  0.00  0.00    +0.000 A 
ATOM     24  N   UNL     1      -7.884  -0.178 123.542  0.00  0.00    +0.000 NA
ATOM     25  C   UNL     1      -7.127   0.933 123.602  0.00  0.00    +0.000 A 
BRANCH  23  26
ATOM     26  O   UNL     1      -9.841  -1.236 123.134  0.00  0.00    +0.000 OA
ATOM     27  C   UNL     1      -9.040  -2.404 123.220  0.00  0.00    +0.000 C 
ENDBRANCH  23  26
ENDBRANCH   5  20
BRANCH   1  28
ATOM     28  C   UNL     1      -5.919   3.080 120.950  0.00  0.00    +0.000 C 
BRANCH  28  30
ATOM     29  C   UNL     1      -7.652   4.213 119.837  0.00  0.00    +0.000 C 
ATOM     30  O   UNL     1      -6.238   4.018 119.922  0.00  0.00    +0.000 OA
ENDBRANCH  28  30
ENDBRANCH   1  28
TORSDOF 6
ENDMDL
MODEL 2
REMARK VINA RESULT:      -7.7      2.151      3.135
REMARK  Name = CHEMBL511265
REMARK  9 active torsions:
REMARK  status: ('A' for Active; 'I' for Inactive)
REMARK    1  A    between atoms: C_1  and  O_2
REMARK    2  A    between atoms: O_2  and  C_3
REMARK    3  A    between atoms: C_3  and  C_4
REMARK    4  A    between atoms: C_7  and  C_8
REMARK    5  A    between atoms: C_11  and  C_12
REMARK    6  A    between atoms: C_17  and  C_18
REMARK    7  A    between atoms: N_22  and  C_23
REMARK    8  A    between atoms: C_26  and  O_27
REMARK    9  A    between atoms: O_27  and  C_28
REMARK                            x       y       z     vdW  Elec       q    Type
REMARK                         _______ _______ _______ _____ _____    ______ ____
ROOT
ATOM      1  C   UNL     1      -6.453   3.466 122.547  0.00  0.00    +0.000 A 
ATOM      2  N   UNL     1      -5.850   4.496 123.116  0.00  0.00    +0.000 NA
ATOM      3  N   UNL     1      -5.994   4.386 124.491  0.00  0.00    +0.000 NA
ATOM      4  C   UNL     1      -6.664   3.277 124.759  0.00  0.00    +0.000 A 
ATOM      5  N   UNL     1      -6.989   2.684 123.551  0.00  0.00    +0.000 N 
ENDROOT
BRANCH   4   6
ATOM      6  C   UNL     1      -6.924   2.655 126.066  0.00  0.00    +0.000 A 
ATOM      7  C   UNL     1      -5.948   1.918 126.741  0.00  0.00    +0.000 A 
ATOM      8  N   UNL     1      -6.187   1.201 127.875  0.00  0.00    +0.000 NA
ATOM      9  C   UNL     1      -7.463   1.222 128.332  0.00  0.00    +0.000 A 
ATOM     10  C   UNL     1      -8.436   1.960 127.654  0.00  0.00    +0.000 A 
ATOM     11  N   UNL     1      -8.198   2.680 126.517  0.00  0.00    +0.000 NA
BRANCH   9  12
ATOM     12  C   UNL     1      -7.749   0.451 129.555  0.00  0.00    +0.000 A 
ATOM     13  C   UNL     1      -8.355   1.051 130.674  0.00  0.00    +0.000 A 
ATOM     14  C   UNL     1      -8.613   0.314 131.836  0.00  0.00    +0.000 A 
ATOM     15  C   UNL     1      -8.261  -1.029 131.896  0.00  0.00    +0.000 A 
ATOM     16  F   UNL     1      -8.514  -1.712 133.022  0.00  0.00    +0.000 F 
ATOM     17  C   UNL     1      -7.654  -1.662 130.814  0.00  0.00    +0.000 A 
ATOM     18  C   UNL     1      -7.254  -3.105 130.895  0.00  0.00    +0.000 C 
ATOM     19  C   UNL     1      -7.410  -0.916 129.644  0.00  0.00    +0.000 A 
ENDBRANCH   9  12
ENDBRANCH   4   6
BRANCH   5  20
ATOM     20  C   UNL     1      -7.652   1.460 123.404  0.00  0.00    +0.000 A 
ATOM     21  C   UNL     1      -6.933   0.272 123.372  0.00  0.00    +0.000 A 
ATOM     22  C   UNL     1      -7.645  -0.918 123.308  0.00  0.00    +0.000 A 
ATOM     23  C   UNL     1      -9.036  -0.875 123.274  0.00  0.00    +0.000 A 
ATOM     24  N   UNL     1      -9.731   0.283 123.309  0.00  0.00    +0.000 NA
ATOM     25  C   UNL     1      -9.035   1.433 123.383  0.00  0.00    +0.000 A 
BRANCH  23  26
ATOM     26  O   UNL     1      -9.844  -1.974 123.207  0.00  0.00    +0.000 OA
ATOM     27  C   UNL     1      -9.314  -3.175 123.744  0.00  0.00    +0.000 C 
ENDBRANCH  23  26
ENDBRANCH   5  20
BRANCH   1  28
ATOM     28  C   UNL     1      -6.557   3.122 121.090  0.00  0.00    +0.000 C 
BRANCH  28  30
ATOM     29  C   UNL     1      -8.740   3.818 120.562  0.00  0.00    +0.000 C 
ATOM     30  O   UNL     1      -7.347   4.089 120.395  0.00  0.00    +0.000 OA
ENDBRANCH  28  30
ENDBRANCH   1  28
TORSDOF 6
ENDMDL
MODEL 3
REMARK VINA RESULT:      -7.3      4.527      9.019
REMARK  Name = CHEMBL511265
REMARK  9 active torsions:
REMARK  status: ('A' for Active; 'I' for Inactive)
REMARK    1  A    between atoms: C_1  and  O_2
REMARK    2  A    between atoms: O_2  and  C_3
REMARK    3  A    between atoms: C_3  and  C_4
REMARK    4  A    between atoms: C_7  and  C_8
REMARK    5  A    between atoms: C_11  and  C_12
REMARK    6  A    between atoms: C_17  and  C_18
REMARK    7  A    between atoms: N_22  and  C_23
REMARK    8  A    between atoms: C_26  and  O_27
REMARK    9  A    between atoms: O_27  and  C_28
REMARK                            x       y       z     vdW  Elec       q    Type
REMARK                         _______ _______ _______ _____ _____    ______ ____
ROOT
ATOM      1  C   UNL     1      -7.327   3.607 132.159  0.00  0.00    +0.000 A 
ATOM      2  N   UNL     1      -6.235   2.878 132.012  0.00  0.00    +0.000 NA
ATOM      3  N   UNL     1      -6.057   2.618 130.661  0.00  0.00    +0.000 NA
ATOM      4  C   UNL     1      -7.028   3.209 129.984  0.00  0.00    +0.000 A 
ATOM      5  N   UNL     1      -7.861   3.824 130.904  0.00  0.00    +0.000 N 
ENDROOT
BRANCH   4   6
ATOM      6  C   UNL     1      -7.178   3.353 128.529  0.00  0.00    +0.000 A 
ATOM      7  C   UNL     1      -7.797   2.374 127.749  0.00  0.00    +0.000 A 
ATOM      8  N   UNL     1      -7.825   2.393 126.387  0.00  0.00    +0.000 NA
ATOM      9  C   UNL     1      -7.191   3.434 125.795  0.00  0.00    +0.000 A 
ATOM     10  C   UNL     1      -6.572   4.412 126.578  0.00  0.00    +0.000 A 
ATOM     11  N   UNL     1      -6.544   4.395 127.945  0.00  0.00    +0.000 NA
BRANCH   9  12
ATOM     12  C   UNL     1      -7.203   3.477 124.322  0.00  0.00    +0.000 A 
ATOM     13  C   UNL     1      -8.326   3.057 123.586  0.00  0.00    +0.000 A 
ATOM     14  C   UNL     1      -8.325   3.090 122.187  0.00  0.00    +0.000 A 
ATOM     15  C   UNL     1      -7.198   3.534 121.506  0.00  0.00    +0.000 A 
ATOM     16  F   UNL     1      -7.220   3.552 120.165  0.00  0.00    +0.000 F 
ATOM     17  C   UNL     1      -6.061   3.953 122.194  0.00  0.00    +0.000 A 
ATOM     18  C   UNL     1      -4.840   4.408 121.453  0.00  0.00    +0.000 C 
ATOM     19  C   UNL     1      -6.077   3.929 123.602  0.00  0.00    +0.000 A 
ENDBRANCH   9  12
ENDBRANCH   4   6
BRANCH   5  20
ATOM     20  C   UNL     1      -8.979   4.605 130.586  0.00  0.00    +0.000 A 
ATOM     21  C   UNL     1      -8.850   5.976 130.410  0.00  0.00    +0.000 A 
ATOM     22  C   UNL     1      -9.973   6.690 130.015  0.00  0.00    +0.000 A 
ATOM     23  C   UNL     1     -11.173   6.012 129.818  0.00  0.00    +0.000 A 
ATOM     24  N   UNL     1     -11.293   4.677 129.988  0.00  0.00    +0.000 NA
ATOM     25  C   UNL     1     -10.198   3.988 130.359  0.00  0.00    +0.000 A 
BRANCH  23  26
ATOM     26  O   UNL     1     -12.343   6.602 129.434  0.00  0.00    +0.000 OA
ATOM     27  C   UNL     1     -12.388   8.018 129.519  0.00  0.00    +0.000 C 
ENDBRANCH  23  26
ENDBRANCH   5  20
BRANCH   1  28
ATOM     28  C   UNL     1      -7.929   4.160 133.418  0.00  0.00    +0.000 C 
BRANCH  28  30
ATOM     29  C   UNL     1      -6.570   5.430 134.855  0.00  0.00    +0.000 C 
ATOM     30  O   UNL     1      -7.410   5.460 133.700  0.00  0.00    +0.000 OA
ENDBRANCH  28  30
ENDBRANCH   1  28
TORSDOF 6
ENDMDL
MODEL 4
REMARK VINA RESULT:      -7.3      3.536      4.492
REMARK  Name = CHEMBL511265
REMARK  9 active torsions:
REMARK  status: ('A' for Active; 'I' for Inactive)
REMARK    1  A    between atoms: C_1  and  O_2
REMARK    2  A    between atoms: O_2  and  C_3
REMARK    3  A    between atoms: C_3  and  C_4
REMARK    4  A    between atoms: C_7  and  C_8
REMARK    5  A    between atoms: C_11  and  C_12
REMARK    6  A    between atoms: C_17  and  C_18
REMARK    7  A    between atoms: N_22  and  C_23
REMARK    8  A    between atoms: C_26  and  O_27
REMARK    9  A    between atoms: O_27  and  C_28
REMARK                            x       y       z     vdW  Elec       q    Type
REMARK                         _______ _______ _______ _____ _____    ______ ____
ROOT
ATOM      1  C   UNL     1      -6.262   3.234 124.030  0.00  0.00    +0.000 A 
ATOM      2  N   UNL     1      -5.549   3.964 124.869  0.00  0.00    +0.000 NA
ATOM      3  N   UNL     1      -5.566   3.350 126.113  0.00  0.00    +0.000 NA
ATOM      4  C   UNL     1      -6.270   2.233 126.023  0.00  0.00    +0.000 A 
ATOM      5  N   UNL     1      -6.743   2.142 124.725  0.00  0.00    +0.000 N 
ENDROOT
BRANCH   4   6
ATOM      6  C   UNL     1      -6.439   1.171 127.026  0.00  0.00    +0.000 A 
ATOM      7  C   UNL     1      -7.497   1.176 127.938  0.00  0.00    +0.000 A 
ATOM      8  N   UNL     1      -7.609   0.301 128.976  0.00  0.00    +0.000 NA
ATOM      9  C   UNL     1      -6.607  -0.603 129.101  0.00  0.00    +0.000 A 
ATOM     10  C   UNL     1      -5.550  -0.606 128.187  0.00  0.00    +0.000 A 
ATOM     11  N   UNL     1      -5.436   0.271 127.144  0.00  0.00    +0.000 NA
BRANCH   9  12
ATOM     12  C   UNL     1      -6.702  -1.559 130.218  0.00  0.00    +0.000 A 
ATOM     13  C   UNL     1      -7.380  -1.232 131.407  0.00  0.00    +0.000 A 
ATOM     14  C   UNL     1      -7.457  -2.142 132.467  0.00  0.00    +0.000 A 
ATOM     15  C   UNL     1      -6.849  -3.386 132.356  0.00  0.00    +0.000 A 
ATOM     16  F   UNL     1      -6.932  -4.239 133.388  0.00  0.00    +0.000 F 
ATOM     17  C   UNL     1      -6.162  -3.751 131.200  0.00  0.00    +0.000 A 
ATOM     18  C   UNL     1      -5.488  -5.086 131.096  0.00  0.00    +0.000 C 
ATOM     19  C   UNL     1      -6.102  -2.834 130.133  0.00  0.00    +0.000 A 
ENDBRANCH   9  12
ENDBRANCH   4   6
BRANCH   5  20
ATOM     20  C   UNL     1      -7.487   1.074 124.209  0.00  0.00    +0.000 A 
ATOM     21  C   UNL     1      -6.845  -0.015 123.635  0.00  0.00    +0.000 A 
ATOM     22  C   UNL     1      -7.626  -1.083 123.214  0.00  0.00    +0.000 A 
ATOM     23  C   UNL     1      -9.007  -1.019 123.377  0.00  0.00    +0.000 A 
ATOM     24  N   UNL     1      -9.628   0.042 123.940  0.00  0.00    +0.000 NA
ATOM     25  C   UNL     1      -8.864   1.069 124.357  0.00  0.00    +0.000 A 
BRANCH  23  26
ATOM     26  O   UNL     1      -9.879  -2.001 123.002  0.00  0.00    +0.000 OA
ATOM     27  C   UNL     1      -9.586  -3.310 123.464  0.00  0.00    +0.000 C 
ENDBRANCH  23  26
ENDBRANCH   5  20
BRANCH   1  28
ATOM     28  C   UNL     1      -6.526   3.463 122.570  0.00  0.00    +0.000 C 
BRANCH  28  30
ATOM     29  C   UNL     1      -5.403   4.279 120.673  0.00  0.00    +0.000 C 
ATOM     30  O   UNL     1      -5.682   4.495 122.058  0.00  0.00    +0.000 OA
ENDBRANCH  28  30
ENDBRANCH   1  28
TORSDOF 6
ENDMDL
MODEL 5
REMARK VINA RESULT:      -7.3      4.581      8.983
REMARK  Name = CHEMBL511265
REMARK  9 active torsions:
REMARK  status: ('A' for Active; 'I' for Inactive)
REMARK    1  A    between atoms: C_1  and  O_2
REMARK    2  A    between atoms: O_2  and  C_3
REMARK    3  A    between atoms: C_3  and  C_4
REMARK    4  A    between atoms: C_7  and  C_8
REMARK    5  A    between atoms: C_11  and  C_12
REMARK    6  A    between atoms: C_17  and  C_18
REMARK    7  A    between atoms: N_22  and  C_23
REMARK    8  A    between atoms: C_26  and  O_27
REMARK    9  A    between atoms: O_27  and  C_28
REMARK                            x       y       z     vdW  Elec       q    Type
REMARK                         _______ _______ _______ _____ _____    ______ ____
ROOT
ATOM      1  C   UNL     1      -6.790   1.042 129.682  0.00  0.00    +0.000 A 
ATOM      2  N   UNL     1      -7.801   0.215 129.481  0.00  0.00    +0.000 NA
ATOM      3  N   UNL     1      -8.284   0.413 128.196  0.00  0.00    +0.000 NA
ATOM      4  C   UNL     1      -7.551   1.345 127.607  0.00  0.00    +0.000 A 
ATOM      5  N   UNL     1      -6.612   1.779 128.528  0.00  0.00    +0.000 N 
ENDROOT
BRANCH   4   6
ATOM      6  C   UNL     1      -7.576   1.782 126.204  0.00  0.00    +0.000 A 
ATOM      7  C   UNL     1      -6.844   1.125 125.212  0.00  0.00    +0.000 A 
ATOM      8  N   UNL     1      -6.717   1.581 123.934  0.00  0.00    +0.000 NA
ATOM      9  C   UNL     1      -7.343   2.751 123.657  0.00  0.00    +0.000 A 
ATOM     10  C   UNL     1      -8.074   3.405 124.651  0.00  0.00    +0.000 A 
ATOM     11  N   UNL     1      -8.204   2.949 125.933  0.00  0.00    +0.000 NA
BRANCH   9  12
ATOM     12  C   UNL     1      -7.218   3.268 122.283  0.00  0.00    +0.000 A 
ATOM     13  C   UNL     1      -5.964   3.596 121.734  0.00  0.00    +0.000 A 
ATOM     14  C   UNL     1      -5.855   4.097 120.433  0.00  0.00    +0.000 A 
ATOM     15  C   UNL     1      -6.998   4.286 119.666  0.00  0.00    +0.000 A 
ATOM     16  F   UNL     1      -6.868   4.772 118.423  0.00  0.00    +0.000 F 
ATOM     17  C   UNL     1      -8.261   3.981 120.170  0.00  0.00    +0.000 A 
ATOM     18  C   UNL     1      -9.492   4.210 119.346  0.00  0.00    +0.000 C 
ATOM     19  C   UNL     1      -8.359   3.464 121.477  0.00  0.00    +0.000 A 
ENDBRANCH   9  12
ENDBRANCH   4   6
BRANCH   5  20
ATOM     20  C   UNL     1      -5.609   2.723 128.275  0.00  0.00    +0.000 A 
ATOM     21  C   UNL     1      -5.820   4.064 128.567  0.00  0.00    +0.000 A 
ATOM     22  C   UNL     1      -4.764   4.945 128.374  0.00  0.00    +0.000 A 
ATOM     23  C   UNL     1      -3.551   4.456 127.897  0.00  0.00    +0.000 A 
ATOM     24  N   UNL     1      -3.350   3.149 127.619  0.00  0.00    +0.000 NA
ATOM     25  C   UNL     1      -4.374   2.298 127.819  0.00  0.00    +0.000 A 
BRANCH  23  26
ATOM     26  O   UNL     1      -2.444   5.221 127.665  0.00  0.00    +0.000 OA
ATOM     27  C   UNL     1      -2.348   6.426 128.408  0.00  0.00    +0.000 C 
ENDBRANCH  23  26
ENDBRANCH   5  20
BRANCH   1  28
ATOM     28  C   UNL     1      -5.925   1.195 130.899  0.00  0.00    +0.000 C 
BRANCH  28  30
ATOM     29  C   UNL     1      -5.779   0.727 133.198  0.00  0.00    +0.000 C 
ATOM     30  O   UNL     1      -6.661   0.893 132.086  0.00  0.00    +0.000 OA
ENDBRANCH  28  30
ENDBRANCH   1  28
TORSDOF 6
ENDMDL
MODEL 6
REMARK VINA RESULT:      -7.2      5.836      8.231
REMARK  Name = CHEMBL511265
REMARK  9 active torsions:
REMARK  status: ('A' for Active; 'I' for Inactive)
REMARK    1  A    between atoms: C_1  and  O_2
REMARK    2  A    between atoms: O_2  and  C_3
REMARK    3  A    between atoms: C_3  and  C_4
REMARK    4  A    between atoms: C_7  and  C_8
REMARK    5  A    between atoms: C_11  and  C_12
REMARK    6  A    between atoms: C_17  and  C_18
REMARK    7  A    between atoms: N_22  and  C_23
REMARK    8  A    between atoms: C_26  and  O_27
REMARK    9  A    between atoms: O_27  and  C_28
REMARK                            x       y       z     vdW  Elec       q    Type
REMARK                         _______ _______ _______ _____ _____    ______ ____
ROOT
ATOM      1  C   UNL     1     -10.171   5.636 130.176  0.00  0.00    +0.000 A 
ATOM      2  N   UNL     1     -11.325   4.998 130.101  0.00  0.00    +0.000 NA
ATOM      3  N   UNL     1     -11.076   3.633 130.109  0.00  0.00    +0.000 NA
ATOM      4  C   UNL     1      -9.771   3.442 130.213  0.00  0.00    +0.000 A 
ATOM      5  N   UNL     1      -9.168   4.689 130.234  0.00  0.00    +0.000 N 
ENDROOT
BRANCH   4   6
ATOM      6  C   UNL     1      -9.040   2.183 130.418  0.00  0.00    +0.000 A 
ATOM      7  C   UNL     1      -8.390   1.525 129.372  0.00  0.00    +0.000 A 
ATOM      8  N   UNL     1      -7.832   0.287 129.481  0.00  0.00    +0.000 NA
ATOM      9  C   UNL     1      -7.949  -0.310 130.692  0.00  0.00    +0.000 A 
ATOM     10  C   UNL     1      -8.601   0.350 131.737  0.00  0.00    +0.000 A 
ATOM     11  N   UNL     1      -9.160   1.592 131.629  0.00  0.00    +0.000 NA
BRANCH   9  12
ATOM     12  C   UNL     1      -7.358  -1.652 130.837  0.00  0.00    +0.000 A 
ATOM     13  C   UNL     1      -7.027  -2.432 129.714  0.00  0.00    +0.000 A 
ATOM     14  C   UNL     1      -6.475  -3.710 129.860  0.00  0.00    +0.000 A 
ATOM     15  C   UNL     1      -6.257  -4.228 131.131  0.00  0.00    +0.000 A 
ATOM     16  F   UNL     1      -5.732  -5.457 131.245  0.00  0.00    +0.000 F 
ATOM     17  C   UNL     1      -6.575  -3.493 132.271  0.00  0.00    +0.000 A 
ATOM     18  C   UNL     1      -6.359  -4.068 133.639  0.00  0.00    +0.000 C 
ATOM     19  C   UNL     1      -7.116  -2.202 132.114  0.00  0.00    +0.000 A 
ENDBRANCH   9  12
ENDBRANCH   4   6
BRANCH   5  20
ATOM     20  C   UNL     1      -7.796   4.920 130.390  0.00  0.00    +0.000 A 
ATOM     21  C   UNL     1      -7.248   5.062 131.658  0.00  0.00    +0.000 A 
ATOM     22  C   UNL     1      -5.872   5.208 131.760  0.00  0.00    +0.000 A 
ATOM     23  C   UNL     1      -5.102   5.210 130.600  0.00  0.00    +0.000 A 
ATOM     24  N   UNL     1      -5.639   5.068 129.368  0.00  0.00    +0.000 NA
ATOM     25  C   UNL     1      -6.974   4.916 129.277  0.00  0.00    +0.000 A 
BRANCH  23  26
ATOM     26  O   UNL     1      -3.744   5.349 130.571  0.00  0.00    +0.000 OA
ATOM     27  C   UNL     1      -3.093   4.896 129.394  0.00  0.00    +0.000 C 
ENDBRANCH  23  26
ENDBRANCH   5  20
BRANCH   1  28
ATOM     28  C   UNL     1      -9.912   7.114 130.222  0.00  0.00    +0.000 C 
BRANCH  28  30
ATOM     29  C   UNL     1     -10.884   8.308 128.446  0.00  0.00    +0.000 C 
ATOM     30  O   UNL     1      -9.711   7.636 128.908  0.00  0.00    +0.000 OA
ENDBRANCH  28  30
ENDBRANCH   1  28
TORSDOF 6
ENDMDL
MODEL 7
REMARK VINA RESULT:      -7.1      4.664      6.397
REMARK  Name = CHEMBL511265
REMARK  9 active torsions:
REMARK  status: ('A' for Active; 'I' for Inactive)
REMARK    1  A    between atoms: C_1  and  O_2
REMARK    2  A    between atoms: O_2  and  C_3
REMARK    3  A    between atoms: C_3  and  C_4
REMARK    4  A    between atoms: C_7  and  C_8
REMARK    5  A    between atoms: C_11  and  C_12
REMARK    6  A    between atoms: C_17  and  C_18
REMARK    7  A    between atoms: N_22  and  C_23
REMARK    8  A    between atoms: C_26  and  O_27
REMARK    9  A    between atoms: O_27  and  C_28
REMARK                            x       y       z     vdW  Elec       q    Type
REMARK                         _______ _______ _______ _____ _____    ______ ____
ROOT
ATOM      1  C   UNL     1      -7.459   0.235 123.782  0.00  0.00    +0.000 A 
ATOM      2  N   UNL     1      -7.240  -0.895 123.133  0.00  0.00    +0.000 NA
ATOM      3  N   UNL     1      -6.875  -1.867 124.052  0.00  0.00    +0.000 NA
ATOM      4  C   UNL     1      -6.895  -1.335 125.263  0.00  0.00    +0.000 A 
ATOM      5  N   UNL     1      -7.238   0.000 125.125  0.00  0.00    +0.000 N 
ENDROOT
BRANCH   4   6
ATOM      6  C   UNL     1      -6.738  -2.003 126.563  0.00  0.00    +0.000 A 
ATOM      7  C   UNL     1      -7.830  -2.504 127.274  0.00  0.00    +0.000 A 
ATOM      8  N   UNL     1      -7.752  -2.992 128.544  0.00  0.00    +0.000 NA
ATOM      9  C   UNL     1      -6.523  -2.960 129.116  0.00  0.00    +0.000 A 
ATOM     10  C   UNL     1      -5.432  -2.459 128.402  0.00  0.00    +0.000 A 
ATOM     11  N   UNL     1      -5.509  -1.969 127.128  0.00  0.00    +0.000 NA
BRANCH   9  12
ATOM     12  C   UNL     1      -6.411  -3.479 130.491  0.00  0.00    +0.000 A 
ATOM     13  C   UNL     1      -5.517  -4.518 130.811  0.00  0.00    +0.000 A 
ATOM     14  C   UNL     1      -5.424  -5.013 132.116  0.00  0.00    +0.000 A 
ATOM     15  C   UNL     1      -6.230  -4.482 133.116  0.00  0.00    +0.000 A 
ATOM     16  F   UNL     1      -6.126  -4.976 134.359  0.00  0.00    +0.000 F 
ATOM     17  C   UNL     1      -7.133  -3.457 132.843  0.00  0.00    +0.000 A 
ATOM     18  C   UNL     1      -8.017  -2.905 133.922  0.00  0.00    +0.000 C 
ATOM     19  C   UNL     1      -7.210  -2.956 131.529  0.00  0.00    +0.000 A 
ENDBRANCH   9  12
ENDBRANCH   4   6
BRANCH   5  20
ATOM     20  C   UNL     1      -7.421   0.901 126.181  0.00  0.00    +0.000 A 
ATOM     21  C   UNL     1      -6.360   1.674 126.634  0.00  0.00    +0.000 A 
ATOM     22  C   UNL     1      -6.616   2.609 127.628  0.00  0.00    +0.000 A 
ATOM     23  C   UNL     1      -7.909   2.731 128.128  0.00  0.00    +0.000 A 
ATOM     24  N   UNL     1      -8.939   1.979 127.681  0.00  0.00    +0.000 NA
ATOM     25  C   UNL     1      -8.687   1.082 126.710  0.00  0.00    +0.000 A 
BRANCH  23  26
ATOM     26  O   UNL     1      -8.283   3.610 129.105  0.00  0.00    +0.000 OA
ATOM     27  C   UNL     1      -9.101   3.086 130.139  0.00  0.00    +0.000 C 
ENDBRANCH  23  26
ENDBRANCH   5  20
BRANCH   1  28
ATOM     28  C   UNL     1      -7.895   1.565 123.239  0.00  0.00    +0.000 C 
BRANCH  28  30
ATOM     29  C   UNL     1      -6.497   3.450 123.358  0.00  0.00    +0.000 C 
ATOM     30  O   UNL     1      -6.798   2.253 122.638  0.00  0.00    +0.000 OA
ENDBRANCH  28  30
ENDBRANCH   1  28
TORSDOF 6
ENDMDL
MODEL 8
REMARK VINA RESULT:      -7.0      4.327      5.847
REMARK  Name = CHEMBL511265
REMARK  9 active torsions:
REMARK  status: ('A' for Active; 'I' for Inactive)
REMARK    1  A    between atoms: C_1  and  O_2
REMARK    2  A    between atoms: O_2  and  C_3
REMARK    3  A    between atoms: C_3  and  C_4
REMARK    4  A    between atoms: C_7  and  C_8
REMARK    5  A    between atoms: C_11  and  C_12
REMARK    6  A    between atoms: C_17  and  C_18
REMARK    7  A    between atoms: N_22  and  C_23
REMARK    8  A    between atoms: C_26  and  O_27
REMARK    9  A    between atoms: O_27  and  C_28
REMARK                            x       y       z     vdW  Elec       q    Type
REMARK                         _______ _______ _______ _____ _____    ______ ____
ROOT
ATOM      1  C   UNL     1      -7.597  -0.100 124.015  0.00  0.00    +0.000 A 
ATOM      2  N   UNL     1      -7.569   0.968 123.237  0.00  0.00    +0.000 NA
ATOM      3  N   UNL     1      -6.974   2.007 123.936  0.00  0.00    +0.000 NA
ATOM      4  C   UNL     1      -6.618   1.565 125.131  0.00  0.00    +0.000 A 
ATOM      5  N   UNL     1      -7.019   0.242 125.222  0.00  0.00    +0.000 N 
ENDROOT
BRANCH   4   6
ATOM      6  C   UNL     1      -5.818   2.244 126.160  0.00  0.00    +0.000 A 
ATOM      7  C   UNL     1      -6.382   3.162 127.049  0.00  0.00    +0.000 A 
ATOM      8  N   UNL     1      -5.658   3.924 127.916  0.00  0.00    +0.000 NA
ATOM      9  C   UNL     1      -4.314   3.759 127.870  0.00  0.00    +0.000 A 
ATOM     10  C   UNL     1      -3.752   2.840 126.980  0.00  0.00    +0.000 A 
ATOM     11  N   UNL     1      -4.477   2.074 126.111  0.00  0.00    +0.000 NA
BRANCH   9  12
ATOM     12  C   UNL     1      -3.507   4.574 128.795  0.00  0.00    +0.000 A 
ATOM     13  C   UNL     1      -2.832   5.728 128.356  0.00  0.00    +0.000 A 
ATOM     14  C   UNL     1      -2.058   6.491 129.238  0.00  0.00    +0.000 A 
ATOM     15  C   UNL     1      -1.943   6.105 130.568  0.00  0.00    +0.000 A 
ATOM     16  F   UNL     1      -1.192   6.850 131.392  0.00  0.00    +0.000 F 
ATOM     17  C   UNL     1      -2.589   4.967 131.045  0.00  0.00    +0.000 A 
ATOM     18  C   UNL     1      -2.441   4.543 132.476  0.00  0.00    +0.000 C 
ATOM     19  C   UNL     1      -3.377   4.213 130.153  0.00  0.00    +0.000 A 
ENDBRANCH   9  12
ENDBRANCH   4   6
BRANCH   5  20
ATOM     20  C   UNL     1      -6.777  -0.602 126.312  0.00  0.00    +0.000 A 
ATOM     21  C   UNL     1      -5.614  -1.359 126.368  0.00  0.00    +0.000 A 
ATOM     22  C   UNL     1      -5.386  -2.116 127.509  0.00  0.00    +0.000 A 
ATOM     23  C   UNL     1      -6.322  -2.092 128.538  0.00  0.00    +0.000 A 
ATOM     24  N   UNL     1      -7.451  -1.351 128.480  0.00  0.00    +0.000 NA
ATOM     25  C   UNL     1      -7.661  -0.610 127.376  0.00  0.00    +0.000 A 
BRANCH  23  26
ATOM     26  O   UNL     1      -6.212  -2.793 129.705  0.00  0.00    +0.000 OA
ATOM     27  C   UNL     1      -7.393  -2.907 130.482  0.00  0.00    +0.000 C 
ENDBRANCH  23  26
ENDBRANCH   5  20
BRANCH   1  28
ATOM     28  C   UNL     1      -8.118  -1.475 123.712  0.00  0.00    +0.000 C 
BRANCH  28  30
ATOM     29  C   UNL     1      -9.354  -2.945 125.067  0.00  0.00    +0.000 C 
ATOM     30  O   UNL     1      -9.368  -1.700 124.365  0.00  0.00    +0.000 OA
ENDBRANCH  28  30
ENDBRANCH   1  28
TORSDOF 6
ENDMDL
MODEL 9
REMARK VINA RESULT:      -6.9      6.342      8.443
REMARK  Name = CHEMBL511265
REMARK  9 active torsions:
REMARK  status: ('A' for Active; 'I' for Inactive)
REMARK    1  A    between atoms: C_1  and  O_2
REMARK    2  A    between atoms: O_2  and  C_3
REMARK    3  A    between atoms: C_3  and  C_4
REMARK    4  A    between atoms: C_7  and  C_8
REMARK    5  A    between atoms: C_11  and  C_12
REMARK    6  A    between atoms: C_17  and  C_18
REMARK    7  A    between atoms: N_22  and  C_23
REMARK    8  A    between atoms: C_26  and  O_27
REMARK    9  A    between atoms: O_27  and  C_28
REMARK                            x       y       z     vdW  Elec       q    Type
REMARK                         _______ _______ _______ _____ _____    ______ ____
ROOT
ATOM      1  C   UNL     1      -5.753   0.384 132.237  0.00  0.00    +0.000 A 
ATOM      2  N   UNL     1      -6.734  -0.356 132.724  0.00  0.00    +0.000 NA
ATOM      3  N   UNL     1      -7.899   0.397 132.714  0.00  0.00    +0.000 NA
ATOM      4  C   UNL     1      -7.631   1.586 132.199  0.00  0.00    +0.000 A 
ATOM      5  N   UNL     1      -6.277   1.618 131.908  0.00  0.00    +0.000 N 
ENDROOT
BRANCH   4   6
ATOM      6  C   UNL     1      -8.565   2.662 131.839  0.00  0.00    +0.000 A 
ATOM      7  C   UNL     1      -9.095   2.784 130.553  0.00  0.00    +0.000 A 
ATOM      8  N   UNL     1      -9.840   3.844 130.134  0.00  0.00    +0.000 NA
ATOM      9  C   UNL     1     -10.045   4.823 131.049  0.00  0.00    +0.000 A 
ATOM     10  C   UNL     1      -9.514   4.699 132.335  0.00  0.00    +0.000 A 
ATOM     11  N   UNL     1      -8.766   3.635 132.757  0.00  0.00    +0.000 NA
BRANCH   9  12
ATOM     12  C   UNL     1     -10.845   5.984 130.621  0.00  0.00    +0.000 A 
ATOM     13  C   UNL     1     -11.914   6.464 131.399  0.00  0.00    +0.000 A 
ATOM     14  C   UNL     1     -12.675   7.561 130.980  0.00  0.00    +0.000 A 
ATOM     15  C   UNL     1     -12.384   8.185 129.773  0.00  0.00    +0.000 A 
ATOM     16  F   UNL     1     -13.132   9.231 129.391  0.00  0.00    +0.000 F 
ATOM     17  C   UNL     1     -11.338   7.740 128.968  0.00  0.00    +0.000 A 
ATOM     18  C   UNL     1     -11.044   8.403 127.655  0.00  0.00    +0.000 C 
ATOM     19  C   UNL     1     -10.568   6.644 129.405  0.00  0.00    +0.000 A 
ENDBRANCH   9  12
ENDBRANCH   4   6
BRANCH   5  20
ATOM     20  C   UNL     1      -5.607   2.684 131.297  0.00  0.00    +0.000 A 
ATOM     21  C   UNL     1      -5.493   2.741 129.914  0.00  0.00    +0.000 A 
ATOM     22  C   UNL     1      -4.892   3.860 129.356  0.00  0.00    +0.000 A 
ATOM     23  C   UNL     1      -4.427   4.870 130.194  0.00  0.00    +0.000 A 
ATOM     24  N   UNL     1      -4.543   4.812 131.540  0.00  0.00    +0.000 NA
ATOM     25  C   UNL     1      -5.138   3.729 132.074  0.00  0.00    +0.000 A 
BRANCH  23  26
ATOM     26  O   UNL     1      -3.817   6.014 129.766  0.00  0.00    +0.000 OA
ATOM     27  C   UNL     1      -2.621   6.375 130.438  0.00  0.00    +0.000 C 
ENDBRANCH  23  26
ENDBRANCH   5  20
BRANCH   1  28
ATOM     28  C   UNL     1      -4.313   0.016 132.022  0.00  0.00    +0.000 C 
BRANCH  28  30
ATOM     29  C   UNL     1      -3.686  -1.811 130.683  0.00  0.00    +0.000 C 
ATOM     30  O   UNL     1      -4.100  -0.443 130.686  0.00  0.00    +0.000 OA
ENDBRANCH  28  30
ENDBRANCH   1  28
TORSDOF 6
ENDMDL
