MODEL 1
REMARK VINA RESULT:      -8.3      0.000      0.000
REMARK  Name = CHEMBL467545
REMARK  6 active torsions:
REMARK  status: ('A' for Active; 'I' for Inactive)
REMARK    1  A    between atoms: C_1  and  O_2
REMARK    2  A    between atoms: O_2  and  C_3
REMARK    3  A    between atoms: C_6  and  N_7
REMARK    4  A    between atoms: C_8  and  C_9
REMARK    5  A    between atoms: C_12  and  C_13
REMARK    6  A    between atoms: C_16  and  C_17
REMARK                            x       y       z     vdW  Elec       q    Type
REMARK                         _______ _______ _______ _____ _____    ______ ____
ROOT
ATOM      1  N   UNL     1      -7.575   0.432 127.057  0.00  0.00    +0.000 N 
ATOM      2  C   UNL     1      -7.925   0.425 128.407  0.00  0.00    +0.000 A 
ATOM      3  C   UNL     1      -7.673  -0.611 129.444  0.00  0.00    +0.000 C 
ATOM      4  N   UNL     1      -8.443   1.599 128.719  0.00  0.00    +0.000 NA
ATOM      5  N   UNL     1      -8.439   2.390 127.612  0.00  0.00    +0.000 NA
ATOM      6  C   UNL     1      -7.937   1.700 126.599  0.00  0.00    +0.000 A 
ENDROOT
BRANCH   1  10
ATOM      7  C   UNL     1      -6.066  -2.490 124.475  0.00  0.00    +0.000 A 
ATOM      8  C   UNL     1      -5.202  -1.504 124.925  0.00  0.00    +0.000 A 
ATOM      9  C   UNL     1      -5.689  -0.543 125.821  0.00  0.00    +0.000 A 
ATOM     10  C   UNL     1      -7.022  -0.599 126.245  0.00  0.00    +0.000 A 
ATOM     11  C   UNL     1      -7.826  -1.586 125.699  0.00  0.00    +0.000 A 
ATOM     12  N   UNL     1      -7.372  -2.523 124.823  0.00  0.00    +0.000 NA
BRANCH   7  14
ATOM     13  C   UNL     1      -4.480  -4.124 123.928  0.00  0.00    +0.000 C 
ATOM     14  O   UNL     1      -5.679  -3.441 123.565  0.00  0.00    +0.000 OA
ENDBRANCH   7  14
ENDBRANCH   1  10
BRANCH   6  15
ATOM     15  C   UNL     1      -7.914   2.161 125.216  0.00  0.00    +0.000 A 
ATOM     16  C   UNL     1      -8.848   1.742 124.273  0.00  0.00    +0.000 A 
ATOM     17  N   UNL     1      -8.832   2.156 122.981  0.00  0.00    +0.000 NA
ATOM     18  C   UNL     1      -7.877   3.060 122.650  0.00  0.00    +0.000 A 
ATOM     19  C   UNL     1      -6.944   3.478 123.599  0.00  0.00    +0.000 A 
ATOM     20  N   UNL     1      -6.929   3.031 124.884  0.00  0.00    +0.000 NA
BRANCH  18  21
ATOM     21  C   UNL     1      -7.884   3.539 121.261  0.00  0.00    +0.000 A 
ATOM     22  C   UNL     1      -9.105   3.701 120.575  0.00  0.00    +0.000 A 
ATOM     23  C   UNL     1      -9.148   4.209 119.271  0.00  0.00    +0.000 A 
ATOM     24  C   UNL     1      -7.969   4.566 118.623  0.00  0.00    +0.000 A 
ATOM     25  C   UNL     1      -6.748   4.393 119.270  0.00  0.00    +0.000 A 
ATOM     26  C   UNL     1      -6.701   3.879 120.573  0.00  0.00    +0.000 A 
ATOM     27 CL   UNL     1      -5.132   3.635 121.263  0.00  0.00    +0.000 Cl
ENDBRANCH  18  21
ENDBRANCH   6  15
TORSDOF 4
ENDMDL
MODEL 2
REMARK VINA RESULT:      -8.1      4.071      7.761
REMARK  Name = CHEMBL467545
REMARK  6 active torsions:
REMARK  status: ('A' for Active; 'I' for Inactive)
REMARK    1  A    between atoms: C_1  and  O_2
REMARK    2  A    between atoms: O_2  and  C_3
REMARK    3  A    between atoms: C_6  and  N_7
REMARK    4  A    between atoms: C_8  and  C_9
REMARK    5  A    between atoms: C_12  and  C_13
REMARK    6  A    between atoms: C_16  and  C_17
REMARK                            x       y       z     vdW  Elec       q    Type
REMARK                         _______ _______ _______ _____ _____    ______ ____
ROOT
ATOM      1  N   UNL     1      -7.086   3.260 124.960  0.00  0.00    +0.000 N 
ATOM      2  C   UNL     1      -6.442   3.712 123.808  0.00  0.00    +0.000 A 
ATOM      3  C   UNL     1      -6.415   3.118 122.445  0.00  0.00    +0.000 C 
ATOM      4  N   UNL     1      -5.912   4.897 124.052  0.00  0.00    +0.000 NA
ATOM      5  N   UNL     1      -6.196   5.249 125.336  0.00  0.00    +0.000 NA
ATOM      6  C   UNL     1      -6.885   4.270 125.902  0.00  0.00    +0.000 A 
ENDROOT
BRANCH   1  10
ATOM      7  C   UNL     1      -9.104  -0.368 125.449  0.00  0.00    +0.000 A 
ATOM      8  C   UNL     1      -7.738  -0.342 125.682  0.00  0.00    +0.000 A 
ATOM      9  C   UNL     1      -7.060   0.877 125.559  0.00  0.00    +0.000 A 
ATOM     10  C   UNL     1      -7.767   2.036 125.212  0.00  0.00    +0.000 A 
ATOM     11  C   UNL     1      -9.120   1.902 124.942  0.00  0.00    +0.000 A 
ATOM     12  N   UNL     1      -9.793   0.725 125.051  0.00  0.00    +0.000 NA
BRANCH   7  14
ATOM     13  C   UNL     1      -9.120  -2.622 126.084  0.00  0.00    +0.000 C 
ATOM     14  O   UNL     1      -9.833  -1.529 125.506  0.00  0.00    +0.000 OA
ENDBRANCH   7  14
ENDBRANCH   1  10
BRANCH   6  15
ATOM     15  C   UNL     1      -7.235   4.217 127.317  0.00  0.00    +0.000 A 
ATOM     16  C   UNL     1      -6.408   3.632 128.271  0.00  0.00    +0.000 A 
ATOM     17  N   UNL     1      -6.727   3.568 129.588  0.00  0.00    +0.000 NA
ATOM     18  C   UNL     1      -7.890   4.161 129.956  0.00  0.00    +0.000 A 
ATOM     19  C   UNL     1      -8.714   4.748 128.996  0.00  0.00    +0.000 A 
ATOM     20  N   UNL     1      -8.420   4.775 127.669  0.00  0.00    +0.000 NA
BRANCH  18  21
ATOM     21  C   UNL     1      -8.216   4.127 131.388  0.00  0.00    +0.000 A 
ATOM     22  C   UNL     1      -8.940   3.041 131.922  0.00  0.00    +0.000 A 
ATOM     23  C   UNL     1      -9.217   2.953 133.292  0.00  0.00    +0.000 A 
ATOM     24  C   UNL     1      -8.776   3.949 134.158  0.00  0.00    +0.000 A 
ATOM     25  C   UNL     1      -8.080   5.044 133.652  0.00  0.00    +0.000 A 
ATOM     26  C   UNL     1      -7.807   5.138 132.281  0.00  0.00    +0.000 A 
ATOM     27 CL   UNL     1      -6.999   6.572 131.740  0.00  0.00    +0.000 Cl
ENDBRANCH  18  21
ENDBRANCH   6  15
TORSDOF 4
ENDMDL
MODEL 3
REMARK VINA RESULT:      -7.9      4.498      6.591
REMARK  Name = CHEMBL467545
REMARK  6 active torsions:
REMARK  status: ('A' for Active; 'I' for Inactive)
REMARK    1  A    between atoms: C_1  and  O_2
REMARK    2  A    between atoms: O_2  and  C_3
REMARK    3  A    between atoms: C_6  and  N_7
REMARK    4  A    between atoms: C_8  and  C_9
REMARK    5  A    between atoms: C_12  and  C_13
REMARK    6  A    between atoms: C_16  and  C_17
REMARK                            x       y       z     vdW  Elec       q    Type
REMARK                         _______ _______ _______ _____ _____    ______ ____
ROOT
ATOM      1  N   UNL     1      -7.454   4.094 129.429  0.00  0.00    +0.000 N 
ATOM      2  C   UNL     1      -8.055   4.992 130.312  0.00  0.00    +0.000 A 
ATOM      3  C   UNL     1      -7.501   6.227 130.928  0.00  0.00    +0.000 C 
ATOM      4  N   UNL     1      -9.326   4.662 130.456  0.00  0.00    +0.000 NA
ATOM      5  N   UNL     1      -9.587   3.572 129.684  0.00  0.00    +0.000 NA
ATOM      6  C   UNL     1      -8.471   3.206 129.074  0.00  0.00    +0.000 A 
ENDROOT
BRANCH   1  10
ATOM      7  C   UNL     1      -3.477   4.086 128.142  0.00  0.00    +0.000 A 
ATOM      8  C   UNL     1      -3.744   3.701 129.446  0.00  0.00    +0.000 A 
ATOM      9  C   UNL     1      -5.077   3.663 129.874  0.00  0.00    +0.000 A 
ATOM     10  C   UNL     1      -6.104   4.006 128.986  0.00  0.00    +0.000 A 
ATOM     11  C   UNL     1      -5.738   4.433 127.720  0.00  0.00    +0.000 A 
ATOM     12  N   UNL     1      -4.449   4.483 127.289  0.00  0.00    +0.000 NA
BRANCH   7  14
ATOM     13  C   UNL     1      -1.815   3.104 126.816  0.00  0.00    +0.000 C 
ATOM     14  O   UNL     1      -2.197   4.192 127.658  0.00  0.00    +0.000 OA
ENDBRANCH   7  14
ENDBRANCH   1  10
BRANCH   6  15
ATOM     15  C   UNL     1      -8.321   1.989 128.284  0.00  0.00    +0.000 A 
ATOM     16  C   UNL     1      -7.858   0.796 128.831  0.00  0.00    +0.000 A 
ATOM     17  N   UNL     1      -7.706  -0.340 128.106  0.00  0.00    +0.000 NA
ATOM     18  C   UNL     1      -8.083  -0.280 126.804  0.00  0.00    +0.000 A 
ATOM     19  C   UNL     1      -8.548   0.918 126.262  0.00  0.00    +0.000 A 
ATOM     20  N   UNL     1      -8.660   2.071 126.975  0.00  0.00    +0.000 NA
BRANCH  18  21
ATOM     21  C   UNL     1      -7.956  -1.520 126.029  0.00  0.00    +0.000 A 
ATOM     22  C   UNL     1      -9.060  -2.388 125.895  0.00  0.00    +0.000 A 
ATOM     23  C   UNL     1      -8.985  -3.549 125.116  0.00  0.00    +0.000 A 
ATOM     24  C   UNL     1      -7.805  -3.868 124.452  0.00  0.00    +0.000 A 
ATOM     25  C   UNL     1      -6.693  -3.041 124.587  0.00  0.00    +0.000 A 
ATOM     26  C   UNL     1      -6.762  -1.882 125.372  0.00  0.00    +0.000 A 
ATOM     27 CL   UNL     1      -5.306  -0.958 125.534  0.00  0.00    +0.000 Cl
ENDBRANCH  18  21
ENDBRANCH   6  15
TORSDOF 4
ENDMDL
MODEL 4
REMARK VINA RESULT:      -7.9      7.851      8.852
REMARK  Name = CHEMBL467545
REMARK  6 active torsions:
REMARK  status: ('A' for Active; 'I' for Inactive)
REMARK    1  A    between atoms: C_1  and  O_2
REMARK    2  A    between atoms: O_2  and  C_3
REMARK    3  A    between atoms: C_6  and  N_7
REMARK    4  A    between atoms: C_8  and  C_9
REMARK    5  A    between atoms: C_12  and  C_13
REMARK    6  A    between atoms: C_16  and  C_17
REMARK                            x       y       z     vdW  Elec       q    Type
REMARK                         _______ _______ _______ _____ _____    ______ ____
ROOT
ATOM      1  N   UNL     1      -6.252   2.993 132.381  0.00  0.00    +0.000 N 
ATOM      2  C   UNL     1      -6.004   1.859 133.156  0.00  0.00    +0.000 A 
ATOM      3  C   UNL     1      -4.708   1.220 133.507  0.00  0.00    +0.000 C 
ATOM      4  N   UNL     1      -7.140   1.452 133.692  0.00  0.00    +0.000 NA
ATOM      5  N   UNL     1      -8.137   2.291 133.300  0.00  0.00    +0.000 NA
ATOM      6  C   UNL     1      -7.625   3.213 132.498  0.00  0.00    +0.000 A 
ENDROOT
BRANCH   1  10
ATOM      7  C   UNL     1      -3.465   5.181 130.163  0.00  0.00    +0.000 A 
ATOM      8  C   UNL     1      -4.038   4.065 129.575  0.00  0.00    +0.000 A 
ATOM      9  C   UNL     1      -5.002   3.349 130.296  0.00  0.00    +0.000 A 
ATOM     10  C   UNL     1      -5.369   3.770 131.580  0.00  0.00    +0.000 A 
ATOM     11  C   UNL     1      -4.700   4.863 132.109  0.00  0.00    +0.000 A 
ATOM     12  N   UNL     1      -3.757   5.567 131.426  0.00  0.00    +0.000 NA
BRANCH   7  14
ATOM     13  C   UNL     1      -2.829   6.324 128.220  0.00  0.00    +0.000 C 
ATOM     14  O   UNL     1      -2.483   5.912 129.542  0.00  0.00    +0.000 OA
ENDBRANCH   7  14
ENDBRANCH   1  10
BRANCH   6  15
ATOM     15  C   UNL     1      -8.412   4.193 131.757  0.00  0.00    +0.000 A 
ATOM     16  C   UNL     1      -9.212   3.844 130.674  0.00  0.00    +0.000 A 
ATOM     17  N   UNL     1      -9.941   4.747 129.971  0.00  0.00    +0.000 NA
ATOM     18  C   UNL     1      -9.900   6.029 130.413  0.00  0.00    +0.000 A 
ATOM     19  C   UNL     1      -9.098   6.373 131.501  0.00  0.00    +0.000 A 
ATOM     20  N   UNL     1      -8.331   5.478 132.180  0.00  0.00    +0.000 NA
BRANCH  18  21
ATOM     21  C   UNL     1     -10.720   7.000 129.677  0.00  0.00    +0.000 A 
ATOM     22  C   UNL     1     -10.301   7.466 128.413  0.00  0.00    +0.000 A 
ATOM     23  C   UNL     1     -11.088   8.348 127.663  0.00  0.00    +0.000 A 
ATOM     24  C   UNL     1     -12.313   8.784 128.159  0.00  0.00    +0.000 A 
ATOM     25  C   UNL     1     -12.738   8.358 129.415  0.00  0.00    +0.000 A 
ATOM     26  C   UNL     1     -11.950   7.480 130.171  0.00  0.00    +0.000 A 
ATOM     27 CL   UNL     1     -12.532   7.066 131.749  0.00  0.00    +0.000 Cl
ENDBRANCH  18  21
ENDBRANCH   6  15
TORSDOF 4
ENDMDL
MODEL 5
REMARK VINA RESULT:      -7.8      3.146      7.124
REMARK  Name = CHEMBL467545
REMARK  6 active torsions:
REMARK  status: ('A' for Active; 'I' for Inactive)
REMARK    1  A    between atoms: C_1  and  O_2
REMARK    2  A    between atoms: O_2  and  C_3
REMARK    3  A    between atoms: C_6  and  N_7
REMARK    4  A    between atoms: C_8  and  C_9
REMARK    5  A    between atoms: C_12  and  C_13
REMARK    6  A    between atoms: C_16  and  C_17
REMARK                            x       y       z     vdW  Elec       q    Type
REMARK                         _______ _______ _______ _____ _____    ______ ____
ROOT
ATOM      1  N   UNL     1      -6.665   3.099 123.070  0.00  0.00    +0.000 N 
ATOM      2  C   UNL     1      -5.949   3.730 122.053  0.00  0.00    +0.000 A 
ATOM      3  C   UNL     1      -5.983   3.495 120.585  0.00  0.00    +0.000 C 
ATOM      4  N   UNL     1      -5.266   4.734 122.573  0.00  0.00    +0.000 NA
ATOM      5  N   UNL     1      -5.517   4.791 123.909  0.00  0.00    +0.000 NA
ATOM      6  C   UNL     1      -6.342   3.806 124.228  0.00  0.00    +0.000 A 
ENDROOT
BRANCH   1  10
ATOM      7  C   UNL     1      -9.125  -0.280 123.186  0.00  0.00    +0.000 A 
ATOM      8  C   UNL     1      -9.720   0.957 122.991  0.00  0.00    +0.000 A 
ATOM      9  C   UNL     1      -8.900   2.090 122.911  0.00  0.00    +0.000 A 
ATOM     10  C   UNL     1      -7.511   1.954 123.023  0.00  0.00    +0.000 A 
ATOM     11  C   UNL     1      -7.010   0.686 123.274  0.00  0.00    +0.000 A 
ATOM     12  N   UNL     1      -7.792  -0.424 123.360  0.00  0.00    +0.000 NA
BRANCH   7  14
ATOM     13  C   UNL     1      -9.064  -2.588 123.579  0.00  0.00    +0.000 C 
ATOM     14  O   UNL     1      -9.859  -1.431 123.318  0.00  0.00    +0.000 OA
ENDBRANCH   7  14
ENDBRANCH   1  10
BRANCH   6  15
ATOM     15  C   UNL     1      -6.717   3.451 125.593  0.00  0.00    +0.000 A 
ATOM     16  C   UNL     1      -7.889   3.905 126.188  0.00  0.00    +0.000 A 
ATOM     17  N   UNL     1      -8.244   3.590 127.459  0.00  0.00    +0.000 NA
ATOM     18  C   UNL     1      -7.415   2.749 128.125  0.00  0.00    +0.000 A 
ATOM     19  C   UNL     1      -6.242   2.295 127.523  0.00  0.00    +0.000 A 
ATOM     20  N   UNL     1      -5.860   2.644 126.265  0.00  0.00    +0.000 NA
BRANCH  18  21
ATOM     21  C   UNL     1      -7.819   2.375 129.487  0.00  0.00    +0.000 A 
ATOM     22  C   UNL     1      -8.332   1.087 129.744  0.00  0.00    +0.000 A 
ATOM     23  C   UNL     1      -8.672   0.684 131.041  0.00  0.00    +0.000 A 
ATOM     24  C   UNL     1      -8.507   1.559 132.110  0.00  0.00    +0.000 A 
ATOM     25  C   UNL     1      -8.026   2.845 131.879  0.00  0.00    +0.000 A 
ATOM     26  C   UNL     1      -7.690   3.255 130.582  0.00  0.00    +0.000 A 
ATOM     27 CL   UNL     1      -7.168   4.895 130.388  0.00  0.00    +0.000 Cl
ENDBRANCH  18  21
ENDBRANCH   6  15
TORSDOF 4
ENDMDL
MODEL 6
REMARK VINA RESULT:      -7.8      4.372      6.464
REMARK  Name = CHEMBL467545
REMARK  6 active torsions:
REMARK  status: ('A' for Active; 'I' for Inactive)
REMARK    1  A    between atoms: C_1  and  O_2
REMARK    2  A    between atoms: O_2  and  C_3
REMARK    3  A    between atoms: C_6  and  N_7
REMARK    4  A    between atoms: C_8  and  C_9
REMARK    5  A    between atoms: C_12  and  C_13
REMARK    6  A    between atoms: C_16  and  C_17
REMARK                            x       y       z     vdW  Elec       q    Type
REMARK                         _______ _______ _______ _____ _____    ______ ____
ROOT
ATOM      1  N   UNL     1      -8.418   3.781 129.474  0.00  0.00    +0.000 N 
ATOM      2  C   UNL     1      -8.964   5.035 129.754  0.00  0.00    +0.000 A 
ATOM      3  C   UNL     1      -9.297   5.650 131.066  0.00  0.00    +0.000 C 
ATOM      4  N   UNL     1      -9.045   5.724 128.631  0.00  0.00    +0.000 NA
ATOM      5  N   UNL     1      -8.558   4.965 127.612  0.00  0.00    +0.000 NA
ATOM      6  C   UNL     1      -8.193   3.788 128.097  0.00  0.00    +0.000 A 
ENDROOT
BRANCH   1  10
ATOM      7  C   UNL     1      -7.683   0.695 132.197  0.00  0.00    +0.000 A 
ATOM      8  C   UNL     1      -8.962   0.821 131.680  0.00  0.00    +0.000 A 
ATOM      9  C   UNL     1      -9.208   1.827 130.737  0.00  0.00    +0.000 A 
ATOM     10  C   UNL     1      -8.169   2.675 130.335  0.00  0.00    +0.000 A 
ATOM     11  C   UNL     1      -6.937   2.511 130.949  0.00  0.00    +0.000 A 
ATOM     12  N   UNL     1      -6.681   1.544 131.870  0.00  0.00    +0.000 NA
BRANCH   7  14
ATOM     13  C   UNL     1      -7.741  -1.567 132.799  0.00  0.00    +0.000 C 
ATOM     14  O   UNL     1      -7.370  -0.236 133.155  0.00  0.00    +0.000 OA
ENDBRANCH   7  14
ENDBRANCH   1  10
BRANCH   6  15
ATOM     15  C   UNL     1      -7.769   2.654 127.283  0.00  0.00    +0.000 A 
ATOM     16  C   UNL     1      -6.447   2.467 126.892  0.00  0.00    +0.000 A 
ATOM     17  N   UNL     1      -6.041   1.422 126.128  0.00  0.00    +0.000 NA
ATOM     18  C   UNL     1      -6.992   0.513 125.797  0.00  0.00    +0.000 A 
ATOM     19  C   UNL     1      -8.316   0.704 126.194  0.00  0.00    +0.000 A 
ATOM     20  N   UNL     1      -8.734   1.774 126.922  0.00  0.00    +0.000 NA
BRANCH  18  21
ATOM     21  C   UNL     1      -6.546  -0.639 125.003  0.00  0.00    +0.000 A 
ATOM     22  C   UNL     1      -6.813  -0.690 123.619  0.00  0.00    +0.000 A 
ATOM     23  C   UNL     1      -6.352  -1.747 122.826  0.00  0.00    +0.000 A 
ATOM     24  C   UNL     1      -5.613  -2.778 123.399  0.00  0.00    +0.000 A 
ATOM     25  C   UNL     1      -5.357  -2.764 124.767  0.00  0.00    +0.000 A 
ATOM     26  C   UNL     1      -5.822  -1.710 125.565  0.00  0.00    +0.000 A 
ATOM     27 CL   UNL     1      -5.514  -1.820 127.266  0.00  0.00    +0.000 Cl
ENDBRANCH  18  21
ENDBRANCH   6  15
TORSDOF 4
ENDMDL
MODEL 7
REMARK VINA RESULT:      -7.7      4.206      8.844
REMARK  Name = CHEMBL467545
REMARK  6 active torsions:
REMARK  status: ('A' for Active; 'I' for Inactive)
REMARK    1  A    between atoms: C_1  and  O_2
REMARK    2  A    between atoms: O_2  and  C_3
REMARK    3  A    between atoms: C_6  and  N_7
REMARK    4  A    between atoms: C_8  and  C_9
REMARK    5  A    between atoms: C_12  and  C_13
REMARK    6  A    between atoms: C_16  and  C_17
REMARK                            x       y       z     vdW  Elec       q    Type
REMARK                         _______ _______ _______ _____ _____    ______ ____
ROOT
ATOM      1  N   UNL     1      -8.830  -0.827 124.638  0.00  0.00    +0.000 N 
ATOM      2  C   UNL     1      -9.524  -0.970 123.436  0.00  0.00    +0.000 A 
ATOM      3  C   UNL     1      -9.849   0.051 122.404  0.00  0.00    +0.000 C 
ATOM      4  N   UNL     1      -9.777  -2.251 123.240  0.00  0.00    +0.000 NA
ATOM      5  N   UNL     1      -9.261  -2.965 124.277  0.00  0.00    +0.000 NA
ATOM      6  C   UNL     1      -8.703  -2.124 125.135  0.00  0.00    +0.000 A 
ENDROOT
BRANCH   1  10
ATOM      7  C   UNL     1      -7.435   2.478 126.785  0.00  0.00    +0.000 A 
ATOM      8  C   UNL     1      -6.613   1.937 125.809  0.00  0.00    +0.000 A 
ATOM      9  C   UNL     1      -7.088   0.854 125.058  0.00  0.00    +0.000 A 
ATOM     10  C   UNL     1      -8.371   0.347 125.299  0.00  0.00    +0.000 A 
ATOM     11  C   UNL     1      -9.098   0.916 126.333  0.00  0.00    +0.000 A 
ATOM     12  N   UNL     1      -8.651   1.963 127.077  0.00  0.00    +0.000 NA
BRANCH   7  14
ATOM     13  C   UNL     1      -5.893   4.214 127.090  0.00  0.00    +0.000 C 
ATOM     14  O   UNL     1      -7.029   3.511 127.592  0.00  0.00    +0.000 OA
ENDBRANCH   7  14
ENDBRANCH   1  10
BRANCH   6  15
ATOM     15  C   UNL     1      -8.182  -2.504 126.443  0.00  0.00    +0.000 A 
ATOM     16  C   UNL     1      -6.918  -2.124 126.884  0.00  0.00    +0.000 A 
ATOM     17  N   UNL     1      -6.419  -2.478 128.094  0.00  0.00    +0.000 NA
ATOM     18  C   UNL     1      -7.244  -3.190 128.901  0.00  0.00    +0.000 A 
ATOM     19  C   UNL     1      -8.511  -3.567 128.455  0.00  0.00    +0.000 A 
ATOM     20  N   UNL     1      -8.998  -3.252 127.225  0.00  0.00    +0.000 NA
BRANCH  18  21
ATOM     21  C   UNL     1      -6.719  -3.540 130.228  0.00  0.00    +0.000 A 
ATOM     22  C   UNL     1      -5.929  -4.697 130.393  0.00  0.00    +0.000 A 
ATOM     23  C   UNL     1      -5.368  -5.026 131.632  0.00  0.00    +0.000 A 
ATOM     24  C   UNL     1      -5.583  -4.205 132.736  0.00  0.00    +0.000 A 
ATOM     25  C   UNL     1      -6.379  -3.071 132.605  0.00  0.00    +0.000 A 
ATOM     26  C   UNL     1      -6.948  -2.742 131.367  0.00  0.00    +0.000 A 
ATOM     27 CL   UNL     1      -7.979  -1.351 131.323  0.00  0.00    +0.000 Cl
ENDBRANCH  18  21
ENDBRANCH   6  15
TORSDOF 4
ENDMDL
MODEL 8
REMARK VINA RESULT:      -7.6      3.566      7.141
REMARK  Name = CHEMBL467545
REMARK  6 active torsions:
REMARK  status: ('A' for Active; 'I' for Inactive)
REMARK    1  A    between atoms: C_1  and  O_2
REMARK    2  A    between atoms: O_2  and  C_3
REMARK    3  A    between atoms: C_6  and  N_7
REMARK    4  A    between atoms: C_8  and  C_9
REMARK    5  A    between atoms: C_12  and  C_13
REMARK    6  A    between atoms: C_16  and  C_17
REMARK                            x       y       z     vdW  Elec       q    Type
REMARK                         _______ _______ _______ _____ _____    ______ ____
ROOT
ATOM      1  N   UNL     1      -6.631   3.200 123.453  0.00  0.00    +0.000 N 
ATOM      2  C   UNL     1      -5.864   3.549 122.340  0.00  0.00    +0.000 A 
ATOM      3  C   UNL     1      -5.792   2.906 121.002  0.00  0.00    +0.000 C 
ATOM      4  N   UNL     1      -5.246   4.689 122.590  0.00  0.00    +0.000 NA
ATOM      5  N   UNL     1      -5.589   5.111 123.837  0.00  0.00    +0.000 NA
ATOM      6  C   UNL     1      -6.407   4.221 124.377  0.00  0.00    +0.000 A 
ENDROOT
BRANCH   1  10
ATOM      7  C   UNL     1      -8.983  -0.127 124.389  0.00  0.00    +0.000 A 
ATOM      8  C   UNL     1      -9.617   1.011 123.919  0.00  0.00    +0.000 A 
ATOM      9  C   UNL     1      -8.834   2.117 123.565  0.00  0.00    +0.000 A 
ATOM     10  C   UNL     1      -7.441   2.052 123.687  0.00  0.00    +0.000 A 
ATOM     11  C   UNL     1      -6.899   0.894 124.220  0.00  0.00    +0.000 A 
ATOM     12  N   UNL     1      -7.645  -0.188 124.575  0.00  0.00    +0.000 NA
BRANCH   7  14
ATOM     13  C   UNL     1      -8.962  -2.053 125.722  0.00  0.00    +0.000 C 
ATOM     14  O   UNL     1      -9.680  -1.237 124.797  0.00  0.00    +0.000 OA
ENDBRANCH   7  14
ENDBRANCH   1  10
BRANCH   6  15
ATOM     15  C   UNL     1      -6.865   4.251 125.762  0.00  0.00    +0.000 A 
ATOM     16  C   UNL     1      -8.074   4.828 126.138  0.00  0.00    +0.000 A 
ATOM     17  N   UNL     1      -8.506   4.871 127.423  0.00  0.00    +0.000 NA
ATOM     18  C   UNL     1      -7.716   4.265 128.344  0.00  0.00    +0.000 A 
ATOM     19  C   UNL     1      -6.505   3.687 127.962  0.00  0.00    +0.000 A 
ATOM     20  N   UNL     1      -6.048   3.681 126.681  0.00  0.00    +0.000 NA
BRANCH  18  21
ATOM     21  C   UNL     1      -8.202   4.276 129.730  0.00  0.00    +0.000 A 
ATOM     22  C   UNL     1      -8.232   5.483 130.459  0.00  0.00    +0.000 A 
ATOM     23  C   UNL     1      -8.742   5.536 131.762  0.00  0.00    +0.000 A 
ATOM     24  C   UNL     1      -9.235   4.382 132.365  0.00  0.00    +0.000 A 
ATOM     25  C   UNL     1      -9.194   3.173 131.676  0.00  0.00    +0.000 A 
ATOM     26  C   UNL     1      -8.678   3.116 130.375  0.00  0.00    +0.000 A 
ATOM     27 CL   UNL     1      -8.605   1.554 129.629  0.00  0.00    +0.000 Cl
ENDBRANCH  18  21
ENDBRANCH   6  15
TORSDOF 4
ENDMDL
MODEL 9
REMARK VINA RESULT:      -7.3      3.694      7.446
REMARK  Name = CHEMBL467545
REMARK  6 active torsions:
REMARK  status: ('A' for Active; 'I' for Inactive)
REMARK    1  A    between atoms: C_1  and  O_2
REMARK    2  A    between atoms: O_2  and  C_3
REMARK    3  A    between atoms: C_6  and  N_7
REMARK    4  A    between atoms: C_8  and  C_9
REMARK    5  A    between atoms: C_12  and  C_13
REMARK    6  A    between atoms: C_16  and  C_17
REMARK                            x       y       z     vdW  Elec       q    Type
REMARK                         _______ _______ _______ _____ _____    ______ ____
ROOT
ATOM      1  N   UNL     1      -6.431   3.480 122.915  0.00  0.00    +0.000 N 
ATOM      2  C   UNL     1      -6.137   3.897 121.616  0.00  0.00    +0.000 A 
ATOM      3  C   UNL     1      -6.821   3.562 120.338  0.00  0.00    +0.000 C 
ATOM      4  N   UNL     1      -5.175   4.800 121.666  0.00  0.00    +0.000 NA
ATOM      5  N   UNL     1      -4.828   5.001 122.966  0.00  0.00    +0.000 NA
ATOM      6  C   UNL     1      -5.559   4.204 123.729  0.00  0.00    +0.000 A 
ENDROOT
BRANCH   1  10
ATOM      7  C   UNL     1      -9.019   0.601 124.495  0.00  0.00    +0.000 A 
ATOM      8  C   UNL     1      -9.460   1.913 124.430  0.00  0.00    +0.000 A 
ATOM      9  C   UNL     1      -8.615   2.878 123.866  0.00  0.00    +0.000 A 
ATOM     10  C   UNL     1      -7.357   2.503 123.379  0.00  0.00    +0.000 A 
ATOM     11  C   UNL     1      -6.978   1.179 123.538  0.00  0.00    +0.000 A 
ATOM     12  N   UNL     1      -7.783   0.230 124.089  0.00  0.00    +0.000 NA
BRANCH   7  14
ATOM     13  C   UNL     1      -9.037  -1.600 125.293  0.00  0.00    +0.000 C 
ATOM     14  O   UNL     1      -9.767  -0.394 125.070  0.00  0.00    +0.000 OA
ENDBRANCH   7  14
ENDBRANCH   1  10
BRANCH   6  15
ATOM     15  C   UNL     1      -5.363   4.024 125.163  0.00  0.00    +0.000 A 
ATOM     16  C   UNL     1      -5.977   4.839 126.110  0.00  0.00    +0.000 A 
ATOM     17  N   UNL     1      -5.795   4.689 127.446  0.00  0.00    +0.000 NA
ATOM     18  C   UNL     1      -5.014   3.650 127.834  0.00  0.00    +0.000 A 
ATOM     19  C   UNL     1      -4.403   2.835 126.881  0.00  0.00    +0.000 A 
ATOM     20  N   UNL     1      -4.547   3.011 125.540  0.00  0.00    +0.000 NA
BRANCH  18  21
ATOM     21  C   UNL     1      -4.849   3.462 129.281  0.00  0.00    +0.000 A 
ATOM     22  C   UNL     1      -3.707   3.970 129.934  0.00  0.00    +0.000 A 
ATOM     23  C   UNL     1      -3.549   3.856 131.321  0.00  0.00    +0.000 A 
ATOM     24  C   UNL     1      -4.530   3.232 132.086  0.00  0.00    +0.000 A 
ATOM     25  C   UNL     1      -5.656   2.701 131.462  0.00  0.00    +0.000 A 
ATOM     26  C   UNL     1      -5.814   2.807 130.074  0.00  0.00    +0.000 A 
ATOM     27 CL   UNL     1      -7.212   2.053 129.385  0.00  0.00    +0.000 Cl
ENDBRANCH  18  21
ENDBRANCH   6  15
TORSDOF 4
ENDMDL
