MODEL 1
REMARK VINA RESULT:      -9.2      0.000      0.000
REMARK  Name = CHEMBL411148
REMARK  18 active torsions:
REMARK  status: ('A' for Active; 'I' for Inactive)
REMARK    1  A    between atoms: C_1  and  C_2
REMARK    2  A    between atoms: C_6  and  C_7
REMARK    3  A    between atoms: C_7  and  C_8
REMARK    4  A    between atoms: C_17  and  C_18
REMARK    5  A    between atoms: C_18  and  C_19
REMARK    6  A    between atoms: C_22  and  O_23
REMARK    7  A    between atoms: C_34  and  C_35
REMARK    8  A    between atoms: C_41  and  C_42
REMARK    9  A    between atoms: N_44  and  C_45
REMARK   10  A    between atoms: C_45  and  C_46
REMARK   11  A    between atoms: C_45  and  C_53
REMARK   12  A    between atoms: C_46  and  C_47
REMARK   13  A    between atoms: C_47  and  C_48
REMARK   14  A    between atoms: C_48  and  N_49
REMARK   15  A    between atoms: N_55  and  C_56
REMARK   16  A    between atoms: C_56  and  C_57
REMARK   17  A    between atoms: C_63  and  C_64
REMARK   18  A    between atoms: C_64  and  C_65
REMARK                            x       y       z     vdW  Elec       q    Type
REMARK                         _______ _______ _______ _____ _____    ______ ____
ROOT
ATOM      1  C   UNL     1      -7.508  -2.949 127.265  0.00  0.00    +0.000 C 
ATOM      2  C   UNL     1      -6.557  -1.867 127.790  0.00  0.00    +0.000 C 
ATOM      3  N   UNL     1      -5.732  -0.770 127.078  0.00  0.00    +0.000 N 
ATOM      4  C   UNL     1      -5.933   0.611 127.069  0.00  0.00    +0.000 C 
ATOM      5  O   UNL     1      -5.028   1.440 127.200  0.00  0.00    +0.000 OA
ATOM      6  C   UNL     1      -7.363   1.042 126.748  0.00  0.00    +0.000 C 
ATOM      7  N   UNL     1      -8.187   1.126 127.913  0.00  0.00    +0.000 N 
ATOM      8  C   UNL     1      -8.332   2.301 128.599  0.00  0.00    +0.000 C 
ATOM      9  O   UNL     1      -9.458   2.417 129.102  0.00  0.00    +0.000 OA
ATOM     10  C   UNL     1      -6.992   3.405 128.820  0.00  0.00    +0.000 C 
ATOM     11  N   UNL     1      -7.640   4.680 128.822  0.00  0.00    +0.000 N 
ATOM     12  C   UNL     1      -8.365   5.203 129.840  0.00  0.00    +0.000 C 
ATOM     13  O   UNL     1      -8.815   6.340 129.669  0.00  0.00    +0.000 OA
ATOM     14  C   UNL     1      -8.664   4.445 131.147  0.00  0.00    +0.000 C 
ATOM     15  C   UNL     1      -8.119   3.054 131.461  0.00  0.00    +0.000 C 
ATOM     16  S   UNL     1      -9.245   2.018 132.370  0.00  0.00    +0.000 S 
ATOM     17  S   UNL     1      -8.720  -0.295 131.627  0.00  0.00    +0.000 S 
ATOM     18  C   UNL     1      -7.835  -1.625 133.477  0.00  0.00    +0.000 C 
ATOM     19  C   UNL     1      -6.826  -2.712 133.521  0.00  0.00    +0.000 C 
ATOM     20  N   UNL     1      -7.285  -3.469 132.434  0.00  0.00    +0.000 N 
ATOM     21  C   UNL     1      -7.392  -2.879 131.225  0.00  0.00    +0.000 C 
ATOM     22  O   UNL     1      -8.034  -3.427 130.337  0.00  0.00    +0.000 OA
ATOM     23  C   UNL     1      -6.571  -1.624 130.972  0.00  0.00    +0.000 C 
ATOM     24  N   UNL     1      -5.457  -2.433 129.927  0.00  0.00    +0.000 N 
ATOM     25  C   UNL     1      -5.431  -2.493 128.544  0.00  0.00    +0.000 C 
ATOM     26  O   UNL     1      -4.294  -2.537 128.036  0.00  0.00    +0.000 OA
ATOM     27  H   UNL     1      -4.715  -0.923 127.057  0.00  0.00    +0.000 HD
ATOM     28  H   UNL     1      -8.987   0.502 127.995  0.00  0.00    +0.000 HD
ATOM     29  H   UNL     1      -7.473   5.287 128.030  0.00  0.00    +0.000 HD
ATOM     30  H   UNL     1      -7.975  -4.176 132.621  0.00  0.00    +0.000 HD
ATOM     31  H   UNL     1      -4.502  -2.057 129.793  0.00  0.00    +0.000 HD
ENDROOT
BRANCH  19  32
ATOM     32  C   UNL     1      -5.300  -2.363 133.815  0.00  0.00    +0.000 C 
ATOM     33  O   UNL     1      -4.935  -1.322 134.352  0.00  0.00    +0.000 OA
ATOM     34  N   UNL     1      -4.403  -3.319 133.473  0.00  0.00    +0.000 N 
ATOM     35  C   UNL     1      -4.621  -4.393 132.546  0.00  0.00    +0.000 C 
ATOM     36  C   UNL     1      -4.164  -5.543 133.362  0.00  0.00    +0.000 C 
ATOM     37  C   UNL     1      -2.882  -4.968 133.987  0.00  0.00    +0.000 C 
ATOM     38  C   UNL     1      -3.116  -3.450 134.164  0.00  0.00    +0.000 C 
BRANCH  38  39
ATOM     39  C   UNL     1      -3.100  -2.952 135.638  0.00  0.00    +0.000 C 
ATOM     40  O   UNL     1      -3.599  -3.558 136.577  0.00  0.00    +0.000 OA
ATOM     41  N   UNL     1      -2.571  -1.740 135.949  0.00  0.00    +0.000 N 
ATOM     42  H   UNL     1      -2.482  -1.021 135.244  0.00  0.00    +0.000 HD
BRANCH  41  43
ATOM     43  C   UNL     1      -2.446  -1.365 137.370  0.00  0.00    +0.000 C 
BRANCH  43  44
ATOM     44  C   UNL     1      -3.249  -0.059 137.569  0.00  0.00    +0.000 C 
ATOM     45  O   UNL     1      -3.437   0.419 138.687  0.00  0.00    +0.000 OA
ATOM     46  N   UNL     1      -3.735   0.530 136.422  0.00  0.00    +0.000 N 
ATOM     47  H   UNL     1      -3.519   0.112 135.534  0.00  0.00    +0.000 HD
BRANCH  46  48
ATOM     48  C   UNL     1      -4.532   1.751 136.466  0.00  0.00    +0.000 C 
BRANCH  48  49
ATOM     49  C   UNL     1      -3.751   3.067 136.330  0.00  0.00    +0.000 C 
ATOM     50  N   UNL     1      -3.321   3.438 135.086  0.00  0.00    +0.000 N 
ATOM     51  O   UNL     1      -3.508   3.794 137.291  0.00  0.00    +0.000 OA
ATOM     52  H   UNL     1      -3.445   2.916 134.237  0.00  0.00    +0.000 HD
ATOM     53  H   UNL     1      -2.796   4.301 135.017  0.00  0.00    +0.000 HD
ENDBRANCH  48  49
ENDBRANCH  46  48
ENDBRANCH  43  44
BRANCH  43  54
ATOM     54  C   UNL     1      -0.959  -1.158 137.763  0.00  0.00    +0.000 C 
BRANCH  54  55
ATOM     55  C   UNL     1      -0.247  -2.442 138.196  0.00  0.00    +0.000 C 
BRANCH  55  56
ATOM     56  C   UNL     1       0.514  -3.159 137.126  0.00  0.00    +0.000 C 
BRANCH  56  57
ATOM     57  N   UNL     1       0.508  -2.310 135.927  0.00  0.00    +0.000 NA
ATOM     58  C   UNL     1       0.806  -2.899 134.828  0.00  0.00    +0.000 C 
ATOM     59  N   UNL     1       1.133  -4.197 134.698  0.00  0.00    +0.000 N 
ATOM     60  N   UNL     1       0.873  -2.202 133.678  0.00  0.00    +0.000 N 
ATOM     61  H   UNL     1       1.128  -4.784 135.519  0.00  0.00    +0.000 HD
ATOM     62  H   UNL     1       1.310  -4.643 133.818  0.00  0.00    +0.000 HD
ATOM     63  H   UNL     1       0.506  -1.257 133.702  0.00  0.00    +0.000 HD
ATOM     64  H   UNL     1       0.940  -2.644 132.776  0.00  0.00    +0.000 HD
ENDBRANCH  56  57
ENDBRANCH  55  56
ENDBRANCH  54  55
ENDBRANCH  43  54
ENDBRANCH  41  43
ENDBRANCH  38  39
ENDBRANCH  19  32
BRANCH  23  65
ATOM     65  C   UNL     1      -6.379  -0.286 132.370  0.00  0.00    +0.000 C 
BRANCH  65  66
ATOM     66  C   UNL     1      -5.020   1.094 132.875  0.00  0.00    +0.000 C 
ATOM     67  N   UNL     1      -3.366   0.662 132.702  0.00  0.00    +0.000 N 
ATOM     68  O   UNL     1      -5.217   2.279 132.977  0.00  0.00    +0.000 OA
ATOM     69  H   UNL     1      -3.294  -0.391 132.672  0.00  0.00    +0.000 HD
ATOM     70  H   UNL     1      -2.494   0.718 133.220  0.00  0.00    +0.000 HD
ENDBRANCH  65  66
ENDBRANCH  23  65
BRANCH  10  71
ATOM     71  C   UNL     1      -5.761   3.516 129.955  0.00  0.00    +0.000 C 
BRANCH  71  72
ATOM     72  C   UNL     1      -4.616   4.410 129.674  0.00  0.00    +0.000 A 
ATOM     73  C   UNL     1      -4.463   4.590 128.377  0.00  0.00    +0.000 A 
ATOM     74  C   UNL     1      -3.654   5.569 127.952  0.00  0.00    +0.000 A 
ATOM     75  C   UNL     1      -2.662   6.211 128.666  0.00  0.00    +0.000 A 
ATOM     76  C   UNL     1      -2.605   5.849 129.965  0.00  0.00    +0.000 A 
ATOM     77  C   UNL     1      -3.616   4.989 130.477  0.00  0.00    +0.000 A 
BRANCH  75  78
ATOM     78  O   UNL     1      -1.557   6.862 128.152  0.00  0.00    +0.000 OA
ATOM     79  H   UNL     1      -0.769   6.340 127.852  0.00  0.00    +0.000 HD
ENDBRANCH  75  78
ENDBRANCH  71  72
ENDBRANCH  10  71
BRANCH   6  80
ATOM     80  C   UNL     1      -7.824   0.010 125.727  0.00  0.00    +0.000 C 
BRANCH  80  81
ATOM     81  C   UNL     1      -8.294   0.688 124.450  0.00  0.00    +0.000 A 
ATOM     82  C   UNL     1      -7.881   1.988 124.156  0.00  0.00    +0.000 A 
ATOM     83  C   UNL     1      -8.496   2.677 123.112  0.00  0.00    +0.000 A 
ATOM     84  C   UNL     1      -9.493   2.069 122.342  0.00  0.00    +0.000 A 
ATOM     85  C   UNL     1      -9.963   0.812 122.669  0.00  0.00    +0.000 A 
ATOM     86  C   UNL     1      -9.345   0.124 123.689  0.00  0.00    +0.000 A 
ENDBRANCH  80  81
ENDBRANCH   6  80
TORSDOF 17
ENDMDL
MODEL 2
REMARK VINA RESULT:      -8.6      2.747      8.269
REMARK  Name = CHEMBL411148
REMARK  18 active torsions:
REMARK  status: ('A' for Active; 'I' for Inactive)
REMARK    1  A    between atoms: C_1  and  C_2
REMARK    2  A    between atoms: C_6  and  C_7
REMARK    3  A    between atoms: C_7  and  C_8
REMARK    4  A    between atoms: C_17  and  C_18
REMARK    5  A    between atoms: C_18  and  C_19
REMARK    6  A    between atoms: C_22  and  O_23
REMARK    7  A    between atoms: C_34  and  C_35
REMARK    8  A    between atoms: C_41  and  C_42
REMARK    9  A    between atoms: N_44  and  C_45
REMARK   10  A    between atoms: C_45  and  C_46
REMARK   11  A    between atoms: C_45  and  C_53
REMARK   12  A    between atoms: C_46  and  C_47
REMARK   13  A    between atoms: C_47  and  C_48
REMARK   14  A    between atoms: C_48  and  N_49
REMARK   15  A    between atoms: N_55  and  C_56
REMARK   16  A    between atoms: C_56  and  C_57
REMARK   17  A    between atoms: C_63  and  C_64
REMARK   18  A    between atoms: C_64  and  C_65
REMARK                            x       y       z     vdW  Elec       q    Type
REMARK                         _______ _______ _______ _____ _____    ______ ____
ROOT
ATOM      1  C   UNL     1      -3.500   6.908 127.778  0.00  0.00    +0.000 C 
ATOM      2  C   UNL     1      -3.477   5.719 128.745  0.00  0.00    +0.000 C 
ATOM      3  N   UNL     1      -2.696   5.453 130.053  0.00  0.00    +0.000 N 
ATOM      4  C   UNL     1      -3.169   5.420 131.365  0.00  0.00    +0.000 C 
ATOM      5  O   UNL     1      -2.845   4.565 132.193  0.00  0.00    +0.000 OA
ATOM      6  C   UNL     1      -4.032   6.618 131.759  0.00  0.00    +0.000 C 
ATOM      7  N   UNL     1      -5.417   6.419 131.463  0.00  0.00    +0.000 N 
ATOM      8  C   UNL     1      -6.277   5.904 132.393  0.00  0.00    +0.000 C 
ATOM      9  O   UNL     1      -7.421   6.368 132.284  0.00  0.00    +0.000 OA
ATOM     10  C   UNL     1      -5.786   4.635 133.493  0.00  0.00    +0.000 C 
ATOM     11  N   UNL     1      -6.546   4.934 134.667  0.00  0.00    +0.000 N 
ATOM     12  C   UNL     1      -7.870   4.703 134.839  0.00  0.00    +0.000 C 
ATOM     13  O   UNL     1      -8.341   4.993 135.944  0.00  0.00    +0.000 OA
ATOM     14  C   UNL     1      -8.784   4.140 133.736  0.00  0.00    +0.000 C 
ATOM     15  C   UNL     1      -8.283   3.718 132.356  0.00  0.00    +0.000 C 
ATOM     16  S   UNL     1      -9.421   4.061 131.032  0.00  0.00    +0.000 S 
ATOM     17  S   UNL     1      -7.980   4.491 129.053  0.00  0.00    +0.000 S 
ATOM     18  C   UNL     1      -8.317   2.778 127.341  0.00  0.00    +0.000 C 
ATOM     19  C   UNL     1      -7.388   2.160 126.362  0.00  0.00    +0.000 C 
ATOM     20  N   UNL     1      -6.768   3.329 125.895  0.00  0.00    +0.000 N 
ATOM     21  C   UNL     1      -6.157   4.143 126.781  0.00  0.00    +0.000 C 
ATOM     22  O   UNL     1      -5.851   5.281 126.448  0.00  0.00    +0.000 OA
ATOM     23  C   UNL     1      -5.733   3.550 128.116  0.00  0.00    +0.000 C 
ATOM     24  N   UNL     1      -4.054   3.554 127.706  0.00  0.00    +0.000 N 
ATOM     25  C   UNL     1      -3.072   4.476 128.025  0.00  0.00    +0.000 C 
ATOM     26  O   UNL     1      -1.934   4.000 128.206  0.00  0.00    +0.000 OA
ATOM     27  H   UNL     1      -1.949   4.750 129.988  0.00  0.00    +0.000 HD
ATOM     28  H   UNL     1      -5.865   7.028 130.782  0.00  0.00    +0.000 HD
ATOM     29  H   UNL     1      -6.038   5.266 135.477  0.00  0.00    +0.000 HD
ATOM     30  H   UNL     1      -7.194   3.798 125.115  0.00  0.00    +0.000 HD
ATOM     31  H   UNL     1      -3.401   2.901 128.175  0.00  0.00    +0.000 HD
ENDROOT
BRANCH  19  32
ATOM     32  C   UNL     1      -6.633   0.808 126.732  0.00  0.00    +0.000 C 
ATOM     33  O   UNL     1      -5.759   0.734 127.590  0.00  0.00    +0.000 OA
ATOM     34  N   UNL     1      -7.048  -0.297 126.065  0.00  0.00    +0.000 N 
ATOM     35  C   UNL     1      -7.775  -0.317 124.829  0.00  0.00    +0.000 C 
ATOM     36  C   UNL     1      -8.883  -1.233 125.189  0.00  0.00    +0.000 C 
ATOM     37  C   UNL     1      -8.121  -2.329 125.952  0.00  0.00    +0.000 C 
ATOM     38  C   UNL     1      -6.925  -1.638 126.647  0.00  0.00    +0.000 C 
BRANCH  38  39
ATOM     39  C   UNL     1      -6.950  -1.692 128.201  0.00  0.00    +0.000 C 
ATOM     40  O   UNL     1      -7.881  -1.298 128.892  0.00  0.00    +0.000 OA
ATOM     41  N   UNL     1      -5.866  -2.133 128.892  0.00  0.00    +0.000 N 
ATOM     42  H   UNL     1      -4.948  -2.122 128.469  0.00  0.00    +0.000 HD
BRANCH  41  43
ATOM     43  C   UNL     1      -5.977  -2.304 130.353  0.00  0.00    +0.000 C 
BRANCH  43  44
ATOM     44  C   UNL     1      -4.563  -2.103 130.944  0.00  0.00    +0.000 C 
ATOM     45  O   UNL     1      -3.555  -2.166 130.241  0.00  0.00    +0.000 OA
ATOM     46  N   UNL     1      -4.506  -1.848 132.297  0.00  0.00    +0.000 N 
ATOM     47  H   UNL     1      -5.365  -1.773 132.812  0.00  0.00    +0.000 HD
BRANCH  46  48
ATOM     48  C   UNL     1      -3.235  -1.664 132.988  0.00  0.00    +0.000 C 
BRANCH  48  49
ATOM     49  C   UNL     1      -2.820  -2.797 133.941  0.00  0.00    +0.000 C 
ATOM     50  N   UNL     1      -2.905  -2.573 135.287  0.00  0.00    +0.000 N 
ATOM     51  O   UNL     1      -2.424  -3.888 133.537  0.00  0.00    +0.000 OA
ATOM     52  H   UNL     1      -3.196  -1.718 135.727  0.00  0.00    +0.000 HD
ATOM     53  H   UNL     1      -2.615  -3.325 135.899  0.00  0.00    +0.000 HD
ENDBRANCH  48  49
ENDBRANCH  46  48
ENDBRANCH  43  44
BRANCH  43  54
ATOM     54  C   UNL     1      -6.525  -3.712 130.708  0.00  0.00    +0.000 C 
BRANCH  54  55
ATOM     55  C   UNL     1      -5.452  -4.801 130.757  0.00  0.00    +0.000 C 
BRANCH  55  56
ATOM     56  C   UNL     1      -5.217  -5.427 132.097  0.00  0.00    +0.000 C 
BRANCH  56  57
ATOM     57  N   UNL     1      -5.965  -4.646 133.092  0.00  0.00    +0.000 NA
ATOM     58  C   UNL     1      -5.680  -4.890 134.318  0.00  0.00    +0.000 C 
ATOM     59  N   UNL     1      -4.784  -5.796 134.748  0.00  0.00    +0.000 N 
ATOM     60  N   UNL     1      -6.340  -4.262 135.309  0.00  0.00    +0.000 N 
ATOM     61  H   UNL     1      -4.262  -6.326 134.066  0.00  0.00    +0.000 HD
ATOM     62  H   UNL     1      -4.543  -5.929 135.712  0.00  0.00    +0.000 HD
ATOM     63  H   UNL     1      -6.923  -3.479 135.035  0.00  0.00    +0.000 HD
ATOM     64  H   UNL     1      -6.042  -4.298 136.269  0.00  0.00    +0.000 HD
ENDBRANCH  56  57
ENDBRANCH  55  56
ENDBRANCH  54  55
ENDBRANCH  43  54
ENDBRANCH  41  43
ENDBRANCH  38  39
ENDBRANCH  19  32
BRANCH  23  65
ATOM     65  C   UNL     1      -6.892   2.288 129.036  0.00  0.00    +0.000 C 
BRANCH  65  66
ATOM     66  C   UNL     1      -6.792   1.178 130.698  0.00  0.00    +0.000 C 
ATOM     67  N   UNL     1      -8.228   0.371 131.187  0.00  0.00    +0.000 N 
ATOM     68  O   UNL     1      -5.785   0.755 131.207  0.00  0.00    +0.000 OA
ATOM     69  H   UNL     1      -9.054   0.844 130.728  0.00  0.00    +0.000 HD
ATOM     70  H   UNL     1      -8.775   0.206 132.027  0.00  0.00    +0.000 HD
ENDBRANCH  65  66
ENDBRANCH  23  65
BRANCH  10  71
ATOM     71  C   UNL     1      -5.752   2.960 133.385  0.00  0.00    +0.000 C 
BRANCH  71  72
ATOM     72  C   UNL     1      -5.231   2.186 134.533  0.00  0.00    +0.000 A 
ATOM     73  C   UNL     1      -5.885   1.051 134.674  0.00  0.00    +0.000 A 
ATOM     74  C   UNL     1      -5.382   0.112 135.486  0.00  0.00    +0.000 A 
ATOM     75  C   UNL     1      -4.448   0.280 136.490  0.00  0.00    +0.000 A 
ATOM     76  C   UNL     1      -3.939   1.528 136.557  0.00  0.00    +0.000 A 
ATOM     77  C   UNL     1      -4.294   2.463 135.545  0.00  0.00    +0.000 A 
BRANCH  75  78
ATOM     78  O   UNL     1      -4.262  -0.529 137.595  0.00  0.00    +0.000 OA
ATOM     79  H   UNL     1      -3.787  -0.179 138.392  0.00  0.00    +0.000 HD
ENDBRANCH  75  78
ENDBRANCH  71  72
ENDBRANCH  10  71
BRANCH   6  80
ATOM     80  C   UNL     1      -3.391   7.779 131.011  0.00  0.00    +0.000 C 
BRANCH  80  81
ATOM     81  C   UNL     1      -2.708   8.732 131.979  0.00  0.00    +0.000 A 
ATOM     82  C   UNL     1      -2.375   8.304 133.264  0.00  0.00    +0.000 A 
ATOM     83  C   UNL     1      -1.966   9.243 134.209  0.00  0.00    +0.000 A 
ATOM     84  C   UNL     1      -1.855  10.596 133.872  0.00  0.00    +0.000 A 
ATOM     85  C   UNL     1      -2.252  11.044 132.627  0.00  0.00    +0.000 A 
ATOM     86  C   UNL     1      -2.641  10.115 131.688  0.00  0.00    +0.000 A 
ENDBRANCH  80  81
ENDBRANCH   6  80
TORSDOF 17
ENDMDL
MODEL 3
REMARK VINA RESULT:      -8.4      3.293      9.784
REMARK  Name = CHEMBL411148
REMARK  18 active torsions:
REMARK  status: ('A' for Active; 'I' for Inactive)
REMARK    1  A    between atoms: C_1  and  C_2
REMARK    2  A    between atoms: C_6  and  C_7
REMARK    3  A    between atoms: C_7  and  C_8
REMARK    4  A    between atoms: C_17  and  C_18
REMARK    5  A    between atoms: C_18  and  C_19
REMARK    6  A    between atoms: C_22  and  O_23
REMARK    7  A    between atoms: C_34  and  C_35
REMARK    8  A    between atoms: C_41  and  C_42
REMARK    9  A    between atoms: N_44  and  C_45
REMARK   10  A    between atoms: C_45  and  C_46
REMARK   11  A    between atoms: C_45  and  C_53
REMARK   12  A    between atoms: C_46  and  C_47
REMARK   13  A    between atoms: C_47  and  C_48
REMARK   14  A    between atoms: C_48  and  N_49
REMARK   15  A    between atoms: N_55  and  C_56
REMARK   16  A    between atoms: C_56  and  C_57
REMARK   17  A    between atoms: C_63  and  C_64
REMARK   18  A    between atoms: C_64  and  C_65
REMARK                            x       y       z     vdW  Elec       q    Type
REMARK                         _______ _______ _______ _____ _____    ______ ____
ROOT
ATOM      1  C   UNL     1      -2.778   6.816 127.745  0.00  0.00    +0.000 C 
ATOM      2  C   UNL     1      -3.146   5.438 128.307  0.00  0.00    +0.000 C 
ATOM      3  N   UNL     1      -2.594   4.616 129.495  0.00  0.00    +0.000 N 
ATOM      4  C   UNL     1      -3.198   4.335 130.722  0.00  0.00    +0.000 C 
ATOM      5  O   UNL     1      -3.180   3.225 131.261  0.00  0.00    +0.000 OA
ATOM      6  C   UNL     1      -3.783   5.553 131.434  0.00  0.00    +0.000 C 
ATOM      7  N   UNL     1      -5.135   5.817 131.052  0.00  0.00    +0.000 N 
ATOM      8  C   UNL     1      -6.188   5.302 131.757  0.00  0.00    +0.000 C 
ATOM      9  O   UNL     1      -7.168   6.060 131.761  0.00  0.00    +0.000 OA
ATOM     10  C   UNL     1      -6.137   3.690 132.435  0.00  0.00    +0.000 C 
ATOM     11  N   UNL     1      -6.922   3.830 133.622  0.00  0.00    +0.000 N 
ATOM     12  C   UNL     1      -8.274   3.915 133.678  0.00  0.00    +0.000 C 
ATOM     13  O   UNL     1      -8.775   3.991 134.804  0.00  0.00    +0.000 OA
ATOM     14  C   UNL     1      -9.175   3.949 132.430  0.00  0.00    +0.000 C 
ATOM     15  C   UNL     1      -8.647   3.823 131.003  0.00  0.00    +0.000 C 
ATOM     16  S   UNL     1      -9.521   4.815 129.812  0.00  0.00    +0.000 S 
ATOM     17  S   UNL     1      -7.818   5.397 128.098  0.00  0.00    +0.000 S 
ATOM     18  C   UNL     1      -8.375   4.394 125.940  0.00  0.00    +0.000 C 
ATOM     19  C   UNL     1      -7.524   3.860 124.847  0.00  0.00    +0.000 C 
ATOM     20  N   UNL     1      -6.595   4.908 124.773  0.00  0.00    +0.000 N 
ATOM     21  C   UNL     1      -5.903   5.247 125.881  0.00  0.00    +0.000 C 
ATOM     22  O   UNL     1      -5.298   6.311 125.917  0.00  0.00    +0.000 OA
ATOM     23  C   UNL     1      -5.779   4.208 126.986  0.00  0.00    +0.000 C 
ATOM     24  N   UNL     1      -4.114   3.889 126.645  0.00  0.00    +0.000 N 
ATOM     25  C   UNL     1      -2.978   4.391 127.257  0.00  0.00    +0.000 C 
ATOM     26  O   UNL     1      -2.015   3.602 127.317  0.00  0.00    +0.000 OA
ATOM     27  H   UNL     1      -2.036   3.790 129.242  0.00  0.00    +0.000 HD
ATOM     28  H   UNL     1      -5.349   6.690 130.574  0.00  0.00    +0.000 HD
ATOM     29  H   UNL     1      -6.438   3.772 134.509  0.00  0.00    +0.000 HD
ATOM     30  H   UNL     1      -6.809   5.675 124.160  0.00  0.00    +0.000 HD
ATOM     31  H   UNL     1      -3.692   2.982 126.913  0.00  0.00    +0.000 HD
ENDROOT
BRANCH  19  32
ATOM     32  C   UNL     1      -7.162   2.311 124.812  0.00  0.00    +0.000 C 
ATOM     33  O   UNL     1      -6.437   1.766 125.639  0.00  0.00    +0.000 OA
ATOM     34  N   UNL     1      -7.746   1.593 123.821  0.00  0.00    +0.000 N 
ATOM     35  C   UNL     1      -8.308   2.121 122.611  0.00  0.00    +0.000 C 
ATOM     36  C   UNL     1      -9.636   1.464 122.627  0.00  0.00    +0.000 C 
ATOM     37  C   UNL     1      -9.252   0.035 123.045  0.00  0.00    +0.000 C 
ATOM     38  C   UNL     1      -8.015   0.158 123.966  0.00  0.00    +0.000 C 
BRANCH  38  39
ATOM     39  C   UNL     1      -8.234  -0.332 125.426  0.00  0.00    +0.000 C 
ATOM     40  O   UNL     1      -9.102   0.095 126.175  0.00  0.00    +0.000 OA
ATOM     41  N   UNL     1      -7.393  -1.245 125.978  0.00  0.00    +0.000 N 
ATOM     42  H   UNL     1      -6.462  -1.376 125.608  0.00  0.00    +0.000 HD
BRANCH  41  43
ATOM     43  C   UNL     1      -7.714  -1.790 127.311  0.00  0.00    +0.000 C 
BRANCH  43  44
ATOM     44  C   UNL     1      -6.383  -2.251 127.947  0.00  0.00    +0.000 C 
ATOM     45  O   UNL     1      -5.298  -2.013 127.418  0.00  0.00    +0.000 OA
ATOM     46  N   UNL     1      -6.490  -2.938 129.137  0.00  0.00    +0.000 N 
ATOM     47  H   UNL     1      -7.401  -3.072 129.539  0.00  0.00    +0.000 HD
BRANCH  46  48
ATOM     48  C   UNL     1      -5.316  -3.453 129.832  0.00  0.00    +0.000 C 
BRANCH  48  49
ATOM     49  C   UNL     1      -4.679  -2.509 130.865  0.00  0.00    +0.000 C 
ATOM     50  N   UNL     1      -4.087  -3.062 131.966  0.00  0.00    +0.000 N 
ATOM     51  O   UNL     1      -4.678  -1.287 130.731  0.00  0.00    +0.000 OA
ATOM     52  H   UNL     1      -4.045  -4.041 132.187  0.00  0.00    +0.000 HD
ATOM     53  H   UNL     1      -3.685  -2.425 132.642  0.00  0.00    +0.000 HD
ENDBRANCH  48  49
ENDBRANCH  46  48
ENDBRANCH  43  44
BRANCH  43  54
ATOM     54  C   UNL     1      -8.709  -2.976 127.201  0.00  0.00    +0.000 C 
BRANCH  54  55
ATOM     55  C   UNL     1      -9.008  -3.405 125.764  0.00  0.00    +0.000 C 
BRANCH  55  56
ATOM     56  C   UNL     1      -7.928  -4.178 125.075  0.00  0.00    +0.000 C 
BRANCH  56  57
ATOM     57  N   UNL     1      -7.511  -3.410 123.894  0.00  0.00    +0.000 NA
ATOM     58  C   UNL     1      -6.253  -3.184 123.793  0.00  0.00    +0.000 C 
ATOM     59  N   UNL     1      -5.315  -3.573 124.674  0.00  0.00    +0.000 N 
ATOM     60  N   UNL     1      -5.772  -2.450 122.772  0.00  0.00    +0.000 N 
ATOM     61  H   UNL     1      -5.598  -4.110 125.480  0.00  0.00    +0.000 HD
ATOM     62  H   UNL     1      -4.331  -3.429 124.544  0.00  0.00    +0.000 HD
ATOM     63  H   UNL     1      -6.419  -2.252 122.017  0.00  0.00    +0.000 HD
ATOM     64  H   UNL     1      -4.790  -2.386 122.563  0.00  0.00    +0.000 HD
ENDBRANCH  56  57
ENDBRANCH  55  56
ENDBRANCH  54  55
ENDBRANCH  43  54
ENDBRANCH  41  43
ENDBRANCH  38  39
ENDBRANCH  19  32
BRANCH  23  65
ATOM     65  C   UNL     1      -7.298   3.086 127.447  0.00  0.00    +0.000 C 
BRANCH  65  66
ATOM     66  C   UNL     1      -7.609   1.462 128.574  0.00  0.00    +0.000 C 
ATOM     67  N   UNL     1      -6.220   0.604 129.108  0.00  0.00    +0.000 N 
ATOM     68  O   UNL     1      -8.618   1.203 129.180  0.00  0.00    +0.000 OA
ATOM     69  H   UNL     1      -5.405   0.860 128.486  0.00  0.00    +0.000 HD
ATOM     70  H   UNL     1      -5.880  -0.351 129.178  0.00  0.00    +0.000 HD
ENDBRANCH  65  66
ENDBRANCH  23  65
BRANCH  10  71
ATOM     71  C   UNL     1      -6.497   2.167 131.826  0.00  0.00    +0.000 C 
BRANCH  71  72
ATOM     72  C   UNL     1      -6.377   0.998 132.725  0.00  0.00    +0.000 A 
ATOM     73  C   UNL     1      -7.388   0.169 132.558  0.00  0.00    +0.000 A 
ATOM     74  C   UNL     1      -7.310  -1.058 133.089  0.00  0.00    +0.000 A 
ATOM     75  C   UNL     1      -6.472  -1.487 134.100  0.00  0.00    +0.000 A 
ATOM     76  C   UNL     1      -5.578  -0.557 134.496  0.00  0.00    +0.000 A 
ATOM     77  C   UNL     1      -5.499   0.664 133.771  0.00  0.00    +0.000 A 
BRANCH  75  78
ATOM     78  O   UNL     1      -6.674  -2.559 134.947  0.00  0.00    +0.000 OA
ATOM     79  H   UNL     1      -5.944  -3.213 135.103  0.00  0.00    +0.000 HD
ENDBRANCH  75  78
ENDBRANCH  71  72
ENDBRANCH  10  71
BRANCH   6  80
ATOM     80  C   UNL     1      -2.805   6.669 131.092  0.00  0.00    +0.000 C 
BRANCH  80  81
ATOM     81  C   UNL     1      -2.076   7.148 132.337  0.00  0.00    +0.000 A 
ATOM     82  C   UNL     1      -0.701   6.951 132.460  0.00  0.00    +0.000 A 
ATOM     83  C   UNL     1      -0.089   7.181 133.692  0.00  0.00    +0.000 A 
ATOM     84  C   UNL     1      -0.832   7.638 134.786  0.00  0.00    +0.000 A 
ATOM     85  C   UNL     1      -2.204   7.766 134.698  0.00  0.00    +0.000 A 
ATOM     86  C   UNL     1      -2.807   7.554 133.478  0.00  0.00    +0.000 A 
ENDBRANCH  80  81
ENDBRANCH   6  80
TORSDOF 17
ENDMDL
MODEL 4
REMARK VINA RESULT:      -8.1      2.994     10.495
REMARK  Name = CHEMBL411148
REMARK  18 active torsions:
REMARK  status: ('A' for Active; 'I' for Inactive)
REMARK    1  A    between atoms: C_1  and  C_2
REMARK    2  A    between atoms: C_6  and  C_7
REMARK    3  A    between atoms: C_7  and  C_8
REMARK    4  A    between atoms: C_17  and  C_18
REMARK    5  A    between atoms: C_18  and  C_19
REMARK    6  A    between atoms: C_22  and  O_23
REMARK    7  A    between atoms: C_34  and  C_35
REMARK    8  A    between atoms: C_41  and  C_42
REMARK    9  A    between atoms: N_44  and  C_45
REMARK   10  A    between atoms: C_45  and  C_46
REMARK   11  A    between atoms: C_45  and  C_53
REMARK   12  A    between atoms: C_46  and  C_47
REMARK   13  A    between atoms: C_47  and  C_48
REMARK   14  A    between atoms: C_48  and  N_49
REMARK   15  A    between atoms: N_55  and  C_56
REMARK   16  A    between atoms: C_56  and  C_57
REMARK   17  A    between atoms: C_63  and  C_64
REMARK   18  A    between atoms: C_64  and  C_65
REMARK                            x       y       z     vdW  Elec       q    Type
REMARK                         _______ _______ _______ _____ _____    ______ ____
ROOT
ATOM      1  C   UNL     1      -4.416   7.623 131.234  0.00  0.00    +0.000 C 
ATOM      2  C   UNL     1      -3.800   6.222 131.143  0.00  0.00    +0.000 C 
ATOM      3  N   UNL     1      -2.468   5.633 131.663  0.00  0.00    +0.000 N 
ATOM      4  C   UNL     1      -2.256   4.733 132.707  0.00  0.00    +0.000 C 
ATOM      5  O   UNL     1      -1.482   3.774 132.644  0.00  0.00    +0.000 OA
ATOM      6  C   UNL     1      -2.963   5.096 134.012  0.00  0.00    +0.000 C 
ATOM      7  N   UNL     1      -4.289   4.566 134.085  0.00  0.00    +0.000 N 
ATOM      8  C   UNL     1      -4.540   3.353 134.665  0.00  0.00    +0.000 C 
ATOM      9  O   UNL     1      -5.644   3.318 135.225  0.00  0.00    +0.000 OA
ATOM     10  C   UNL     1      -3.443   2.002 134.477  0.00  0.00    +0.000 C 
ATOM     11  N   UNL     1      -3.585   1.314 135.723  0.00  0.00    +0.000 N 
ATOM     12  C   UNL     1      -4.633   0.537 136.088  0.00  0.00    +0.000 C 
ATOM     13  O   UNL     1      -4.555  -0.009 137.193  0.00  0.00    +0.000 OA
ATOM     14  C   UNL     1      -5.888   0.340 135.218  0.00  0.00    +0.000 C 
ATOM     15  C   UNL     1      -6.054   0.943 133.825  0.00  0.00    +0.000 C 
ATOM     16  S   UNL     1      -7.714   1.462 133.449  0.00  0.00    +0.000 S 
ATOM     17  S   UNL     1      -7.443   3.389 131.903  0.00  0.00    +0.000 S 
ATOM     18  C   UNL     1      -8.348   2.867 129.693  0.00  0.00    +0.000 C 
ATOM     19  C   UNL     1      -7.928   3.277 128.329  0.00  0.00    +0.000 C 
ATOM     20  N   UNL     1      -7.744   4.647 128.569  0.00  0.00    +0.000 N 
ATOM     21  C   UNL     1      -6.886   5.031 129.537  0.00  0.00    +0.000 C 
ATOM     22  O   UNL     1      -6.909   6.185 129.945  0.00  0.00    +0.000 OA
ATOM     23  C   UNL     1      -5.815   4.042 129.971  0.00  0.00    +0.000 C 
ATOM     24  N   UNL     1      -4.543   4.911 129.187  0.00  0.00    +0.000 N 
ATOM     25  C   UNL     1      -3.642   5.820 129.715  0.00  0.00    +0.000 C 
ATOM     26  O   UNL     1      -2.508   5.804 129.198  0.00  0.00    +0.000 OA
ATOM     27  H   UNL     1      -1.764   5.425 130.942  0.00  0.00    +0.000 HD
ATOM     28  H   UNL     1      -5.074   5.212 134.130  0.00  0.00    +0.000 HD
ATOM     29  H   UNL     1      -2.797   1.334 136.357  0.00  0.00    +0.000 HD
ATOM     30  H   UNL     1      -8.540   5.249 128.447  0.00  0.00    +0.000 HD
ATOM     31  H   UNL     1      -3.675   4.422 128.904  0.00  0.00    +0.000 HD
ENDROOT
BRANCH  19  32
ATOM     32  C   UNL     1      -6.937   2.352 127.496  0.00  0.00    +0.000 C 
ATOM     33  O   UNL     1      -6.455   1.310 127.931  0.00  0.00    +0.000 OA
ATOM     34  N   UNL     1      -6.680   2.759 126.229  0.00  0.00    +0.000 N 
ATOM     35  C   UNL     1      -6.866   4.084 125.710  0.00  0.00    +0.000 C 
ATOM     36  C   UNL     1      -7.641   3.781 124.484  0.00  0.00    +0.000 C 
ATOM     37  C   UNL     1      -6.871   2.564 123.944  0.00  0.00    +0.000 C 
ATOM     38  C   UNL     1      -6.316   1.807 125.173  0.00  0.00    +0.000 C 
BRANCH  38  39
ATOM     39  C   UNL     1      -6.870   0.366 125.359  0.00  0.00    +0.000 C 
ATOM     40  O   UNL     1      -8.043   0.052 125.212  0.00  0.00    +0.000 OA
ATOM     41  N   UNL     1      -6.053  -0.636 125.779  0.00  0.00    +0.000 N 
ATOM     42  H   UNL     1      -5.198  -0.428 126.276  0.00  0.00    +0.000 HD
BRANCH  41  43
ATOM     43  C   UNL     1      -6.578  -2.014 125.808  0.00  0.00    +0.000 C 
BRANCH  43  44
ATOM     44  C   UNL     1      -6.476  -2.510 127.268  0.00  0.00    +0.000 C 
ATOM     45  O   UNL     1      -7.479  -2.739 127.944  0.00  0.00    +0.000 OA
ATOM     46  N   UNL     1      -5.200  -2.680 127.759  0.00  0.00    +0.000 N 
ATOM     47  H   UNL     1      -4.419  -2.510 127.148  0.00  0.00    +0.000 HD
BRANCH  46  48
ATOM     48  C   UNL     1      -4.958  -3.117 129.129  0.00  0.00    +0.000 C 
BRANCH  48  49
ATOM     49  C   UNL     1      -3.483  -3.269 129.534  0.00  0.00    +0.000 C 
ATOM     50  N   UNL     1      -3.058  -2.643 130.673  0.00  0.00    +0.000 N 
ATOM     51  O   UNL     1      -2.683  -3.935 128.879  0.00  0.00    +0.000 OA
ATOM     52  H   UNL     1      -3.616  -2.062 131.272  0.00  0.00    +0.000 HD
ATOM     53  H   UNL     1      -2.081  -2.743 130.917  0.00  0.00    +0.000 HD
ENDBRANCH  48  49
ENDBRANCH  46  48
ENDBRANCH  43  44
BRANCH  43  54
ATOM     54  C   UNL     1      -5.770  -2.937 124.857  0.00  0.00    +0.000 C 
BRANCH  54  55
ATOM     55  C   UNL     1      -5.534  -2.343 123.467  0.00  0.00    +0.000 C 
BRANCH  55  56
ATOM     56  C   UNL     1      -6.764  -2.030 122.673  0.00  0.00    +0.000 C 
BRANCH  56  57
ATOM     57  N   UNL     1      -7.788  -3.023 123.026  0.00  0.00    +0.000 NA
ATOM     58  C   UNL     1      -8.994  -2.589 123.059  0.00  0.00    +0.000 C 
ATOM     59  N   UNL     1      -9.378  -1.323 122.818  0.00  0.00    +0.000 N 
ATOM     60  N   UNL     1     -10.003  -3.406 123.415  0.00  0.00    +0.000 N 
ATOM     61  H   UNL     1      -8.677  -0.642 122.566  0.00  0.00    +0.000 HD
ATOM     62  H   UNL     1     -10.334  -1.022 122.799  0.00  0.00    +0.000 HD
ATOM     63  H   UNL     1      -9.782  -4.395 123.472  0.00  0.00    +0.000 HD
ATOM     64  H   UNL     1     -10.971  -3.159 123.297  0.00  0.00    +0.000 HD
ENDBRANCH  56  57
ENDBRANCH  55  56
ENDBRANCH  54  55
ENDBRANCH  43  54
ENDBRANCH  41  43
ENDBRANCH  38  39
ENDBRANCH  19  32
BRANCH  23  65
ATOM     65  C   UNL     1      -6.245   2.154 130.150  0.00  0.00    +0.000 C 
BRANCH  65  66
ATOM     66  C   UNL     1      -5.218   0.438 130.236  0.00  0.00    +0.000 C 
ATOM     67  N   UNL     1      -3.699   0.394 129.435  0.00  0.00    +0.000 N 
ATOM     68  O   UNL     1      -5.384  -0.447 131.038  0.00  0.00    +0.000 OA
ATOM     69  H   UNL     1      -3.672   1.173 128.722  0.00  0.00    +0.000 HD
ATOM     70  H   UNL     1      -3.171  -0.209 128.812  0.00  0.00    +0.000 HD
ENDBRANCH  65  66
ENDBRANCH  23  65
BRANCH  10  71
ATOM     71  C   UNL     1      -3.269   0.807 133.311  0.00  0.00    +0.000 C 
BRANCH  71  72
ATOM     72  C   UNL     1      -2.655  -0.481 133.703  0.00  0.00    +0.000 A 
ATOM     73  C   UNL     1      -1.339  -0.412 133.655  0.00  0.00    +0.000 A 
ATOM     74  C   UNL     1      -0.621  -1.388 134.225  0.00  0.00    +0.000 A 
ATOM     75  C   UNL     1      -1.043  -2.659 134.561  0.00  0.00    +0.000 A 
ATOM     76  C   UNL     1      -2.363  -2.863 134.367  0.00  0.00    +0.000 A 
ATOM     77  C   UNL     1      -3.174  -1.757 133.988  0.00  0.00    +0.000 A 
BRANCH  75  78
ATOM     78  O   UNL     1      -0.255  -3.784 134.712  0.00  0.00    +0.000 OA
ATOM     79  H   UNL     1       0.112  -4.016 135.603  0.00  0.00    +0.000 HD
ENDBRANCH  75  78
ENDBRANCH  71  72
ENDBRANCH  10  71
BRANCH   6  80
ATOM     80  C   UNL     1      -2.892   6.617 134.043  0.00  0.00    +0.000 C 
BRANCH  80  81
ATOM     81  C   UNL     1      -1.548   7.083 134.578  0.00  0.00    +0.000 A 
ATOM     82  C   UNL     1      -1.240   6.923 135.929  0.00  0.00    +0.000 A 
ATOM     83  C   UNL     1      -0.114   7.557 136.450  0.00  0.00    +0.000 A 
ATOM     84  C   UNL     1       0.724   8.319 135.627  0.00  0.00    +0.000 A 
ATOM     85  C   UNL     1       0.390   8.546 134.307  0.00  0.00    +0.000 A 
ATOM     86  C   UNL     1      -0.713   7.907 133.787  0.00  0.00    +0.000 A 
ENDBRANCH  80  81
ENDBRANCH   6  80
TORSDOF 17
ENDMDL
MODEL 5
REMARK VINA RESULT:      -8.0      3.533     10.429
REMARK  Name = CHEMBL411148
REMARK  18 active torsions:
REMARK  status: ('A' for Active; 'I' for Inactive)
REMARK    1  A    between atoms: C_1  and  C_2
REMARK    2  A    between atoms: C_6  and  C_7
REMARK    3  A    between atoms: C_7  and  C_8
REMARK    4  A    between atoms: C_17  and  C_18
REMARK    5  A    between atoms: C_18  and  C_19
REMARK    6  A    between atoms: C_22  and  O_23
REMARK    7  A    between atoms: C_34  and  C_35
REMARK    8  A    between atoms: C_41  and  C_42
REMARK    9  A    between atoms: N_44  and  C_45
REMARK   10  A    between atoms: C_45  and  C_46
REMARK   11  A    between atoms: C_45  and  C_53
REMARK   12  A    between atoms: C_46  and  C_47
REMARK   13  A    between atoms: C_47  and  C_48
REMARK   14  A    between atoms: C_48  and  N_49
REMARK   15  A    between atoms: N_55  and  C_56
REMARK   16  A    between atoms: C_56  and  C_57
REMARK   17  A    between atoms: C_63  and  C_64
REMARK   18  A    between atoms: C_64  and  C_65
REMARK                            x       y       z     vdW  Elec       q    Type
REMARK                         _______ _______ _______ _____ _____    ______ ____
ROOT
ATOM      1  C   UNL     1      -4.873  -1.379 133.504  0.00  0.00    +0.000 C 
ATOM      2  C   UNL     1      -5.990  -0.444 133.027  0.00  0.00    +0.000 C 
ATOM      3  N   UNL     1      -6.893   0.567 133.771  0.00  0.00    +0.000 N 
ATOM      4  C   UNL     1      -6.869   1.961 133.728  0.00  0.00    +0.000 C 
ATOM      5  O   UNL     1      -7.879   2.666 133.646  0.00  0.00    +0.000 OA
ATOM      6  C   UNL     1      -5.485   2.579 133.928  0.00  0.00    +0.000 C 
ATOM      7  N   UNL     1      -4.766   2.724 132.701  0.00  0.00    +0.000 N 
ATOM      8  C   UNL     1      -4.822   3.882 131.975  0.00  0.00    +0.000 C 
ATOM      9  O   UNL     1      -3.759   4.120 131.385  0.00  0.00    +0.000 OA
ATOM     10  C   UNL     1      -6.304   4.802 131.829  0.00  0.00    +0.000 C 
ATOM     11  N   UNL     1      -5.825   6.147 131.744  0.00  0.00    +0.000 N 
ATOM     12  C   UNL     1      -5.248   6.720 130.660  0.00  0.00    +0.000 C 
ATOM     13  O   UNL     1      -4.936   7.910 130.766  0.00  0.00    +0.000 OA
ATOM     14  C   UNL     1      -4.952   5.959 129.354  0.00  0.00    +0.000 C 
ATOM     15  C   UNL     1      -5.338   4.501 129.119  0.00  0.00    +0.000 C 
ATOM     16  S   UNL     1      -4.158   3.582 128.154  0.00  0.00    +0.000 S 
ATOM     17  S   UNL     1      -4.330   1.250 128.995  0.00  0.00    +0.000 S 
ATOM     18  C   UNL     1      -5.171  -0.245 127.253  0.00  0.00    +0.000 C 
ATOM     19  C   UNL     1      -6.035  -1.450 127.315  0.00  0.00    +0.000 C 
ATOM     20  N   UNL     1      -5.405  -2.106 128.384  0.00  0.00    +0.000 N 
ATOM     21  C   UNL     1      -5.285  -1.465 129.565  0.00  0.00    +0.000 C 
ATOM     22  O   UNL     1      -4.517  -1.896 130.414  0.00  0.00    +0.000 OA
ATOM     23  C   UNL     1      -6.239  -0.313 129.847  0.00  0.00    +0.000 C 
ATOM     24  N   UNL     1      -7.161  -1.217 130.995  0.00  0.00    +0.000 N 
ATOM     25  C   UNL     1      -7.079  -1.231 132.377  0.00  0.00    +0.000 C 
ATOM     26  O   UNL     1      -8.161  -1.398 132.973  0.00  0.00    +0.000 OA
ATOM     27  H   UNL     1      -7.878   0.289 133.874  0.00  0.00    +0.000 HD
ATOM     28  H   UNL     1      -3.902   2.202 132.574  0.00  0.00    +0.000 HD
ATOM     29  H   UNL     1      -6.009   6.756 132.531  0.00  0.00    +0.000 HD
ATOM     30  H   UNL     1      -4.646  -2.727 128.163  0.00  0.00    +0.000 HD
ATOM     31  H   UNL     1      -8.145  -0.958 131.193  0.00  0.00    +0.000 HD
ENDROOT
BRANCH  19  32
ATOM     32  C   UNL     1      -7.610  -1.305 127.131  0.00  0.00    +0.000 C 
ATOM     33  O   UNL     1      -8.280  -0.445 127.694  0.00  0.00    +0.000 OA
ATOM     34  N   UNL     1      -8.181  -2.174 126.262  0.00  0.00    +0.000 N 
ATOM     35  C   UNL     1      -7.623  -3.417 125.816  0.00  0.00    +0.000 C 
ATOM     36  C   UNL     1      -7.777  -3.266 124.350  0.00  0.00    +0.000 C 
ATOM     37  C   UNL     1      -9.199  -2.688 124.263  0.00  0.00    +0.000 C 
ATOM     38  C   UNL     1      -9.413  -1.839 125.538  0.00  0.00    +0.000 C 
BRANCH  38  39
ATOM     39  C   UNL     1      -9.643  -0.322 125.284  0.00  0.00    +0.000 C 
ATOM     40  O   UNL     1     -10.329   0.401 125.994  0.00  0.00    +0.000 OA
ATOM     41  N   UNL     1      -9.128   0.276 124.178  0.00  0.00    +0.000 N 
ATOM     42  H   UNL     1      -8.882  -0.272 123.364  0.00  0.00    +0.000 HD
BRANCH  41  43
ATOM     43  C   UNL     1      -9.246   1.740 124.044  0.00  0.00    +0.000 C 
BRANCH  43  44
ATOM     44  C   UNL     1      -9.398   2.049 122.537  0.00  0.00    +0.000 C 
ATOM     45  O   UNL     1     -10.031   1.305 121.787  0.00  0.00    +0.000 OA
ATOM     46  N   UNL     1      -8.787   3.200 122.092  0.00  0.00    +0.000 N 
ATOM     47  H   UNL     1      -8.314   3.786 122.758  0.00  0.00    +0.000 HD
BRANCH  46  48
ATOM     48  C   UNL     1      -8.829   3.598 120.689  0.00  0.00    +0.000 C 
BRANCH  48  49
ATOM     49  C   UNL     1      -7.491   4.044 120.078  0.00  0.00    +0.000 C 
ATOM     50  N   UNL     1      -7.489   4.490 118.785  0.00  0.00    +0.000 N 
ATOM     51  O   UNL     1      -6.436   4.020 120.708  0.00  0.00    +0.000 OA
ATOM     52  H   UNL     1      -8.284   4.535 118.173  0.00  0.00    +0.000 HD
ATOM     53  H   UNL     1      -6.597   4.767 118.395  0.00  0.00    +0.000 HD
ENDBRANCH  48  49
ENDBRANCH  46  48
ENDBRANCH  43  44
BRANCH  43  54
ATOM     54  C   UNL     1      -7.997   2.454 124.625  0.00  0.00    +0.000 C 
BRANCH  54  55
ATOM     55  C   UNL     1      -6.725   1.605 124.595  0.00  0.00    +0.000 C 
BRANCH  55  56
ATOM     56  C   UNL     1      -5.445   2.336 124.857  0.00  0.00    +0.000 C 
BRANCH  56  57
ATOM     57  N   UNL     1      -5.789   3.674 125.356  0.00  0.00    +0.000 NA
ATOM     58  C   UNL     1      -5.692   4.627 124.504  0.00  0.00    +0.000 C 
ATOM     59  N   UNL     1      -5.292   4.497 123.227  0.00  0.00    +0.000 N 
ATOM     60  N   UNL     1      -5.940   5.898 124.872  0.00  0.00    +0.000 N 
ATOM     61  H   UNL     1      -5.065   3.577 122.879  0.00  0.00    +0.000 HD
ATOM     62  H   UNL     1      -5.276   5.252 122.567  0.00  0.00    +0.000 HD
ATOM     63  H   UNL     1      -6.373   6.028 125.780  0.00  0.00    +0.000 HD
ATOM     64  H   UNL     1      -6.037   6.648 124.207  0.00  0.00    +0.000 HD
ENDBRANCH  56  57
ENDBRANCH  55  56
ENDBRANCH  54  55
ENDBRANCH  43  54
ENDBRANCH  41  43
ENDBRANCH  38  39
ENDBRANCH  19  32
BRANCH  23  65
ATOM     65  C   UNL     1      -6.701   0.940 128.434  0.00  0.00    +0.000 C 
BRANCH  65  66
ATOM     66  C   UNL     1      -8.126   2.311 128.124  0.00  0.00    +0.000 C 
ATOM     67  N   UNL     1      -9.504   2.252 129.150  0.00  0.00    +0.000 N 
ATOM     68  O   UNL     1      -7.992   3.351 127.531  0.00  0.00    +0.000 OA
ATOM     69  H   UNL     1      -9.561   1.289 129.582  0.00  0.00    +0.000 HD
ATOM     70  H   UNL     1     -10.517   2.296 129.088  0.00  0.00    +0.000 HD
ENDBRANCH  65  66
ENDBRANCH  23  65
BRANCH  10  71
ATOM     71  C   UNL     1      -7.619   4.718 130.789  0.00  0.00    +0.000 C 
BRANCH  71  72
ATOM     72  C   UNL     1      -8.901   5.320 131.218  0.00  0.00    +0.000 A 
ATOM     73  C   UNL     1      -9.650   5.629 130.179  0.00  0.00    +0.000 A 
ATOM     74  C   UNL     1     -10.938   5.934 130.379  0.00  0.00    +0.000 A 
ATOM     75  C   UNL     1     -11.538   6.323 131.561  0.00  0.00    +0.000 A 
ATOM     76  C   UNL     1     -10.714   6.280 132.629  0.00  0.00    +0.000 A 
ATOM     77  C   UNL     1      -9.413   5.729 132.463  0.00  0.00    +0.000 A 
BRANCH  75  78
ATOM     78  O   UNL     1     -12.701   7.056 131.700  0.00  0.00    +0.000 OA
ATOM     79  H   UNL     1     -13.474   6.877 131.106  0.00  0.00    +0.000 HD
ENDBRANCH  75  78
ENDBRANCH  71  72
ENDBRANCH  10  71
BRANCH   6  80
ATOM     80  C   UNL     1      -4.824   1.649 134.937  0.00  0.00    +0.000 C 
BRANCH  80  81
ATOM     81  C   UNL     1      -4.815   2.276 136.321  0.00  0.00    +0.000 A 
ATOM     82  C   UNL     1      -5.156   3.619 136.483  0.00  0.00    +0.000 A 
ATOM     83  C   UNL     1      -4.922   4.237 137.710  0.00  0.00    +0.000 A 
ATOM     84  C   UNL     1      -4.384   3.518 138.783  0.00  0.00    +0.000 A 
ATOM     85  C   UNL     1      -3.974   2.210 138.615  0.00  0.00    +0.000 A 
ATOM     86  C   UNL     1      -4.219   1.594 137.408  0.00  0.00    +0.000 A 
ENDBRANCH  80  81
ENDBRANCH   6  80
TORSDOF 17
ENDMDL
MODEL 6
REMARK VINA RESULT:      -7.9      3.471     10.704
REMARK  Name = CHEMBL411148
REMARK  18 active torsions:
REMARK  status: ('A' for Active; 'I' for Inactive)
REMARK    1  A    between atoms: C_1  and  C_2
REMARK    2  A    between atoms: C_6  and  C_7
REMARK    3  A    between atoms: C_7  and  C_8
REMARK    4  A    between atoms: C_17  and  C_18
REMARK    5  A    between atoms: C_18  and  C_19
REMARK    6  A    between atoms: C_22  and  O_23
REMARK    7  A    between atoms: C_34  and  C_35
REMARK    8  A    between atoms: C_41  and  C_42
REMARK    9  A    between atoms: N_44  and  C_45
REMARK   10  A    between atoms: C_45  and  C_46
REMARK   11  A    between atoms: C_45  and  C_53
REMARK   12  A    between atoms: C_46  and  C_47
REMARK   13  A    between atoms: C_47  and  C_48
REMARK   14  A    between atoms: C_48  and  N_49
REMARK   15  A    between atoms: N_55  and  C_56
REMARK   16  A    between atoms: C_56  and  C_57
REMARK   17  A    between atoms: C_63  and  C_64
REMARK   18  A    between atoms: C_64  and  C_65
REMARK                            x       y       z     vdW  Elec       q    Type
REMARK                         _______ _______ _______ _____ _____    ______ ____
ROOT
ATOM      1  C   UNL     1      -5.628  -4.435 130.500  0.00  0.00    +0.000 C 
ATOM      2  C   UNL     1      -6.650  -3.294 130.568  0.00  0.00    +0.000 C 
ATOM      3  N   UNL     1      -7.692  -2.890 131.637  0.00  0.00    +0.000 N 
ATOM      4  C   UNL     1      -7.681  -1.793 132.500  0.00  0.00    +0.000 C 
ATOM      5  O   UNL     1      -8.668  -1.091 132.734  0.00  0.00    +0.000 OA
ATOM      6  C   UNL     1      -6.368  -1.593 133.256  0.00  0.00    +0.000 C 
ATOM      7  N   UNL     1      -5.436  -0.785 132.534  0.00  0.00    +0.000 N 
ATOM      8  C   UNL     1      -5.373   0.569 132.719  0.00  0.00    +0.000 C 
ATOM      9  O   UNL     1      -4.223   1.010 132.588  0.00  0.00    +0.000 OA
ATOM     10  C   UNL     1      -6.816   1.527 132.971  0.00  0.00    +0.000 C 
ATOM     11  N   UNL     1      -6.350   2.563 133.840  0.00  0.00    +0.000 N 
ATOM     12  C   UNL     1      -5.590   3.625 133.477  0.00  0.00    +0.000 C 
ATOM     13  O   UNL     1      -5.321   4.439 134.366  0.00  0.00    +0.000 OA
ATOM     14  C   UNL     1      -5.045   3.832 132.052  0.00  0.00    +0.000 C 
ATOM     15  C   UNL     1      -5.358   2.900 130.883  0.00  0.00    +0.000 C 
ATOM     16  S   UNL     1      -4.006   2.675 129.749  0.00  0.00    +0.000 S 
ATOM     17  S   UNL     1      -4.295   0.370 128.865  0.00  0.00    +0.000 S 
ATOM     18  C   UNL     1      -4.775   0.409 126.469  0.00  0.00    +0.000 C 
ATOM     19  C   UNL     1      -5.617  -0.463 125.613  0.00  0.00    +0.000 C 
ATOM     20  N   UNL     1      -5.186  -1.709 126.095  0.00  0.00    +0.000 N 
ATOM     21  C   UNL     1      -5.298  -1.973 127.413  0.00  0.00    +0.000 C 
ATOM     22  O   UNL     1      -4.695  -2.923 127.896  0.00  0.00    +0.000 OA
ATOM     23  C   UNL     1      -6.305  -1.163 128.217  0.00  0.00    +0.000 C 
ATOM     24  N   UNL     1      -7.411  -2.483 128.363  0.00  0.00    +0.000 N 
ATOM     25  C   UNL     1      -7.587  -3.373 129.409  0.00  0.00    +0.000 C 
ATOM     26  O   UNL     1      -8.759  -3.761 129.585  0.00  0.00    +0.000 OA
ATOM     27  H   UNL     1      -8.674  -3.062 131.387  0.00  0.00    +0.000 HD
ATOM     28  H   UNL     1      -4.555  -1.199 132.237  0.00  0.00    +0.000 HD
ATOM     29  H   UNL     1      -6.686   2.555 134.794  0.00  0.00    +0.000 HD
ATOM     30  H   UNL     1      -4.390  -2.128 125.647  0.00  0.00    +0.000 HD
ATOM     31  H   UNL     1      -8.418  -2.303 128.528  0.00  0.00    +0.000 HD
ENDROOT
BRANCH  19  32
ATOM     32  C   UNL     1      -7.131  -0.066 125.327  0.00  0.00    +0.000 C 
ATOM     33  O   UNL     1      -7.623   1.008 125.657  0.00  0.00    +0.000 OA
ATOM     34  N   UNL     1      -7.859  -0.982 124.641  0.00  0.00    +0.000 N 
ATOM     35  C   UNL     1      -7.553  -2.376 124.503  0.00  0.00    +0.000 C 
ATOM     36  C   UNL     1      -7.668  -2.529 123.034  0.00  0.00    +0.000 C 
ATOM     37  C   UNL     1      -8.949  -1.725 122.755  0.00  0.00    +0.000 C 
ATOM     38  C   UNL     1      -8.998  -0.589 123.804  0.00  0.00    +0.000 C 
BRANCH  38  39
ATOM     39  C   UNL     1      -8.925   0.849 123.215  0.00  0.00    +0.000 C 
ATOM     40  O   UNL     1      -9.902   1.533 122.940  0.00  0.00    +0.000 OA
ATOM     41  N   UNL     1      -7.725   1.405 122.904  0.00  0.00    +0.000 N 
ATOM     42  H   UNL     1      -6.916   0.822 122.736  0.00  0.00    +0.000 HD
BRANCH  41  43
ATOM     43  C   UNL     1      -7.686   2.818 122.482  0.00  0.00    +0.000 C 
BRANCH  43  44
ATOM     44  C   UNL     1      -7.640   3.675 123.768  0.00  0.00    +0.000 C 
ATOM     45  O   UNL     1      -8.608   3.758 124.523  0.00  0.00    +0.000 OA
ATOM     46  N   UNL     1      -6.454   4.332 124.012  0.00  0.00    +0.000 N 
ATOM     47  H   UNL     1      -5.686   4.198 123.377  0.00  0.00    +0.000 HD
BRANCH  46  48
ATOM     48  C   UNL     1      -6.282   5.196 125.175  0.00  0.00    +0.000 C 
BRANCH  48  49
ATOM     49  C   UNL     1      -5.102   4.852 126.098  0.00  0.00    +0.000 C 
ATOM     50  N   UNL     1      -4.233   3.875 125.698  0.00  0.00    +0.000 N 
ATOM     51  O   UNL     1      -4.912   5.425 127.169  0.00  0.00    +0.000 OA
ATOM     52  H   UNL     1      -4.301   3.331 124.857  0.00  0.00    +0.000 HD
ATOM     53  H   UNL     1      -3.470   3.652 126.325  0.00  0.00    +0.000 HD
ENDBRANCH  48  49
ENDBRANCH  46  48
ENDBRANCH  43  44
BRANCH  43  54
ATOM     54  C   UNL     1      -8.930   3.178 121.628  0.00  0.00    +0.000 C 
BRANCH  54  55
ATOM     55  C   UNL     1      -8.599   3.920 120.331  0.00  0.00    +0.000 C 
BRANCH  55  56
ATOM     56  C   UNL     1      -7.155   3.936 119.938  0.00  0.00    +0.000 C 
BRANCH  56  57
ATOM     57  N   UNL     1      -7.025   4.787 118.748  0.00  0.00    +0.000 NA
ATOM     58  C   UNL     1      -6.024   5.588 118.744  0.00  0.00    +0.000 C 
ATOM     59  N   UNL     1      -5.118   5.714 119.730  0.00  0.00    +0.000 N 
ATOM     60  N   UNL     1      -5.839   6.443 117.720  0.00  0.00    +0.000 N 
ATOM     61  H   UNL     1      -5.200   5.123 120.544  0.00  0.00    +0.000 HD
ATOM     62  H   UNL     1      -4.314   6.311 119.677  0.00  0.00    +0.000 HD
ATOM     63  H   UNL     1      -6.413   6.291 116.898  0.00  0.00    +0.000 HD
ATOM     64  H   UNL     1      -4.988   6.966 117.595  0.00  0.00    +0.000 HD
ENDBRANCH  56  57
ENDBRANCH  55  56
ENDBRANCH  54  55
ENDBRANCH  43  54
ENDBRANCH  41  43
ENDBRANCH  38  39
ENDBRANCH  19  32
BRANCH  23  65
ATOM     65  C   UNL     1      -6.515   0.741 127.883  0.00  0.00    +0.000 C 
BRANCH  65  66
ATOM     66  C   UNL     1      -7.846   2.156 128.364  0.00  0.00    +0.000 C 
ATOM     67  N   UNL     1      -7.333   3.790 128.227  0.00  0.00    +0.000 N 
ATOM     68  O   UNL     1      -9.041   2.013 128.427  0.00  0.00    +0.000 OA
ATOM     69  H   UNL     1      -6.277   3.814 128.230  0.00  0.00    +0.000 HD
ATOM     70  H   UNL     1      -7.365   4.658 128.755  0.00  0.00    +0.000 HD
ENDBRANCH  65  66
ENDBRANCH  23  65
BRANCH  10  71
ATOM     71  C   UNL     1      -7.913   2.260 131.933  0.00  0.00    +0.000 C 
BRANCH  71  72
ATOM     72  C   UNL     1      -8.652   3.451 132.408  0.00  0.00    +0.000 A 
ATOM     73  C   UNL     1      -8.957   4.249 131.405  0.00  0.00    +0.000 A 
ATOM     74  C   UNL     1      -9.845   5.230 131.608  0.00  0.00    +0.000 A 
ATOM     75  C   UNL     1     -10.243   5.770 132.816  0.00  0.00    +0.000 A 
ATOM     76  C   UNL     1      -9.727   5.137 133.891  0.00  0.00    +0.000 A 
ATOM     77  C   UNL     1      -8.975   3.947 133.683  0.00  0.00    +0.000 A 
BRANCH  75  78
ATOM     78  O   UNL     1     -10.776   7.026 133.029  0.00  0.00    +0.000 OA
ATOM     79  H   UNL     1     -11.657   7.122 133.474  0.00  0.00    +0.000 HD
ENDBRANCH  75  78
ENDBRANCH  71  72
ENDBRANCH  10  71
BRANCH   6  80
ATOM     80  C   UNL     1      -5.892  -3.015 133.523  0.00  0.00    +0.000 C 
BRANCH  80  81
ATOM     81  C   UNL     1      -6.563  -3.583 134.763  0.00  0.00    +0.000 A 
ATOM     82  C   UNL     1      -7.146  -4.849 134.724  0.00  0.00    +0.000 A 
ATOM     83  C   UNL     1      -7.952  -5.260 135.785  0.00  0.00    +0.000 A 
ATOM     84  C   UNL     1      -8.151  -4.432 136.895  0.00  0.00    +0.000 A 
ATOM     85  C   UNL     1      -7.640  -3.149 136.914  0.00  0.00    +0.000 A 
ATOM     86  C   UNL     1      -6.831  -2.748 135.874  0.00  0.00    +0.000 A 
ENDBRANCH  80  81
ENDBRANCH   6  80
TORSDOF 17
ENDMDL
MODEL 7
REMARK VINA RESULT:      -7.7      4.091      8.797
REMARK  Name = CHEMBL411148
REMARK  18 active torsions:
REMARK  status: ('A' for Active; 'I' for Inactive)
REMARK    1  A    between atoms: C_1  and  C_2
REMARK    2  A    between atoms: C_6  and  C_7
REMARK    3  A    between atoms: C_7  and  C_8
REMARK    4  A    between atoms: C_17  and  C_18
REMARK    5  A    between atoms: C_18  and  C_19
REMARK    6  A    between atoms: C_22  and  O_23
REMARK    7  A    between atoms: C_34  and  C_35
REMARK    8  A    between atoms: C_41  and  C_42
REMARK    9  A    between atoms: N_44  and  C_45
REMARK   10  A    between atoms: C_45  and  C_46
REMARK   11  A    between atoms: C_45  and  C_53
REMARK   12  A    between atoms: C_46  and  C_47
REMARK   13  A    between atoms: C_47  and  C_48
REMARK   14  A    between atoms: C_48  and  N_49
REMARK   15  A    between atoms: N_55  and  C_56
REMARK   16  A    between atoms: C_56  and  C_57
REMARK   17  A    between atoms: C_63  and  C_64
REMARK   18  A    between atoms: C_64  and  C_65
REMARK                            x       y       z     vdW  Elec       q    Type
REMARK                         _______ _______ _______ _____ _____    ______ ____
ROOT
ATOM      1  C   UNL     1      -5.548  -0.906 136.240  0.00  0.00    +0.000 C 
ATOM      2  C   UNL     1      -4.900  -0.070 135.129  0.00  0.00    +0.000 C 
ATOM      3  N   UNL     1      -4.480  -0.409 133.680  0.00  0.00    +0.000 N 
ATOM      4  C   UNL     1      -5.063   0.002 132.480  0.00  0.00    +0.000 C 
ATOM      5  O   UNL     1      -4.421   0.385 131.498  0.00  0.00    +0.000 OA
ATOM      6  C   UNL     1      -6.578  -0.183 132.414  0.00  0.00    +0.000 C 
ATOM      7  N   UNL     1      -7.292   0.947 132.921  0.00  0.00    +0.000 N 
ATOM      8  C   UNL     1      -7.705   1.958 132.096  0.00  0.00    +0.000 C 
ATOM      9  O   UNL     1      -8.772   2.464 132.469  0.00  0.00    +0.000 OA
ATOM     10  C   UNL     1      -6.718   2.513 130.762  0.00  0.00    +0.000 C 
ATOM     11  N   UNL     1      -7.696   2.899 129.794  0.00  0.00    +0.000 N 
ATOM     12  C   UNL     1      -8.452   4.023 129.829  0.00  0.00    +0.000 C 
ATOM     13  O   UNL     1      -9.217   4.203 128.876  0.00  0.00    +0.000 OA
ATOM     14  C   UNL     1      -8.415   5.035 130.989  0.00  0.00    +0.000 C 
ATOM     15  C   UNL     1      -7.475   4.914 132.186  0.00  0.00    +0.000 C 
ATOM     16  S   UNL     1      -8.183   5.457 133.726  0.00  0.00    +0.000 S 
ATOM     17  S   UNL     1      -7.091   4.049 135.458  0.00  0.00    +0.000 S 
ATOM     18  C   UNL     1      -5.716   5.412 136.950  0.00  0.00    +0.000 C 
ATOM     19  C   UNL     1      -4.440   5.130 137.655  0.00  0.00    +0.000 C 
ATOM     20  N   UNL     1      -4.756   3.860 138.161  0.00  0.00    +0.000 N 
ATOM     21  C   UNL     1      -5.126   2.888 137.302  0.00  0.00    +0.000 C 
ATOM     22  O   UNL     1      -5.659   1.871 137.728  0.00  0.00    +0.000 OA
ATOM     23  C   UNL     1      -4.717   3.035 135.844  0.00  0.00    +0.000 C 
ATOM     24  N   UNL     1      -3.511   1.801 135.946  0.00  0.00    +0.000 N 
ATOM     25  C   UNL     1      -3.585   0.465 135.588  0.00  0.00    +0.000 C 
ATOM     26  O   UNL     1      -2.528  -0.025 135.145  0.00  0.00    +0.000 OA
ATOM     27  H   UNL     1      -3.467  -0.469 133.514  0.00  0.00    +0.000 HD
ATOM     28  H   UNL     1      -7.874   0.830 133.748  0.00  0.00    +0.000 HD
ATOM     29  H   UNL     1      -7.775   2.330 128.960  0.00  0.00    +0.000 HD
ATOM     30  H   UNL     1      -5.201   3.819 139.061  0.00  0.00    +0.000 HD
ATOM     31  H   UNL     1      -2.716   1.793 135.284  0.00  0.00    +0.000 HD
ENDROOT
BRANCH  19  32
ATOM     32  C   UNL     1      -3.057   5.526 136.974  0.00  0.00    +0.000 C 
ATOM     33  O   UNL     1      -2.891   5.582 135.760  0.00  0.00    +0.000 OA
ATOM     34  N   UNL     1      -2.055   5.851 137.828  0.00  0.00    +0.000 N 
ATOM     35  C   UNL     1      -1.979   5.504 139.218  0.00  0.00    +0.000 C 
ATOM     36  C   UNL     1      -1.683   6.830 139.807  0.00  0.00    +0.000 C 
ATOM     37  C   UNL     1      -0.629   7.360 138.820  0.00  0.00    +0.000 C 
ATOM     38  C   UNL     1      -0.976   6.765 137.436  0.00  0.00    +0.000 C 
BRANCH  38  39
ATOM     39  C   UNL     1      -1.355   7.812 136.350  0.00  0.00    +0.000 C 
ATOM     40  O   UNL     1      -2.084   8.775 136.543  0.00  0.00    +0.000 OA
ATOM     41  N   UNL     1      -0.931   7.657 135.068  0.00  0.00    +0.000 N 
ATOM     42  H   UNL     1      -0.659   6.747 134.722  0.00  0.00    +0.000 HD
BRANCH  41  43
ATOM     43  C   UNL     1      -1.190   8.740 134.100  0.00  0.00    +0.000 C 
BRANCH  43  44
ATOM     44  C   UNL     1      -1.435   8.074 132.727  0.00  0.00    +0.000 C 
ATOM     45  O   UNL     1      -0.714   7.167 132.311  0.00  0.00    +0.000 OA
ATOM     46  N   UNL     1      -2.506   8.556 132.006  0.00  0.00    +0.000 N 
ATOM     47  H   UNL     1      -3.080   9.274 132.413  0.00  0.00    +0.000 HD
BRANCH  46  48
ATOM     48  C   UNL     1      -2.836   8.036 130.684  0.00  0.00    +0.000 C 
BRANCH  48  49
ATOM     49  C   UNL     1      -4.078   8.646 130.014  0.00  0.00    +0.000 C 
ATOM     50  N   UNL     1      -3.979   9.908 129.497  0.00  0.00    +0.000 N 
ATOM     51  O   UNL     1      -5.143   8.039 129.921  0.00  0.00    +0.000 OA
ATOM     52  H   UNL     1      -3.168  10.499 129.531  0.00  0.00    +0.000 HD
ATOM     53  H   UNL     1      -4.810  10.298 129.071  0.00  0.00    +0.000 HD
ENDBRANCH  48  49
ENDBRANCH  46  48
ENDBRANCH  43  44
BRANCH  43  54
ATOM     54  C   UNL     1       0.011   9.720 134.027  0.00  0.00    +0.000 C 
BRANCH  54  55
ATOM     55  C   UNL     1      -0.306  11.130 134.528  0.00  0.00    +0.000 C 
BRANCH  55  56
ATOM     56  C   UNL     1      -0.880  12.070 133.514  0.00  0.00    +0.000 C 
BRANCH  56  57
ATOM     57  N   UNL     1       0.112  12.230 132.442  0.00  0.00    +0.000 NA
ATOM     58  C   UNL     1      -0.259  12.944 131.443  0.00  0.00    +0.000 C 
ATOM     59  N   UNL     1      -1.463  13.525 131.301  0.00  0.00    +0.000 N 
ATOM     60  N   UNL     1       0.558  13.116 130.387  0.00  0.00    +0.000 N 
ATOM     61  H   UNL     1      -2.142  13.425 132.041  0.00  0.00    +0.000 HD
ATOM     62  H   UNL     1      -1.708  14.122 130.534  0.00  0.00    +0.000 HD
ATOM     63  H   UNL     1       1.519  12.812 130.507  0.00  0.00    +0.000 HD
ATOM     64  H   UNL     1       0.379  13.793 129.665  0.00  0.00    +0.000 HD
ENDBRANCH  56  57
ENDBRANCH  55  56
ENDBRANCH  54  55
ENDBRANCH  43  54
ENDBRANCH  41  43
ENDBRANCH  38  39
ENDBRANCH  19  32
BRANCH  23  65
ATOM     65  C   UNL     1      -4.794   4.775 134.979  0.00  0.00    +0.000 C 
BRANCH  65  66
ATOM     66  C   UNL     1      -4.026   5.606 133.328  0.00  0.00    +0.000 C 
ATOM     67  N   UNL     1      -2.656   4.838 132.631  0.00  0.00    +0.000 N 
ATOM     68  O   UNL     1      -4.591   6.377 132.595  0.00  0.00    +0.000 OA
ATOM     69  H   UNL     1      -2.203   4.225 133.364  0.00  0.00    +0.000 HD
ATOM     70  H   UNL     1      -1.744   5.077 132.253  0.00  0.00    +0.000 HD
ENDBRANCH  65  66
ENDBRANCH  23  65
BRANCH  10  71
ATOM     71  C   UNL     1      -5.477   3.637 130.631  0.00  0.00    +0.000 C 
BRANCH  71  72
ATOM     72  C   UNL     1      -4.522   3.511 129.508  0.00  0.00    +0.000 A 
ATOM     73  C   UNL     1      -3.898   4.650 129.288  0.00  0.00    +0.000 A 
ATOM     74  C   UNL     1      -2.820   4.653 128.494  0.00  0.00    +0.000 A 
ATOM     75  C   UNL     1      -2.451   3.694 127.571  0.00  0.00    +0.000 A 
ATOM     76  C   UNL     1      -3.243   2.601 127.576  0.00  0.00    +0.000 A 
ATOM     77  C   UNL     1      -4.244   2.491 128.580  0.00  0.00    +0.000 A 
BRANCH  75  78
ATOM     78  O   UNL     1      -1.644   3.873 126.464  0.00  0.00    +0.000 OA
ATOM     79  H   UNL     1      -0.710   4.186 126.577  0.00  0.00    +0.000 HD
ENDBRANCH  75  78
ENDBRANCH  71  72
ENDBRANCH  10  71
BRANCH   6  80
ATOM     80  C   UNL     1      -6.813  -1.472 133.190  0.00  0.00    +0.000 C 
BRANCH  80  81
ATOM     81  C   UNL     1      -6.604  -2.684 132.296  0.00  0.00    +0.000 A 
ATOM     82  C   UNL     1      -5.753  -3.713 132.700  0.00  0.00    +0.000 A 
ATOM     83  C   UNL     1      -5.391  -4.697 131.782  0.00  0.00    +0.000 A 
ATOM     84  C   UNL     1      -5.898  -4.680 130.478  0.00  0.00    +0.000 A 
ATOM     85  C   UNL     1      -6.681  -3.629 130.043  0.00  0.00    +0.000 A 
ATOM     86  C   UNL     1      -7.052  -2.665 130.953  0.00  0.00    +0.000 A 
ENDBRANCH  80  81
ENDBRANCH   6  80
TORSDOF 17
ENDMDL
MODEL 8
REMARK VINA RESULT:      -7.5      2.615      9.229
REMARK  Name = CHEMBL411148
REMARK  18 active torsions:
REMARK  status: ('A' for Active; 'I' for Inactive)
REMARK    1  A    between atoms: C_1  and  C_2
REMARK    2  A    between atoms: C_6  and  C_7
REMARK    3  A    between atoms: C_7  and  C_8
REMARK    4  A    between atoms: C_17  and  C_18
REMARK    5  A    between atoms: C_18  and  C_19
REMARK    6  A    between atoms: C_22  and  O_23
REMARK    7  A    between atoms: C_34  and  C_35
REMARK    8  A    between atoms: C_41  and  C_42
REMARK    9  A    between atoms: N_44  and  C_45
REMARK   10  A    between atoms: C_45  and  C_46
REMARK   11  A    between atoms: C_45  and  C_53
REMARK   12  A    between atoms: C_46  and  C_47
REMARK   13  A    between atoms: C_47  and  C_48
REMARK   14  A    between atoms: C_48  and  N_49
REMARK   15  A    between atoms: N_55  and  C_56
REMARK   16  A    between atoms: C_56  and  C_57
REMARK   17  A    between atoms: C_63  and  C_64
REMARK   18  A    between atoms: C_64  and  C_65
REMARK                            x       y       z     vdW  Elec       q    Type
REMARK                         _______ _______ _______ _____ _____    ______ ____
ROOT
ATOM      1  C   UNL     1      -3.278  -2.070 135.962  0.00  0.00    +0.000 C 
ATOM      2  C   UNL     1      -3.118  -1.810 134.459  0.00  0.00    +0.000 C 
ATOM      3  N   UNL     1      -2.615  -2.696 133.296  0.00  0.00    +0.000 N 
ATOM      4  C   UNL     1      -3.343  -3.274 132.255  0.00  0.00    +0.000 C 
ATOM      5  O   UNL     1      -2.974  -3.282 131.078  0.00  0.00    +0.000 OA
ATOM      6  C   UNL     1      -4.595  -4.030 132.700  0.00  0.00    +0.000 C 
ATOM      7  N   UNL     1      -5.747  -3.187 132.777  0.00  0.00    +0.000 N 
ATOM      8  C   UNL     1      -6.600  -3.049 131.717  0.00  0.00    +0.000 C 
ATOM      9  O   UNL     1      -7.774  -2.879 132.075  0.00  0.00    +0.000 OA
ATOM     10  C   UNL     1      -6.014  -2.990 130.069  0.00  0.00    +0.000 C 
ATOM     11  N   UNL     1      -7.076  -3.612 129.341  0.00  0.00    +0.000 N 
ATOM     12  C   UNL     1      -8.271  -3.049 129.038  0.00  0.00    +0.000 C 
ATOM     13  O   UNL     1      -9.047  -3.732 128.363  0.00  0.00    +0.000 OA
ATOM     14  C   UNL     1      -8.693  -1.646 129.513  0.00  0.00    +0.000 C 
ATOM     15  C   UNL     1      -7.786  -0.717 130.317  0.00  0.00    +0.000 C 
ATOM     16  S   UNL     1      -8.639   0.258 131.536  0.00  0.00    +0.000 S 
ATOM     17  S   UNL     1      -6.983   0.584 133.360  0.00  0.00    +0.000 S 
ATOM     18  C   UNL     1      -6.384   2.944 133.582  0.00  0.00    +0.000 C 
ATOM     19  C   UNL     1      -5.114   3.612 133.960  0.00  0.00    +0.000 C 
ATOM     20  N   UNL     1      -4.787   2.826 135.075  0.00  0.00    +0.000 N 
ATOM     21  C   UNL     1      -4.671   1.491 134.922  0.00  0.00    +0.000 C 
ATOM     22  O   UNL     1      -4.656   0.766 135.909  0.00  0.00    +0.000 OA
ATOM     23  C   UNL     1      -4.405   0.957 133.523  0.00  0.00    +0.000 C 
ATOM     24  N   UNL     1      -2.759   0.561 133.871  0.00  0.00    +0.000 N 
ATOM     25  C   UNL     1      -2.202  -0.655 134.230  0.00  0.00    +0.000 C 
ATOM     26  O   UNL     1      -1.047  -0.856 133.807  0.00  0.00    +0.000 OA
ATOM     27  H   UNL     1      -1.695  -2.442 132.911  0.00  0.00    +0.000 HD
ATOM     28  H   UNL     1      -6.191  -3.044 133.681  0.00  0.00    +0.000 HD
ATOM     29  H   UNL     1      -6.892  -4.522 128.937  0.00  0.00    +0.000 HD
ATOM     30  H   UNL     1      -5.144   3.119 135.968  0.00  0.00    +0.000 HD
ATOM     31  H   UNL     1      -2.065   0.497 133.105  0.00  0.00    +0.000 HD
ENDROOT
BRANCH  19  32
ATOM     32  C   UNL     1      -4.091   4.064 132.827  0.00  0.00    +0.000 C 
ATOM     33  O   UNL     1      -4.162   3.688 131.661  0.00  0.00    +0.000 OA
ATOM     34  N   UNL     1      -3.137   4.946 133.215  0.00  0.00    +0.000 N 
ATOM     35  C   UNL     1      -2.712   5.196 134.562  0.00  0.00    +0.000 C 
ATOM     36  C   UNL     1      -2.803   6.675 134.599  0.00  0.00    +0.000 C 
ATOM     37  C   UNL     1      -2.182   7.040 133.240  0.00  0.00    +0.000 C 
ATOM     38  C   UNL     1      -2.528   5.887 132.269  0.00  0.00    +0.000 C 
BRANCH  38  39
ATOM     39  C   UNL     1      -3.425   6.292 131.065  0.00  0.00    +0.000 C 
ATOM     40  O   UNL     1      -4.190   7.247 131.063  0.00  0.00    +0.000 OA
ATOM     41  N   UNL     1      -3.451   5.531 129.939  0.00  0.00    +0.000 N 
ATOM     42  H   UNL     1      -3.170   4.560 129.969  0.00  0.00    +0.000 HD
BRANCH  41  43
ATOM     43  C   UNL     1      -4.203   6.021 128.768  0.00  0.00    +0.000 C 
BRANCH  43  44
ATOM     44  C   UNL     1      -5.591   5.342 128.801  0.00  0.00    +0.000 C 
ATOM     45  O   UNL     1      -6.159   4.985 127.769  0.00  0.00    +0.000 OA
ATOM     46  N   UNL     1      -6.144   5.161 130.050  0.00  0.00    +0.000 N 
ATOM     47  H   UNL     1      -5.617   5.441 130.859  0.00  0.00    +0.000 HD
BRANCH  46  48
ATOM     48  C   UNL     1      -7.460   4.557 130.225  0.00  0.00    +0.000 C 
BRANCH  48  49
ATOM     49  C   UNL     1      -8.623   5.536 130.451  0.00  0.00    +0.000 C 
ATOM     50  N   UNL     1      -9.441   5.331 131.527  0.00  0.00    +0.000 N 
ATOM     51  O   UNL     1      -8.836   6.492 129.707  0.00  0.00    +0.000 OA
ATOM     52  H   UNL     1      -9.372   4.577 132.187  0.00  0.00    +0.000 HD
ATOM     53  H   UNL     1     -10.209   5.978 131.653  0.00  0.00    +0.000 HD
ENDBRANCH  48  49
ENDBRANCH  46  48
ENDBRANCH  43  44
BRANCH  43  54
ATOM     54  C   UNL     1      -3.459   5.684 127.449  0.00  0.00    +0.000 C 
BRANCH  54  55
ATOM     55  C   UNL     1      -2.647   4.388 127.507  0.00  0.00    +0.000 C 
BRANCH  55  56
ATOM     56  C   UNL     1      -2.837   3.448 126.358  0.00  0.00    +0.000 C 
BRANCH  56  57
ATOM     57  N   UNL     1      -4.082   2.703 126.591  0.00  0.00    +0.000 NA
ATOM     58  C   UNL     1      -5.067   3.019 125.834  0.00  0.00    +0.000 C 
ATOM     59  N   UNL     1      -5.051   3.967 124.882  0.00  0.00    +0.000 N 
ATOM     60  N   UNL     1      -6.267   2.428 125.995  0.00  0.00    +0.000 N 
ATOM     61  H   UNL     1      -4.194   4.473 124.713  0.00  0.00    +0.000 HD
ATOM     62  H   UNL     1      -5.821   4.157 124.268  0.00  0.00    +0.000 HD
ATOM     63  H   UNL     1      -6.291   1.617 126.605  0.00  0.00    +0.000 HD
ATOM     64  H   UNL     1      -7.013   2.522 125.328  0.00  0.00    +0.000 HD
ENDBRANCH  56  57
ENDBRANCH  55  56
ENDBRANCH  54  55
ENDBRANCH  43  54
ENDBRANCH  41  43
ENDBRANCH  38  39
ENDBRANCH  19  32
BRANCH  23  65
ATOM     65  C   UNL     1      -5.306   1.744 131.990  0.00  0.00    +0.000 C 
BRANCH  65  66
ATOM     66  C   UNL     1      -5.068   1.721 130.003  0.00  0.00    +0.000 C 
ATOM     67  N   UNL     1      -3.541   1.210 129.404  0.00  0.00    +0.000 N 
ATOM     68  O   UNL     1      -5.952   1.713 129.183  0.00  0.00    +0.000 OA
ATOM     69  H   UNL     1      -2.827   1.301 130.178  0.00  0.00    +0.000 HD
ATOM     70  H   UNL     1      -2.846   1.489 128.717  0.00  0.00    +0.000 HD
ENDBRANCH  65  66
ENDBRANCH  23  65
BRANCH  10  71
ATOM     71  C   UNL     1      -5.450  -1.751 129.086  0.00  0.00    +0.000 C 
BRANCH  71  72
ATOM     72  C   UNL     1      -5.485  -1.939 127.619  0.00  0.00    +0.000 A 
ATOM     73  C   UNL     1      -6.082  -0.923 127.027  0.00  0.00    +0.000 A 
ATOM     74  C   UNL     1      -5.971  -0.795 125.699  0.00  0.00    +0.000 A 
ATOM     75  C   UNL     1      -5.615  -1.768 124.785  0.00  0.00    +0.000 A 
ATOM     76  C   UNL     1      -5.247  -2.936 125.351  0.00  0.00    +0.000 A 
ATOM     77  C   UNL     1      -5.134  -3.001 126.767  0.00  0.00    +0.000 A 
BRANCH  75  78
ATOM     78  O   UNL     1      -5.925  -1.797 123.439  0.00  0.00    +0.000 OA
ATOM     79  H   UNL     1      -6.870  -1.729 123.146  0.00  0.00    +0.000 HD
ENDBRANCH  75  78
ENDBRANCH  71  72
ENDBRANCH  10  71
BRANCH   6  80
ATOM     80  C   UNL     1      -4.182  -4.651 134.027  0.00  0.00    +0.000 C 
BRANCH  80  81
ATOM     81  C   UNL     1      -5.391  -4.858 134.924  0.00  0.00    +0.000 A 
ATOM     82  C   UNL     1      -5.482  -4.182 136.141  0.00  0.00    +0.000 A 
ATOM     83  C   UNL     1      -6.471  -4.552 137.052  0.00  0.00    +0.000 A 
ATOM     84  C   UNL     1      -7.386  -5.564 136.744  0.00  0.00    +0.000 A 
ATOM     85  C   UNL     1      -7.261  -6.290 135.576  0.00  0.00    +0.000 A 
ATOM     86  C   UNL     1      -6.295  -5.916 134.669  0.00  0.00    +0.000 A 
ENDBRANCH  80  81
ENDBRANCH   6  80
TORSDOF 17
ENDMDL
MODEL 9
REMARK VINA RESULT:      -7.5      4.287      9.334
REMARK  Name = CHEMBL411148
REMARK  18 active torsions:
REMARK  status: ('A' for Active; 'I' for Inactive)
REMARK    1  A    between atoms: C_1  and  C_2
REMARK    2  A    between atoms: C_6  and  C_7
REMARK    3  A    between atoms: C_7  and  C_8
REMARK    4  A    between atoms: C_17  and  C_18
REMARK    5  A    between atoms: C_18  and  C_19
REMARK    6  A    between atoms: C_22  and  O_23
REMARK    7  A    between atoms: C_34  and  C_35
REMARK    8  A    between atoms: C_41  and  C_42
REMARK    9  A    between atoms: N_44  and  C_45
REMARK   10  A    between atoms: C_45  and  C_46
REMARK   11  A    between atoms: C_45  and  C_53
REMARK   12  A    between atoms: C_46  and  C_47
REMARK   13  A    between atoms: C_47  and  C_48
REMARK   14  A    between atoms: C_48  and  N_49
REMARK   15  A    between atoms: N_55  and  C_56
REMARK   16  A    between atoms: C_56  and  C_57
REMARK   17  A    between atoms: C_63  and  C_64
REMARK   18  A    between atoms: C_64  and  C_65
REMARK                            x       y       z     vdW  Elec       q    Type
REMARK                         _______ _______ _______ _____ _____    ______ ____
ROOT
ATOM      1  C   UNL     1      -3.750   7.729 131.380  0.00  0.00    +0.000 C 
ATOM      2  C   UNL     1      -3.195   6.869 132.521  0.00  0.00    +0.000 C 
ATOM      3  N   UNL     1      -1.883   6.940 133.337  0.00  0.00    +0.000 N 
ATOM      4  C   UNL     1      -1.699   7.316 134.668  0.00  0.00    +0.000 C 
ATOM      5  O   UNL     1      -0.967   6.715 135.459  0.00  0.00    +0.000 OA
ATOM      6  C   UNL     1      -2.376   8.629 135.057  0.00  0.00    +0.000 C 
ATOM      7  N   UNL     1      -3.723   8.443 135.500  0.00  0.00    +0.000 N 
ATOM      8  C   UNL     1      -4.019   8.274 136.825  0.00  0.00    +0.000 C 
ATOM      9  O   UNL     1      -5.118   8.759 137.128  0.00  0.00    +0.000 OA
ATOM     10  C   UNL     1      -2.981   7.345 137.885  0.00  0.00    +0.000 C 
ATOM     11  N   UNL     1      -3.140   8.016 139.138  0.00  0.00    +0.000 N 
ATOM     12  C   UNL     1      -4.216   7.931 139.957  0.00  0.00    +0.000 C 
ATOM     13  O   UNL     1      -4.150   8.554 141.020  0.00  0.00    +0.000 OA
ATOM     14  C   UNL     1      -5.487   7.134 139.608  0.00  0.00    +0.000 C 
ATOM     15  C   UNL     1      -5.642   6.303 138.337  0.00  0.00    +0.000 C 
ATOM     16  S   UNL     1      -7.283   6.324 137.648  0.00  0.00    +0.000 S 
ATOM     17  S   UNL     1      -6.946   6.074 135.199  0.00  0.00    +0.000 S 
ATOM     18  C   UNL     1      -7.895   3.967 134.399  0.00  0.00    +0.000 C 
ATOM     19  C   UNL     1      -7.472   3.036 133.323  0.00  0.00    +0.000 C 
ATOM     20  N   UNL     1      -7.228   3.979 132.314  0.00  0.00    +0.000 N 
ATOM     21  C   UNL     1      -6.345   4.972 132.547  0.00  0.00    +0.000 C 
ATOM     22  O   UNL     1      -6.314   5.944 131.803  0.00  0.00    +0.000 OA
ATOM     23  C   UNL     1      -5.312   4.761 133.644  0.00  0.00    +0.000 C 
ATOM     24  N   UNL     1      -4.013   4.539 132.525  0.00  0.00    +0.000 N 
ATOM     25  C   UNL     1      -3.068   5.449 132.081  0.00  0.00    +0.000 C 
ATOM     26  O   UNL     1      -1.941   4.972 131.845  0.00  0.00    +0.000 OA
ATOM     27  H   UNL     1      -1.196   6.201 133.138  0.00  0.00    +0.000 HD
ATOM     28  H   UNL     1      -4.479   8.858 134.961  0.00  0.00    +0.000 HD
ATOM     29  H   UNL     1      -2.345   8.533 139.491  0.00  0.00    +0.000 HD
ATOM     30  H   UNL     1      -7.999   4.231 131.720  0.00  0.00    +0.000 HD
ATOM     31  H   UNL     1      -3.169   4.008 132.805  0.00  0.00    +0.000 HD
ENDROOT
BRANCH  19  32
ATOM     32  C   UNL     1      -6.529   1.801 133.671  0.00  0.00    +0.000 C 
ATOM     33  O   UNL     1      -6.361   1.378 134.810  0.00  0.00    +0.000 OA
ATOM     34  N   UNL     1      -5.941   1.196 132.611  0.00  0.00    +0.000 N 
ATOM     35  C   UNL     1      -5.754   1.764 131.306  0.00  0.00    +0.000 C 
ATOM     36  C   UNL     1      -6.301   0.675 130.463  0.00  0.00    +0.000 C 
ATOM     37  C   UNL     1      -5.688  -0.560 131.144  0.00  0.00    +0.000 C 
ATOM     38  C   UNL     1      -5.559  -0.220 132.648  0.00  0.00    +0.000 C 
BRANCH  38  39
ATOM     39  C   UNL     1      -6.409  -1.113 133.596  0.00  0.00    +0.000 C 
ATOM     40  O   UNL     1      -7.607  -1.322 133.458  0.00  0.00    +0.000 OA
ATOM     41  N   UNL     1      -5.851  -1.665 134.705  0.00  0.00    +0.000 N 
ATOM     42  H   UNL     1      -5.013  -1.270 135.110  0.00  0.00    +0.000 HD
BRANCH  41  43
ATOM     43  C   UNL     1      -6.648  -2.617 135.501  0.00  0.00    +0.000 C 
BRANCH  43  44
ATOM     44  C   UNL     1      -6.633  -2.114 136.962  0.00  0.00    +0.000 C 
ATOM     45  O   UNL     1      -7.665  -1.763 137.535  0.00  0.00    +0.000 OA
ATOM     46  N   UNL     1      -5.401  -2.085 137.577  0.00  0.00    +0.000 N 
ATOM     47  H   UNL     1      -4.599  -2.416 137.070  0.00  0.00    +0.000 HD
BRANCH  46  48
ATOM     48  C   UNL     1      -5.238  -1.606 138.945  0.00  0.00    +0.000 C 
BRANCH  48  49
ATOM     49  C   UNL     1      -4.736  -0.162 139.096  0.00  0.00    +0.000 C 
ATOM     50  N   UNL     1      -5.553   0.746 139.711  0.00  0.00    +0.000 N 
ATOM     51  O   UNL     1      -3.632   0.199 138.693  0.00  0.00    +0.000 OA
ATOM     52  H   UNL     1      -6.477   0.568 140.061  0.00  0.00    +0.000 HD
ATOM     53  H   UNL     1      -5.211   1.695 139.790  0.00  0.00    +0.000 HD
ENDBRANCH  48  49
ENDBRANCH  46  48
ENDBRANCH  43  44
BRANCH  43  54
ATOM     54  C   UNL     1      -6.059  -4.050 135.409  0.00  0.00    +0.000 C 
BRANCH  54  55
ATOM     55  C   UNL     1      -6.452  -4.803 134.137  0.00  0.00    +0.000 C 
BRANCH  55  56
ATOM     56  C   UNL     1      -5.322  -5.217 133.247  0.00  0.00    +0.000 C 
BRANCH  56  57
ATOM     57  N   UNL     1      -4.818  -4.011 132.575  0.00  0.00    +0.000 NA
ATOM     58  C   UNL     1      -3.553  -3.816 132.659  0.00  0.00    +0.000 C 
ATOM     59  N   UNL     1      -2.682  -4.603 133.314  0.00  0.00    +0.000 N 
ATOM     60  N   UNL     1      -2.996  -2.718 132.117  0.00  0.00    +0.000 N 
ATOM     61  H   UNL     1      -3.025  -5.438 133.767  0.00  0.00    +0.000 HD
ATOM     62  H   UNL     1      -1.690  -4.456 133.319  0.00  0.00    +0.000 HD
ATOM     63  H   UNL     1      -3.587  -2.170 131.502  0.00  0.00    +0.000 HD
ATOM     64  H   UNL     1      -2.001  -2.606 132.015  0.00  0.00    +0.000 HD
ENDBRANCH  56  57
ENDBRANCH  55  56
ENDBRANCH  54  55
ENDBRANCH  43  54
ENDBRANCH  41  43
ENDBRANCH  38  39
ENDBRANCH  19  32
BRANCH  23  65
ATOM     65  C   UNL     1      -5.819   3.894 135.309  0.00  0.00    +0.000 C 
BRANCH  65  66
ATOM     66  C   UNL     1      -4.864   3.010 136.829  0.00  0.00    +0.000 C 
ATOM     67  N   UNL     1      -3.296   2.386 136.511  0.00  0.00    +0.000 N 
ATOM     68  O   UNL     1      -5.118   3.147 138.000  0.00  0.00    +0.000 OA
ATOM     69  H   UNL     1      -3.190   2.256 135.468  0.00  0.00    +0.000 HD
ATOM     70  H   UNL     1      -2.747   1.549 136.682  0.00  0.00    +0.000 HD
ENDBRANCH  65  66
ENDBRANCH  23  65
BRANCH  10  71
ATOM     71  C   UNL     1      -2.870   5.710 138.253  0.00  0.00    +0.000 C 
BRANCH  71  72
ATOM     72  C   UNL     1      -1.575   5.179 138.733  0.00  0.00    +0.000 A 
ATOM     73  C   UNL     1      -1.721   3.976 139.253  0.00  0.00    +0.000 A 
ATOM     74  C   UNL     1      -0.629   3.240 139.493  0.00  0.00    +0.000 A 
ATOM     75  C   UNL     1       0.675   3.680 139.609  0.00  0.00    +0.000 A 
ATOM     76  C   UNL     1       0.831   4.994 139.342  0.00  0.00    +0.000 A 
ATOM     77  C   UNL     1      -0.286   5.727 138.854  0.00  0.00    +0.000 A 
BRANCH  75  78
ATOM     78  O   UNL     1       1.707   3.054 140.281  0.00  0.00    +0.000 OA
ATOM     79  H   UNL     1       2.648   3.275 140.062  0.00  0.00    +0.000 HD
ENDBRANCH  75  78
ENDBRANCH  71  72
ENDBRANCH  10  71
BRANCH   6  80
ATOM     80  C   UNL     1      -2.241   9.483 133.803  0.00  0.00    +0.000 C 
BRANCH  80  81
ATOM     81  C   UNL     1      -2.328  10.961 134.146  0.00  0.00    +0.000 A 
ATOM     82  C   UNL     1      -2.419  11.911 133.128  0.00  0.00    +0.000 A 
ATOM     83  C   UNL     1      -2.265  13.261 133.442  0.00  0.00    +0.000 A 
ATOM     84  C   UNL     1      -2.056  13.669 134.763  0.00  0.00    +0.000 A 
ATOM     85  C   UNL     1      -1.890  12.736 135.768  0.00  0.00    +0.000 A 
ATOM     86  C   UNL     1      -2.058  11.404 135.463  0.00  0.00    +0.000 A 
ENDBRANCH  80  81
ENDBRANCH   6  80
TORSDOF 17
ENDMDL
