MODEL 1
REMARK VINA RESULT:     -10.9      0.000      0.000
REMARK  Name = CHEMBL268306
REMARK  21 active torsions:
REMARK  status: ('A' for Active; 'I' for Inactive)
REMARK    1  A    between atoms: C_1  and  C_2
REMARK    2  A    between atoms: C_2  and  C_3
REMARK    3  A    between atoms: C_2  and  C_4
REMARK    4  A    between atoms: C_4  and  C_5
REMARK    5  A    between atoms: C_9  and  C_10
REMARK    6  A    between atoms: C_10  and  C_11
REMARK    7  A    between atoms: C_20  and  C_21
REMARK    8  A    between atoms: C_21  and  C_22
REMARK    9  A    between atoms: C_25  and  O_26
REMARK   10  A    between atoms: C_37  and  C_38
REMARK   11  A    between atoms: C_44  and  C_45
REMARK   12  A    between atoms: N_47  and  C_48
REMARK   13  A    between atoms: C_48  and  C_49
REMARK   14  A    between atoms: C_48  and  C_56
REMARK   15  A    between atoms: C_49  and  C_50
REMARK   16  A    between atoms: C_50  and  C_51
REMARK   17  A    between atoms: C_51  and  N_52
REMARK   18  A    between atoms: N_58  and  C_59
REMARK   19  A    between atoms: C_59  and  C_60
REMARK   20  A    between atoms: C_66  and  C_67
REMARK   21  A    between atoms: C_67  and  C_68
REMARK                            x       y       z     vdW  Elec       q    Type
REMARK                         _______ _______ _______ _____ _____    ______ ____
ROOT
ATOM      1  C   UNL     1      -5.007   3.041 135.006  0.00  0.00    +0.000 C 
ATOM      2  N   UNL     1      -3.862   1.845 135.532  0.00  0.00    +0.000 N 
ATOM      3  C   UNL     1      -3.725   0.676 136.340  0.00  0.00    +0.000 C 
ATOM      4  O   UNL     1      -2.834  -0.173 136.255  0.00  0.00    +0.000 OA
ATOM      5  C   UNL     1      -4.803   0.417 137.342  0.00  0.00    +0.000 C 
ATOM      6  N   UNL     1      -5.910  -0.227 136.825  0.00  0.00    +0.000 N 
ATOM      7  C   UNL     1      -5.699  -1.523 136.430  0.00  0.00    +0.000 C 
ATOM      8  O   UNL     1      -6.743  -2.038 136.035  0.00  0.00    +0.000 OA
ATOM      9  C   UNL     1      -4.724  -2.634 136.029  0.00  0.00    +0.000 C 
ATOM     10  N   UNL     1      -5.555  -3.831 136.438  0.00  0.00    +0.000 N 
ATOM     11  C   UNL     1      -6.630  -4.587 135.919  0.00  0.00    +0.000 C 
ATOM     12  O   UNL     1      -6.914  -5.534 136.670  0.00  0.00    +0.000 OA
ATOM     13  C   UNL     1      -7.607  -4.471 134.585  0.00  0.00    +0.000 C 
ATOM     14  C   UNL     1      -7.334  -3.405 133.604  0.00  0.00    +0.000 C 
ATOM     15  S   UNL     1      -8.264  -2.375 131.860  0.00  0.00    +0.000 S 
ATOM     16  S   UNL     1      -8.237   0.368 132.193  0.00  0.00    +0.000 S 
ATOM     17  C   UNL     1      -8.301   1.279 129.978  0.00  0.00    +0.000 C 
ATOM     18  C   UNL     1      -7.318   2.248 129.414  0.00  0.00    +0.000 C 
ATOM     19  N   UNL     1      -7.394   3.300 130.455  0.00  0.00    +0.000 N 
ATOM     20  C   UNL     1      -7.031   3.170 131.752  0.00  0.00    +0.000 C 
ATOM     21  O   UNL     1      -7.379   3.860 132.706  0.00  0.00    +0.000 OA
ATOM     22  C   UNL     1      -6.096   2.114 131.976  0.00  0.00    +0.000 C 
ATOM     23  N   UNL     1      -4.675   3.137 132.529  0.00  0.00    +0.000 N 
ATOM     24  C   UNL     1      -4.187   3.466 133.807  0.00  0.00    +0.000 C 
ATOM     25  O   UNL     1      -2.947   3.560 133.952  0.00  0.00    +0.000 OA
ATOM     26  H   UNL     1      -2.950   1.955 135.072  0.00  0.00    +0.000 HD
ATOM     27  H   UNL     1      -6.715   0.355 136.438  0.00  0.00    +0.000 HD
ATOM     28  H   UNL     1      -5.195  -4.153 137.311  0.00  0.00    +0.000 HD
ATOM     29  H   UNL     1      -8.240   3.840 130.478  0.00  0.00    +0.000 HD
ATOM     30  H   UNL     1      -3.700   2.766 132.400  0.00  0.00    +0.000 HD
ENDROOT
BRANCH  18  31
ATOM     31  C   UNL     1      -5.782   1.667 128.731  0.00  0.00    +0.000 C 
ATOM     32  O   UNL     1      -5.919   0.593 128.132  0.00  0.00    +0.000 OA
ATOM     33  N   UNL     1      -4.601   2.597 128.533  0.00  0.00    +0.000 N 
ATOM     34  C   UNL     1      -3.957   3.195 129.645  0.00  0.00    +0.000 C 
ATOM     35  C   UNL     1      -3.039   4.274 129.083  0.00  0.00    +0.000 C 
ATOM     36  C   UNL     1      -2.402   3.658 127.887  0.00  0.00    +0.000 C 
ATOM     37  C   UNL     1      -3.559   2.796 127.367  0.00  0.00    +0.000 C 
BRANCH  37  38
ATOM     38  C   UNL     1      -3.606   3.842 126.214  0.00  0.00    +0.000 C 
ATOM     39  O   UNL     1      -2.556   3.918 125.533  0.00  0.00    +0.000 OA
ATOM     40  N   UNL     1      -4.911   4.417 125.993  0.00  0.00    +0.000 N 
ATOM     41  H   UNL     1      -5.374   4.426 126.878  0.00  0.00    +0.000 HD
BRANCH  40  42
ATOM     42  C   UNL     1      -6.057   4.296 124.603  0.00  0.00    +0.000 C 
BRANCH  42  43
ATOM     43  C   UNL     1      -7.805   3.382 124.498  0.00  0.00    +0.000 C 
ATOM     44  O   UNL     1      -8.783   3.349 123.718  0.00  0.00    +0.000 OA
ATOM     45  N   UNL     1      -8.487   2.327 125.010  0.00  0.00    +0.000 N 
ATOM     46  H   UNL     1      -7.739   1.859 124.615  0.00  0.00    +0.000 HD
BRANCH  45  47
ATOM     47  C   UNL     1      -9.689   1.478 124.072  0.00  0.00    +0.000 C 
BRANCH  47  48
ATOM     48  C   UNL     1      -9.451  -0.014 123.226  0.00  0.00    +0.000 C 
ATOM     49  N   UNL     1      -8.279  -0.785 123.199  0.00  0.00    +0.000 N 
ATOM     50  O   UNL     1     -10.337  -0.380 122.454  0.00  0.00    +0.000 OA
ATOM     51  H   UNL     1      -7.392  -0.334 123.404  0.00  0.00    +0.000 HD
ATOM     52  H   UNL     1      -8.096  -1.765 123.068  0.00  0.00    +0.000 HD
ENDBRANCH  47  48
ENDBRANCH  45  47
ENDBRANCH  42  43
BRANCH  42  53
ATOM     53  C   UNL     1      -4.990   4.560 122.675  0.00  0.00    +0.000 C 
BRANCH  53  54
ATOM     54  C   UNL     1      -5.168   4.405 121.194  0.00  0.00    +0.000 C 
BRANCH  54  55
ATOM     55  C   UNL     1      -6.255   3.442 121.115  0.00  0.00    +0.000 C 
BRANCH  55  56
ATOM     56  N   UNL     1      -6.716   3.938 119.892  0.00  0.00    +0.000 NA
ATOM     57  C   UNL     1      -7.959   4.077 119.879  0.00  0.00    +0.000 C 
ATOM     58  N   UNL     1      -8.785   3.810 120.884  0.00  0.00    +0.000 N 
ATOM     59  N   UNL     1      -8.360   4.545 118.721  0.00  0.00    +0.000 N 
ATOM     60  H   UNL     1      -8.429   3.309 121.693  0.00  0.00    +0.000 HD
ATOM     61  H   UNL     1      -9.769   3.908 120.805  0.00  0.00    +0.000 HD
ATOM     62  H   UNL     1      -7.591   4.727 118.075  0.00  0.00    +0.000 HD
ATOM     63  H   UNL     1      -9.292   4.816 118.532  0.00  0.00    +0.000 HD
ENDBRANCH  55  56
ENDBRANCH  54  55
ENDBRANCH  53  54
ENDBRANCH  42  53
ENDBRANCH  40  42
ENDBRANCH  37  38
ENDBRANCH  18  31
BRANCH  22  64
ATOM     64  C   UNL     1      -6.376   0.562 130.828  0.00  0.00    +0.000 C 
BRANCH  64  65
ATOM     65  C   UNL     1      -5.575  -1.282 130.531  0.00  0.00    +0.000 C 
ATOM     66  N   UNL     1      -5.838  -2.173 128.998  0.00  0.00    +0.000 N 
ATOM     67  O   UNL     1      -4.673  -1.853 131.188  0.00  0.00    +0.000 OA
ATOM     68  H   UNL     1      -6.618  -1.593 128.476  0.00  0.00    +0.000 HD
ATOM     69  H   UNL     1      -6.584  -2.908 128.903  0.00  0.00    +0.000 HD
ENDBRANCH  64  65
ENDBRANCH  22  64
BRANCH   9  70
ATOM     70  C   UNL     1      -4.283  -3.206 134.693  0.00  0.00    +0.000 C 
BRANCH  70  71
ATOM     71  C   UNL     1      -2.916  -3.159 134.693  0.00  0.00    +0.000 A 
ATOM     72  C   UNL     1      -1.933  -4.440 135.610  0.00  0.00    +0.000 A 
ATOM     73  C   UNL     1      -0.193  -4.464 135.542  0.00  0.00    +0.000 A 
ATOM     74  C   UNL     1       0.848  -3.281 134.739  0.00  0.00    +0.000 A 
ATOM     75  C   UNL     1       0.059  -1.954 134.071  0.00  0.00    +0.000 A 
ATOM     76  C   UNL     1      -1.851  -1.763 133.959  0.00  0.00    +0.000 A 
BRANCH  74  77
ATOM     77  O   UNL     1       2.186  -3.318 134.509  0.00  0.00    +0.000 OA
ATOM     78  H   UNL     1       2.756  -2.737 135.075  0.00  0.00    +0.000 HD
ENDBRANCH  74  77
ENDBRANCH  70  71
ENDBRANCH   9  70
BRANCH   5  79
ATOM     79  C   UNL     1      -5.052   1.760 137.827  0.00  0.00    +0.000 C 
BRANCH  79  80
ATOM     80  C   UNL     1      -4.707   1.704 139.290  0.00  0.00    +0.000 A 
ATOM     81  C   UNL     1      -5.775   1.582 140.104  0.00  0.00    +0.000 A 
ATOM     82  C   UNL     1      -5.520   1.735 141.448  0.00  0.00    +0.000 A 
ATOM     83  C   UNL     1      -4.221   1.833 141.992  0.00  0.00    +0.000 A 
ATOM     84  C   UNL     1      -3.122   1.834 141.202  0.00  0.00    +0.000 A 
ATOM     85  C   UNL     1      -3.395   1.703 139.887  0.00  0.00    +0.000 A 
ENDBRANCH  79  80
ENDBRANCH   5  79
BRANCH   1  86
ATOM     86  C   UNL     1      -5.898   4.214 135.494  0.00  0.00    +0.000 C 
BRANCH  86  88
ATOM     87  C   UNL     1      -5.218   6.421 135.706  0.00  0.00    +0.000 C 
ATOM     88  C   UNL     1      -5.211   5.126 136.437  0.00  0.00    +0.000 C 
ATOM     89  C   UNL     1      -5.780   5.336 137.778  0.00  0.00    +0.000 C 
ENDBRANCH  86  88
ENDBRANCH   1  86
TORSDOF 19
ENDMDL
MODEL 2
REMARK VINA RESULT:     -10.5      4.658      8.951
REMARK  Name = CHEMBL268306
REMARK  21 active torsions:
REMARK  status: ('A' for Active; 'I' for Inactive)
REMARK    1  A    between atoms: C_1  and  C_2
REMARK    2  A    between atoms: C_2  and  C_3
REMARK    3  A    between atoms: C_2  and  C_4
REMARK    4  A    between atoms: C_4  and  C_5
REMARK    5  A    between atoms: C_9  and  C_10
REMARK    6  A    between atoms: C_10  and  C_11
REMARK    7  A    between atoms: C_20  and  C_21
REMARK    8  A    between atoms: C_21  and  C_22
REMARK    9  A    between atoms: C_25  and  O_26
REMARK   10  A    between atoms: C_37  and  C_38
REMARK   11  A    between atoms: C_44  and  C_45
REMARK   12  A    between atoms: N_47  and  C_48
REMARK   13  A    between atoms: C_48  and  C_49
REMARK   14  A    between atoms: C_48  and  C_56
REMARK   15  A    between atoms: C_49  and  C_50
REMARK   16  A    between atoms: C_50  and  C_51
REMARK   17  A    between atoms: C_51  and  N_52
REMARK   18  A    between atoms: N_58  and  C_59
REMARK   19  A    between atoms: C_59  and  C_60
REMARK   20  A    between atoms: C_66  and  C_67
REMARK   21  A    between atoms: C_67  and  C_68
REMARK                            x       y       z     vdW  Elec       q    Type
REMARK                         _______ _______ _______ _____ _____    ______ ____
ROOT
ATOM      1  C   UNL     1      -3.376   7.081 131.808  0.00  0.00    +0.000 C 
ATOM      2  N   UNL     1      -1.907   7.107 132.735  0.00  0.00    +0.000 N 
ATOM      3  C   UNL     1      -1.243   7.786 133.800  0.00  0.00    +0.000 C 
ATOM      4  O   UNL     1      -0.307   7.352 134.476  0.00  0.00    +0.000 OA
ATOM      5  C   UNL     1      -1.777   9.129 134.182  0.00  0.00    +0.000 C 
ATOM      6  N   UNL     1      -2.849   9.083 135.052  0.00  0.00    +0.000 N 
ATOM      7  C   UNL     1      -2.559   8.626 136.311  0.00  0.00    +0.000 C 
ATOM      8  O   UNL     1      -3.552   8.668 137.034  0.00  0.00    +0.000 OA
ATOM      9  C   UNL     1      -1.617   7.866 137.250  0.00  0.00    +0.000 C 
ATOM     10  N   UNL     1      -1.975   8.558 138.548  0.00  0.00    +0.000 N 
ATOM     11  C   UNL     1      -2.997   8.497 139.521  0.00  0.00    +0.000 C 
ATOM     12  O   UNL     1      -2.778   9.291 140.451  0.00  0.00    +0.000 OA
ATOM     13  C   UNL     1      -4.416   7.654 139.679  0.00  0.00    +0.000 C 
ATOM     14  C   UNL     1      -4.757   6.654 138.651  0.00  0.00    +0.000 C 
ATOM     15  S   UNL     1      -6.471   5.423 137.932  0.00  0.00    +0.000 S 
ATOM     16  S   UNL     1      -6.852   5.740 135.214  0.00  0.00    +0.000 S 
ATOM     17  C   UNL     1      -7.944   3.736 134.486  0.00  0.00    +0.000 C 
ATOM     18  C   UNL     1      -7.464   2.839 133.395  0.00  0.00    +0.000 C 
ATOM     19  N   UNL     1      -7.336   3.834 132.305  0.00  0.00    +0.000 N 
ATOM     20  C   UNL     1      -6.483   4.884 132.276  0.00  0.00    +0.000 C 
ATOM     21  O   UNL     1      -6.562   5.903 131.597  0.00  0.00    +0.000 OA
ATOM     22  C   UNL     1      -5.347   4.714 133.125  0.00  0.00    +0.000 C 
ATOM     23  N   UNL     1      -4.052   4.674 131.824  0.00  0.00    +0.000 N 
ATOM     24  C   UNL     1      -3.182   5.660 131.324  0.00  0.00    +0.000 C 
ATOM     25  O   UNL     1      -2.027   5.307 130.996  0.00  0.00    +0.000 OA
ATOM     26  H   UNL     1      -1.284   6.326 132.493  0.00  0.00    +0.000 HD
ATOM     27  H   UNL     1      -3.838   9.047 134.654  0.00  0.00    +0.000 HD
ATOM     28  H   UNL     1      -1.251   9.218 138.738  0.00  0.00    +0.000 HD
ATOM     29  H   UNL     1      -8.195   4.192 131.929  0.00  0.00    +0.000 HD
ATOM     30  H   UNL     1      -3.150   4.169 132.019  0.00  0.00    +0.000 HD
ENDROOT
BRANCH  18  31
ATOM     31  C   UNL     1      -6.230   1.603 133.731  0.00  0.00    +0.000 C 
ATOM     32  O   UNL     1      -6.308   1.176 134.890  0.00  0.00    +0.000 OA
ATOM     33  N   UNL     1      -5.511   0.876 132.612  0.00  0.00    +0.000 N 
ATOM     34  C   UNL     1      -4.661   1.579 131.723  0.00  0.00    +0.000 C 
ATOM     35  C   UNL     1      -4.356   0.625 130.573  0.00  0.00    +0.000 C 
ATOM     36  C   UNL     1      -4.107  -0.693 131.218  0.00  0.00    +0.000 C 
ATOM     37  C   UNL     1      -5.107  -0.630 132.380  0.00  0.00    +0.000 C 
BRANCH  37  38
ATOM     38  C   UNL     1      -5.877  -1.709 131.562  0.00  0.00    +0.000 C 
ATOM     39  O   UNL     1      -6.962  -2.075 132.071  0.00  0.00    +0.000 OA
ATOM     40  N   UNL     1      -5.314  -1.974 130.260  0.00  0.00    +0.000 N 
ATOM     41  H   UNL     1      -4.330  -1.815 130.335  0.00  0.00    +0.000 HD
BRANCH  40  42
ATOM     42  C   UNL     1      -5.948  -1.678 128.595  0.00  0.00    +0.000 C 
BRANCH  42  43
ATOM     43  C   UNL     1      -5.650  -0.135 127.399  0.00  0.00    +0.000 C 
ATOM     44  O   UNL     1      -6.154   0.995 127.208  0.00  0.00    +0.000 OA
ATOM     45  N   UNL     1      -4.721   0.409 126.573  0.00  0.00    +0.000 N 
ATOM     46  H   UNL     1      -4.221   0.410 127.401  0.00  0.00    +0.000 HD
BRANCH  45  47
ATOM     47  C   UNL     1      -4.606   2.134 126.341  0.00  0.00    +0.000 C 
BRANCH  47  48
ATOM     48  C   UNL     1      -3.217   3.114 126.671  0.00  0.00    +0.000 C 
ATOM     49  N   UNL     1      -1.899   2.667 126.854  0.00  0.00    +0.000 N 
ATOM     50  O   UNL     1      -3.403   4.307 126.911  0.00  0.00    +0.000 OA
ATOM     51  H   UNL     1      -1.745   1.703 127.138  0.00  0.00    +0.000 HD
ATOM     52  H   UNL     1      -0.998   3.086 126.709  0.00  0.00    +0.000 HD
ENDBRANCH  47  48
ENDBRANCH  45  47
ENDBRANCH  42  43
BRANCH  42  53
ATOM     53  C   UNL     1      -7.819  -2.821 128.249  0.00  0.00    +0.000 C 
BRANCH  53  54
ATOM     54  C   UNL     1      -8.745  -3.269 127.158  0.00  0.00    +0.000 C 
BRANCH  54  55
ATOM     55  C   UNL     1      -8.586  -2.214 126.168  0.00  0.00    +0.000 C 
BRANCH  55  56
ATOM     56  N   UNL     1      -9.547  -2.760 125.311  0.00  0.00    +0.000 NA
ATOM     57  C   UNL     1      -9.084  -2.991 124.173  0.00  0.00    +0.000 C 
ATOM     58  N   UNL     1      -7.836  -2.772 123.777  0.00  0.00    +0.000 N 
ATOM     59  N   UNL     1     -10.008  -3.503 123.394  0.00  0.00    +0.000 N 
ATOM     60  H   UNL     1      -7.217  -2.235 124.378  0.00  0.00    +0.000 HD
ATOM     61  H   UNL     1      -7.533  -2.943 122.848  0.00  0.00    +0.000 HD
ATOM     62  H   UNL     1     -10.902  -3.636 123.867  0.00  0.00    +0.000 HD
ATOM     63  H   UNL     1      -9.830  -3.845 122.484  0.00  0.00    +0.000 HD
ENDBRANCH  55  56
ENDBRANCH  54  55
ENDBRANCH  53  54
ENDBRANCH  42  53
ENDBRANCH  40  42
ENDBRANCH  37  38
ENDBRANCH  18  31
BRANCH  22  64
ATOM     64  C   UNL     1      -5.740   3.756 134.779  0.00  0.00    +0.000 C 
BRANCH  64  65
ATOM     65  C   UNL     1      -4.735   2.828 136.282  0.00  0.00    +0.000 C 
ATOM     66  N   UNL     1      -3.490   1.585 135.939  0.00  0.00    +0.000 N 
ATOM     67  O   UNL     1      -4.662   3.159 137.489  0.00  0.00    +0.000 OA
ATOM     68  H   UNL     1      -3.605   1.375 134.861  0.00  0.00    +0.000 HD
ATOM     69  H   UNL     1      -3.707   0.557 135.972  0.00  0.00    +0.000 HD
ENDBRANCH  64  65
ENDBRANCH  22  64
BRANCH   9  70
ATOM     70  C   UNL     1      -1.625   6.459 137.824  0.00  0.00    +0.000 C 
BRANCH  70  71
ATOM     71  C   UNL     1      -0.390   6.271 138.382  0.00  0.00    +0.000 A 
ATOM     72  C   UNL     1      -0.219   5.983 140.208  0.00  0.00    +0.000 A 
ATOM     73  C   UNL     1       1.328   5.639 140.928  0.00  0.00    +0.000 A 
ATOM     74  C   UNL     1       2.894   5.626 140.107  0.00  0.00    +0.000 A 
ATOM     75  C   UNL     1       2.873   6.099 138.492  0.00  0.00    +0.000 A 
ATOM     76  C   UNL     1       1.276   6.442 137.478  0.00  0.00    +0.000 A 
BRANCH  74  77
ATOM     77  O   UNL     1       4.108   5.216 140.559  0.00  0.00    +0.000 OA
ATOM     78  H   UNL     1       4.254   4.239 140.633  0.00  0.00    +0.000 HD
ENDBRANCH  74  77
ENDBRANCH  70  71
ENDBRANCH   9  70
BRANCH   5  79
ATOM     79  C   UNL     1      -2.076   9.683 132.876  0.00  0.00    +0.000 C 
BRANCH  79  80
ATOM     80  C   UNL     1      -1.093  10.809 132.709  0.00  0.00    +0.000 A 
ATOM     81  C   UNL     1      -1.614  11.918 132.148  0.00  0.00    +0.000 A 
ATOM     82  C   UNL     1      -0.707  12.888 131.790  0.00  0.00    +0.000 A 
ATOM     83  C   UNL     1       0.663  12.844 132.134  0.00  0.00    +0.000 A 
ATOM     84  C   UNL     1       1.188  11.795 132.808  0.00  0.00    +0.000 A 
ATOM     85  C   UNL     1       0.285  10.845 133.131  0.00  0.00    +0.000 A 
ENDBRANCH  79  80
ENDBRANCH   5  79
BRANCH   1  86
ATOM     86  C   UNL     1      -4.219   7.889 130.786  0.00  0.00    +0.000 C 
BRANCH  86  88
ATOM     87  C   UNL     1      -3.648   7.569 128.561  0.00  0.00    +0.000 C 
ATOM     88  C   UNL     1      -3.413   8.495 129.701  0.00  0.00    +0.000 C 
ATOM     89  C   UNL     1      -3.712   9.868 129.265  0.00  0.00    +0.000 C 
ENDBRANCH  86  88
ENDBRANCH   1  86
TORSDOF 19
ENDMDL
MODEL 3
REMARK VINA RESULT:     -10.4      4.876      9.221
REMARK  Name = CHEMBL268306
REMARK  21 active torsions:
REMARK  status: ('A' for Active; 'I' for Inactive)
REMARK    1  A    between atoms: C_1  and  C_2
REMARK    2  A    between atoms: C_2  and  C_3
REMARK    3  A    between atoms: C_2  and  C_4
REMARK    4  A    between atoms: C_4  and  C_5
REMARK    5  A    between atoms: C_9  and  C_10
REMARK    6  A    between atoms: C_10  and  C_11
REMARK    7  A    between atoms: C_20  and  C_21
REMARK    8  A    between atoms: C_21  and  C_22
REMARK    9  A    between atoms: C_25  and  O_26
REMARK   10  A    between atoms: C_37  and  C_38
REMARK   11  A    between atoms: C_44  and  C_45
REMARK   12  A    between atoms: N_47  and  C_48
REMARK   13  A    between atoms: C_48  and  C_49
REMARK   14  A    between atoms: C_48  and  C_56
REMARK   15  A    between atoms: C_49  and  C_50
REMARK   16  A    between atoms: C_50  and  C_51
REMARK   17  A    between atoms: C_51  and  N_52
REMARK   18  A    between atoms: N_58  and  C_59
REMARK   19  A    between atoms: C_59  and  C_60
REMARK   20  A    between atoms: C_66  and  C_67
REMARK   21  A    between atoms: C_67  and  C_68
REMARK                            x       y       z     vdW  Elec       q    Type
REMARK                         _______ _______ _______ _____ _____    ______ ____
ROOT
ATOM      1  C   UNL     1      -3.308   7.190 131.963  0.00  0.00    +0.000 C 
ATOM      2  N   UNL     1      -1.838   7.281 132.885  0.00  0.00    +0.000 N 
ATOM      3  C   UNL     1      -1.185   8.016 133.919  0.00  0.00    +0.000 C 
ATOM      4  O   UNL     1      -0.240   7.627 134.610  0.00  0.00    +0.000 OA
ATOM      5  C   UNL     1      -1.743   9.363 134.246  0.00  0.00    +0.000 C 
ATOM      6  N   UNL     1      -2.813   9.334 135.120  0.00  0.00    +0.000 N 
ATOM      7  C   UNL     1      -2.512   8.935 136.397  0.00  0.00    +0.000 C 
ATOM      8  O   UNL     1      -3.504   8.988 137.120  0.00  0.00    +0.000 OA
ATOM      9  C   UNL     1      -1.555   8.232 137.364  0.00  0.00    +0.000 C 
ATOM     10  N   UNL     1      -1.923   8.971 138.632  0.00  0.00    +0.000 N 
ATOM     11  C   UNL     1      -2.942   8.931 139.610  0.00  0.00    +0.000 C 
ATOM     12  O   UNL     1      -2.737   9.767 140.505  0.00  0.00    +0.000 OA
ATOM     13  C   UNL     1      -4.345   8.069 139.807  0.00  0.00    +0.000 C 
ATOM     14  C   UNL     1      -4.669   7.021 138.822  0.00  0.00    +0.000 C 
ATOM     15  S   UNL     1      -6.361   5.730 138.159  0.00  0.00    +0.000 S 
ATOM     16  S   UNL     1      -6.753   5.927 135.430  0.00  0.00    +0.000 S 
ATOM     17  C   UNL     1      -7.808   3.874 134.789  0.00  0.00    +0.000 C 
ATOM     18  C   UNL     1      -7.314   2.942 133.734  0.00  0.00    +0.000 C 
ATOM     19  N   UNL     1      -7.206   3.894 132.604  0.00  0.00    +0.000 N 
ATOM     20  C   UNL     1      -6.372   4.957 132.530  0.00  0.00    +0.000 C 
ATOM     21  O   UNL     1      -6.472   5.945 131.809  0.00  0.00    +0.000 OA
ATOM     22  C   UNL     1      -5.232   4.844 133.382  0.00  0.00    +0.000 C 
ATOM     23  N   UNL     1      -3.939   4.773 132.081  0.00  0.00    +0.000 N 
ATOM     24  C   UNL     1      -3.089   5.754 131.538  0.00  0.00    +0.000 C 
ATOM     25  O   UNL     1      -1.927   5.409 131.222  0.00  0.00    +0.000 OA
ATOM     26  H   UNL     1      -1.201   6.502 132.673  0.00  0.00    +0.000 HD
ATOM     27  H   UNL     1      -3.801   9.264 134.726  0.00  0.00    +0.000 HD
ATOM     28  H   UNL     1      -1.211   9.651 138.793  0.00  0.00    +0.000 HD
ATOM     29  H   UNL     1      -8.072   4.219 132.216  0.00  0.00    +0.000 HD
ATOM     30  H   UNL     1      -3.028   4.294 132.295  0.00  0.00    +0.000 HD
ENDROOT
BRANCH  18  31
ATOM     31  C   UNL     1      -6.056   1.744 134.119  0.00  0.00    +0.000 C 
ATOM     32  O   UNL     1      -6.127   1.362 135.294  0.00  0.00    +0.000 OA
ATOM     33  N   UNL     1      -5.323   0.989 133.029  0.00  0.00    +0.000 N 
ATOM     34  C   UNL     1      -4.485   1.673 132.113  0.00  0.00    +0.000 C 
ATOM     35  C   UNL     1      -4.161   0.681 131.001  0.00  0.00    +0.000 C 
ATOM     36  C   UNL     1      -3.888  -0.607 131.697  0.00  0.00    +0.000 C 
ATOM     37  C   UNL     1      -4.889  -0.517 132.855  0.00  0.00    +0.000 C 
BRANCH  37  38
ATOM     38  C   UNL     1      -5.638  -1.642 132.080  0.00  0.00    +0.000 C 
ATOM     39  O   UNL     1      -6.146  -2.528 132.806  0.00  0.00    +0.000 OA
ATOM     40  N   UNL     1      -5.790  -1.383 130.669  0.00  0.00    +0.000 N 
ATOM     41  H   UNL     1      -5.002  -0.836 130.391  0.00  0.00    +0.000 HD
BRANCH  40  42
ATOM     42  C   UNL     1      -7.253  -1.072 129.656  0.00  0.00    +0.000 C 
BRANCH  42  43
ATOM     43  C   UNL     1      -7.810  -1.928 127.966  0.00  0.00    +0.000 C 
ATOM     44  O   UNL     1      -8.321  -3.012 127.605  0.00  0.00    +0.000 OA
ATOM     45  N   UNL     1      -8.102  -1.640 126.673  0.00  0.00    +0.000 N 
ATOM     46  H   UNL     1      -8.769  -1.096 127.113  0.00  0.00    +0.000 HD
BRANCH  45  47
ATOM     47  C   UNL     1      -9.266  -2.578 125.771  0.00  0.00    +0.000 C 
BRANCH  47  48
ATOM     48  C   UNL     1      -9.097  -3.099 124.128  0.00  0.00    +0.000 C 
ATOM     49  N   UNL     1     -10.108  -3.618 123.304  0.00  0.00    +0.000 N 
ATOM     50  O   UNL     1      -7.959  -3.161 123.663  0.00  0.00    +0.000 OA
ATOM     51  H   UNL     1     -10.927  -4.031 123.739  0.00  0.00    +0.000 HD
ATOM     52  H   UNL     1     -10.254  -3.632 122.311  0.00  0.00    +0.000 HD
ENDBRANCH  47  48
ENDBRANCH  45  47
ENDBRANCH  42  43
BRANCH  42  53
ATOM     53  C   UNL     1      -8.030   0.978 130.002  0.00  0.00    +0.000 C 
BRANCH  53  54
ATOM     54  C   UNL     1      -8.336   2.262 129.290  0.00  0.00    +0.000 C 
BRANCH  54  55
ATOM     55  C   UNL     1      -9.432   2.798 130.082  0.00  0.00    +0.000 C 
BRANCH  55  56
ATOM     56  N   UNL     1      -8.966   4.113 129.989  0.00  0.00    +0.000 NA
ATOM     57  C   UNL     1      -9.776   4.934 130.472  0.00  0.00    +0.000 C 
ATOM     58  N   UNL     1     -10.947   4.642 131.028  0.00  0.00    +0.000 N 
ATOM     59  N   UNL     1      -9.310   6.156 130.372  0.00  0.00    +0.000 N 
ATOM     60  H   UNL     1     -11.314   3.700 130.935  0.00  0.00    +0.000 HD
ATOM     61  H   UNL     1     -11.565   5.341 131.364  0.00  0.00    +0.000 HD
ATOM     62  H   UNL     1      -8.381   6.197 129.951  0.00  0.00    +0.000 HD
ATOM     63  H   UNL     1      -9.749   6.945 130.775  0.00  0.00    +0.000 HD
ENDBRANCH  55  56
ENDBRANCH  54  55
ENDBRANCH  53  54
ENDBRANCH  42  53
ENDBRANCH  40  42
ENDBRANCH  37  38
ENDBRANCH  18  31
BRANCH  22  64
ATOM     64  C   UNL     1      -5.605   3.947 135.075  0.00  0.00    +0.000 C 
BRANCH  64  65
ATOM     65  C   UNL     1      -4.596   3.311 136.720  0.00  0.00    +0.000 C 
ATOM     66  N   UNL     1      -2.973   3.957 137.122  0.00  0.00    +0.000 N 
ATOM     67  O   UNL     1      -5.036   2.669 137.703  0.00  0.00    +0.000 OA
ATOM     68  H   UNL     1      -2.676   4.526 136.224  0.00  0.00    +0.000 HD
ATOM     69  H   UNL     1      -2.092   3.447 136.862  0.00  0.00    +0.000 HD
ENDBRANCH  64  65
ENDBRANCH  22  64
BRANCH   9  70
ATOM     70  C   UNL     1      -1.535   6.850 137.995  0.00  0.00    +0.000 C 
BRANCH  70  71
ATOM     71  C   UNL     1      -0.300   6.712 138.566  0.00  0.00    +0.000 A 
ATOM     72  C   UNL     1       1.180   6.313 137.517  0.00  0.00    +0.000 A 
ATOM     73  C   UNL     1       2.779   6.234 138.202  0.00  0.00    +0.000 A 
ATOM     74  C   UNL     1       3.203   6.393 139.912  0.00  0.00    +0.000 A 
ATOM     75  C   UNL     1       1.905   6.530 140.974  0.00  0.00    +0.000 A 
ATOM     76  C   UNL     1       0.070   6.720 140.433  0.00  0.00    +0.000 A 
BRANCH  74  77
ATOM     77  O   UNL     1       4.424   6.501 140.496  0.00  0.00    +0.000 OA
ATOM     78  H   UNL     1       4.889   5.657 140.727  0.00  0.00    +0.000 HD
ENDBRANCH  74  77
ENDBRANCH  70  71
ENDBRANCH   9  70
BRANCH   5  79
ATOM     79  C   UNL     1      -2.055   9.857 132.919  0.00  0.00    +0.000 C 
BRANCH  79  80
ATOM     80  C   UNL     1      -1.036  10.936 132.669  0.00  0.00    +0.000 A 
ATOM     81  C   UNL     1      -1.521  12.012 132.017  0.00  0.00    +0.000 A 
ATOM     82  C   UNL     1      -0.583  12.922 131.589  0.00  0.00    +0.000 A 
ATOM     83  C   UNL     1       0.784  12.863 131.943  0.00  0.00    +0.000 A 
ATOM     84  C   UNL     1       1.274  11.856 132.702  0.00  0.00    +0.000 A 
ATOM     85  C   UNL     1       0.341  10.963 133.094  0.00  0.00    +0.000 A 
ENDBRANCH  79  80
ENDBRANCH   5  79
BRANCH   1  86
ATOM     86  C   UNL     1      -4.167   7.938 130.911  0.00  0.00    +0.000 C 
BRANCH  86  88
ATOM     87  C   UNL     1      -3.652   7.555 128.682  0.00  0.00    +0.000 C 
ATOM     88  C   UNL     1      -3.376   8.504 129.794  0.00  0.00    +0.000 C 
ATOM     89  C   UNL     1      -3.661   9.872 129.331  0.00  0.00    +0.000 C 
ENDBRANCH  86  88
ENDBRANCH   1  86
TORSDOF 19
ENDMDL
MODEL 4
REMARK VINA RESULT:      -9.9      1.445      3.131
REMARK  Name = CHEMBL268306
REMARK  21 active torsions:
REMARK  status: ('A' for Active; 'I' for Inactive)
REMARK    1  A    between atoms: C_1  and  C_2
REMARK    2  A    between atoms: C_2  and  C_3
REMARK    3  A    between atoms: C_2  and  C_4
REMARK    4  A    between atoms: C_4  and  C_5
REMARK    5  A    between atoms: C_9  and  C_10
REMARK    6  A    between atoms: C_10  and  C_11
REMARK    7  A    between atoms: C_20  and  C_21
REMARK    8  A    between atoms: C_21  and  C_22
REMARK    9  A    between atoms: C_25  and  O_26
REMARK   10  A    between atoms: C_37  and  C_38
REMARK   11  A    between atoms: C_44  and  C_45
REMARK   12  A    between atoms: N_47  and  C_48
REMARK   13  A    between atoms: C_48  and  C_49
REMARK   14  A    between atoms: C_48  and  C_56
REMARK   15  A    between atoms: C_49  and  C_50
REMARK   16  A    between atoms: C_50  and  C_51
REMARK   17  A    between atoms: C_51  and  N_52
REMARK   18  A    between atoms: N_58  and  C_59
REMARK   19  A    between atoms: C_59  and  C_60
REMARK   20  A    between atoms: C_66  and  C_67
REMARK   21  A    between atoms: C_67  and  C_68
REMARK                            x       y       z     vdW  Elec       q    Type
REMARK                         _______ _______ _______ _____ _____    ______ ____
ROOT
ATOM      1  C   UNL     1      -4.969   2.689 135.265  0.00  0.00    +0.000 C 
ATOM      2  N   UNL     1      -3.794   1.515 135.775  0.00  0.00    +0.000 N 
ATOM      3  C   UNL     1      -3.622   0.351 136.582  0.00  0.00    +0.000 C 
ATOM      4  O   UNL     1      -2.718  -0.483 136.484  0.00  0.00    +0.000 OA
ATOM      5  C   UNL     1      -4.679   0.076 137.603  0.00  0.00    +0.000 C 
ATOM      6  N   UNL     1      -5.783  -0.589 137.107  0.00  0.00    +0.000 N 
ATOM      7  C   UNL     1      -5.556  -1.882 136.711  0.00  0.00    +0.000 C 
ATOM      8  O   UNL     1      -6.597  -2.416 136.335  0.00  0.00    +0.000 OA
ATOM      9  C   UNL     1      -4.568  -2.977 136.297  0.00  0.00    +0.000 C 
ATOM     10  N   UNL     1      -5.371  -4.187 136.722  0.00  0.00    +0.000 N 
ATOM     11  C   UNL     1      -6.442  -4.963 136.223  0.00  0.00    +0.000 C 
ATOM     12  O   UNL     1      -6.696  -5.914 136.981  0.00  0.00    +0.000 OA
ATOM     13  C   UNL     1      -7.444  -4.868 134.906  0.00  0.00    +0.000 C 
ATOM     14  C   UNL     1      -7.206  -3.799 133.918  0.00  0.00    +0.000 C 
ATOM     15  S   UNL     1      -8.183  -2.791 132.187  0.00  0.00    +0.000 S 
ATOM     16  S   UNL     1      -8.198  -0.047 132.514  0.00  0.00    +0.000 S 
ATOM     17  C   UNL     1      -8.316   0.857 130.298  0.00  0.00    +0.000 C 
ATOM     18  C   UNL     1      -7.359   1.842 129.715  0.00  0.00    +0.000 C 
ATOM     19  N   UNL     1      -7.436   2.895 130.755  0.00  0.00    +0.000 N 
ATOM     20  C   UNL     1      -7.049   2.775 132.046  0.00  0.00    +0.000 C 
ATOM     21  O   UNL     1      -7.392   3.461 133.004  0.00  0.00    +0.000 OA
ATOM     22  C   UNL     1      -6.092   1.736 132.256  0.00  0.00    +0.000 C 
ATOM     23  N   UNL     1      -4.680   2.785 132.783  0.00  0.00    +0.000 N 
ATOM     24  C   UNL     1      -4.176   3.126 134.051  0.00  0.00    +0.000 C 
ATOM     25  O   UNL     1      -2.935   3.241 134.175  0.00  0.00    +0.000 OA
ATOM     26  H   UNL     1      -2.891   1.639 135.298  0.00  0.00    +0.000 HD
ATOM     27  H   UNL     1      -6.605  -0.022 136.732  0.00  0.00    +0.000 HD
ATOM     28  H   UNL     1      -4.992  -4.501 137.590  0.00  0.00    +0.000 HD
ATOM     29  H   UNL     1      -8.291   3.420 130.791  0.00  0.00    +0.000 HD
ATOM     30  H   UNL     1      -3.701   2.430 132.638  0.00  0.00    +0.000 HD
ENDROOT
BRANCH  18  31
ATOM     31  C   UNL     1      -5.825   1.286 129.007  0.00  0.00    +0.000 C 
ATOM     32  O   UNL     1      -5.942   0.183 128.460  0.00  0.00    +0.000 OA
ATOM     33  N   UNL     1      -4.686   2.247 128.732  0.00  0.00    +0.000 N 
ATOM     34  C   UNL     1      -4.030   2.916 129.796  0.00  0.00    +0.000 C 
ATOM     35  C   UNL     1      -3.169   4.001 129.158  0.00  0.00    +0.000 C 
ATOM     36  C   UNL     1      -2.549   3.356 127.969  0.00  0.00    +0.000 C 
ATOM     37  C   UNL     1      -3.689   2.431 127.524  0.00  0.00    +0.000 C 
BRANCH  37  38
ATOM     38  C   UNL     1      -3.810   3.424 126.330  0.00  0.00    +0.000 C 
ATOM     39  O   UNL     1      -2.717   3.757 125.814  0.00  0.00    +0.000 OA
ATOM     40  N   UNL     1      -5.165   3.650 125.888  0.00  0.00    +0.000 N 
ATOM     41  H   UNL     1      -5.750   3.548 126.691  0.00  0.00    +0.000 HD
BRANCH  40  42
ATOM     42  C   UNL     1      -6.010   3.234 124.346  0.00  0.00    +0.000 C 
BRANCH  42  43
ATOM     43  C   UNL     1      -5.943   4.147 122.597  0.00  0.00    +0.000 C 
ATOM     44  O   UNL     1      -5.161   4.905 121.980  0.00  0.00    +0.000 OA
ATOM     45  N   UNL     1      -6.506   4.126 121.362  0.00  0.00    +0.000 N 
ATOM     46  H   UNL     1      -6.141   3.231 121.389  0.00  0.00    +0.000 HD
BRANCH  45  47
ATOM     47  C   UNL     1      -5.607   4.598 119.943  0.00  0.00    +0.000 C 
BRANCH  47  48
ATOM     48  C   UNL     1      -6.283   5.189 118.462  0.00  0.00    +0.000 C 
ATOM     49  N   UNL     1      -5.830   6.284 117.711  0.00  0.00    +0.000 N 
ATOM     50  O   UNL     1      -7.350   4.702 118.088  0.00  0.00    +0.000 OA
ATOM     51  H   UNL     1      -5.280   7.000 118.175  0.00  0.00    +0.000 HD
ATOM     52  H   UNL     1      -5.875   6.523 116.736  0.00  0.00    +0.000 HD
ENDBRANCH  47  48
ENDBRANCH  45  47
ENDBRANCH  42  43
BRANCH  42  53
ATOM     53  C   UNL     1      -7.843   2.049 124.747  0.00  0.00    +0.000 C 
BRANCH  53  54
ATOM     54  C   UNL     1      -8.605   0.851 124.265  0.00  0.00    +0.000 C 
BRANCH  54  55
ATOM     55  C   UNL     1      -9.380   0.487 125.441  0.00  0.00    +0.000 C 
BRANCH  55  56
ATOM     56  N   UNL     1      -9.444  -0.863 125.083  0.00  0.00    +0.000 NA
ATOM     57  C   UNL     1      -8.835  -1.594 125.895  0.00  0.00    +0.000 C 
ATOM     58  N   UNL     1      -8.197  -1.188 126.986  0.00  0.00    +0.000 N 
ATOM     59  N   UNL     1      -8.916  -2.853 125.533  0.00  0.00    +0.000 N 
ATOM     60  H   UNL     1      -8.043  -0.193 127.123  0.00  0.00    +0.000 HD
ATOM     61  H   UNL     1      -7.700  -1.811 127.576  0.00  0.00    +0.000 HD
ATOM     62  H   UNL     1      -9.472  -2.992 124.689  0.00  0.00    +0.000 HD
ATOM     63  H   UNL     1      -8.584  -3.604 126.084  0.00  0.00    +0.000 HD
ENDBRANCH  55  56
ENDBRANCH  54  55
ENDBRANCH  53  54
ENDBRANCH  42  53
ENDBRANCH  40  42
ENDBRANCH  37  38
ENDBRANCH  18  31
BRANCH  22  64
ATOM     64  C   UNL     1      -6.364   0.176 131.116  0.00  0.00    +0.000 C 
BRANCH  64  65
ATOM     65  C   UNL     1      -5.516  -1.640 130.786  0.00  0.00    +0.000 C 
ATOM     66  N   UNL     1      -5.880  -2.581 129.304  0.00  0.00    +0.000 N 
ATOM     67  O   UNL     1      -4.533  -2.158 131.369  0.00  0.00    +0.000 OA
ATOM     68  H   UNL     1      -6.729  -2.046 128.844  0.00  0.00    +0.000 HD
ATOM     69  H   UNL     1      -6.599  -3.347 129.294  0.00  0.00    +0.000 HD
ENDBRANCH  64  65
ENDBRANCH  22  64
BRANCH   9  70
ATOM     70  C   UNL     1      -4.140  -3.545 134.954  0.00  0.00    +0.000 C 
BRANCH  70  71
ATOM     71  C   UNL     1      -2.782  -3.398 134.896  0.00  0.00    +0.000 A 
ATOM     72  C   UNL     1      -1.671  -4.583 135.797  0.00  0.00    +0.000 A 
ATOM     73  C   UNL     1       0.062  -4.481 135.657  0.00  0.00    +0.000 A 
ATOM     74  C   UNL     1       0.979  -3.244 134.788  0.00  0.00    +0.000 A 
ATOM     75  C   UNL     1       0.069  -1.993 134.127  0.00  0.00    +0.000 A 
ATOM     76  C   UNL     1      -1.853  -1.945 134.090  0.00  0.00    +0.000 A 
BRANCH  74  77
ATOM     77  O   UNL     1       2.307  -3.187 134.503  0.00  0.00    +0.000 OA
ATOM     78  H   UNL     1       2.792  -2.370 134.784  0.00  0.00    +0.000 HD
ENDBRANCH  74  77
ENDBRANCH  70  71
ENDBRANCH   9  70
BRANCH   5  79
ATOM     79  C   UNL     1      -4.943   1.416 138.089  0.00  0.00    +0.000 C 
BRANCH  79  80
ATOM     80  C   UNL     1      -5.112   1.252 139.575  0.00  0.00    +0.000 A 
ATOM     81  C   UNL     1      -4.278   0.350 140.129  0.00  0.00    +0.000 A 
ATOM     82  C   UNL     1      -4.541   0.022 141.439  0.00  0.00    +0.000 A 
ATOM     83  C   UNL     1      -5.493   0.692 142.239  0.00  0.00    +0.000 A 
ATOM     84  C   UNL     1      -6.259   1.689 141.738  0.00  0.00    +0.000 A 
ATOM     85  C   UNL     1      -6.000   1.981 140.446  0.00  0.00    +0.000 A 
ENDBRANCH  79  80
ENDBRANCH   5  79
BRANCH   1  86
ATOM     86  C   UNL     1      -5.871   3.848 135.765  0.00  0.00    +0.000 C 
BRANCH  86  88
ATOM     87  C   UNL     1      -6.483   6.044 135.339  0.00  0.00    +0.000 C 
ATOM     88  C   UNL     1      -5.284   5.191 135.550  0.00  0.00    +0.000 C 
ATOM     89  C   UNL     1      -4.455   5.791 136.608  0.00  0.00    +0.000 C 
ENDBRANCH  86  88
ENDBRANCH   1  86
TORSDOF 19
ENDMDL
MODEL 5
REMARK VINA RESULT:      -9.7      2.100      2.500
REMARK  Name = CHEMBL268306
REMARK  21 active torsions:
REMARK  status: ('A' for Active; 'I' for Inactive)
REMARK    1  A    between atoms: C_1  and  C_2
REMARK    2  A    between atoms: C_2  and  C_3
REMARK    3  A    between atoms: C_2  and  C_4
REMARK    4  A    between atoms: C_4  and  C_5
REMARK    5  A    between atoms: C_9  and  C_10
REMARK    6  A    between atoms: C_10  and  C_11
REMARK    7  A    between atoms: C_20  and  C_21
REMARK    8  A    between atoms: C_21  and  C_22
REMARK    9  A    between atoms: C_25  and  O_26
REMARK   10  A    between atoms: C_37  and  C_38
REMARK   11  A    between atoms: C_44  and  C_45
REMARK   12  A    between atoms: N_47  and  C_48
REMARK   13  A    between atoms: C_48  and  C_49
REMARK   14  A    between atoms: C_48  and  C_56
REMARK   15  A    between atoms: C_49  and  C_50
REMARK   16  A    between atoms: C_50  and  C_51
REMARK   17  A    between atoms: C_51  and  N_52
REMARK   18  A    between atoms: N_58  and  C_59
REMARK   19  A    between atoms: C_59  and  C_60
REMARK   20  A    between atoms: C_66  and  C_67
REMARK   21  A    between atoms: C_67  and  C_68
REMARK                            x       y       z     vdW  Elec       q    Type
REMARK                         _______ _______ _______ _____ _____    ______ ____
ROOT
ATOM      1  C   UNL     1      -5.354   4.620 135.903  0.00  0.00    +0.000 C 
ATOM      2  N   UNL     1      -3.971   3.951 136.715  0.00  0.00    +0.000 N 
ATOM      3  C   UNL     1      -3.583   3.016 137.720  0.00  0.00    +0.000 C 
ATOM      4  O   UNL     1      -2.469   2.502 137.853  0.00  0.00    +0.000 OA
ATOM      5  C   UNL     1      -4.647   2.559 138.666  0.00  0.00    +0.000 C 
ATOM      6  N   UNL     1      -5.423   1.523 138.185  0.00  0.00    +0.000 N 
ATOM      7  C   UNL     1      -4.770   0.326 138.037  0.00  0.00    +0.000 C 
ATOM      8  O   UNL     1      -5.542  -0.552 137.658  0.00  0.00    +0.000 OA
ATOM      9  C   UNL     1      -3.455  -0.448 137.911  0.00  0.00    +0.000 C 
ATOM     10  N   UNL     1      -3.918  -1.782 138.455  0.00  0.00    +0.000 N 
ATOM     11  C   UNL     1      -4.629  -2.913 137.994  0.00  0.00    +0.000 C 
ATOM     12  O   UNL     1      -4.699  -3.787 138.872  0.00  0.00    +0.000 OA
ATOM     13  C   UNL     1      -5.414  -3.311 136.588  0.00  0.00    +0.000 C 
ATOM     14  C   UNL     1      -5.362  -2.360 135.462  0.00  0.00    +0.000 C 
ATOM     15  S   UNL     1      -6.333  -1.945 133.499  0.00  0.00    +0.000 S 
ATOM     16  S   UNL     1      -7.203   0.675 133.354  0.00  0.00    +0.000 S 
ATOM     17  C   UNL     1      -7.262   1.197 131.017  0.00  0.00    +0.000 C 
ATOM     18  C   UNL     1      -6.564   2.347 130.371  0.00  0.00    +0.000 C 
ATOM     19  N   UNL     1      -7.096   3.450 131.206  0.00  0.00    +0.000 N 
ATOM     20  C   UNL     1      -6.881   3.627 132.530  0.00  0.00    +0.000 C 
ATOM     21  O   UNL     1      -7.545   4.291 133.320  0.00  0.00    +0.000 OA
ATOM     22  C   UNL     1      -5.701   2.977 133.004  0.00  0.00    +0.000 C 
ATOM     23  N   UNL     1      -4.752   4.476 133.480  0.00  0.00    +0.000 N 
ATOM     24  C   UNL     1      -4.559   5.120 134.715  0.00  0.00    +0.000 C 
ATOM     25  O   UNL     1      -3.439   5.634 134.937  0.00  0.00    +0.000 OA
ATOM     26  H   UNL     1      -3.087   4.288 136.314  0.00  0.00    +0.000 HD
ATOM     27  H   UNL     1      -6.312   1.750 137.642  0.00  0.00    +0.000 HD
ATOM     28  H   UNL     1      -3.592  -1.845 139.396  0.00  0.00    +0.000 HD
ATOM     29  H   UNL     1      -8.064   3.680 131.070  0.00  0.00    +0.000 HD
ATOM     30  H   UNL     1      -3.702   4.430 133.493  0.00  0.00    +0.000 HD
ENDROOT
BRANCH  18  31
ATOM     31  C   UNL     1      -4.849   2.212 129.919  0.00  0.00    +0.000 C 
ATOM     32  O   UNL     1      -4.519   1.039 129.706  0.00  0.00    +0.000 OA
ATOM     33  N   UNL     1      -4.062   3.411 129.430  0.00  0.00    +0.000 N 
ATOM     34  C   UNL     1      -3.819   4.515 130.285  0.00  0.00    +0.000 C 
ATOM     35  C   UNL     1      -3.282   5.636 129.402  0.00  0.00    +0.000 C 
ATOM     36  C   UNL     1      -2.323   4.975 128.475  0.00  0.00    +0.000 C 
ATOM     37  C   UNL     1      -3.022   3.625 128.264  0.00  0.00    +0.000 C 
BRANCH  37  38
ATOM     38  C   UNL     1      -3.293   4.173 126.832  0.00  0.00    +0.000 C 
ATOM     39  O   UNL     1      -2.415   3.883 125.986  0.00  0.00    +0.000 OA
ATOM     40  N   UNL     1      -4.600   4.761 126.665  0.00  0.00    +0.000 N 
ATOM     41  H   UNL     1      -4.859   5.143 127.550  0.00  0.00    +0.000 HD
BRANCH  40  42
ATOM     42  C   UNL     1      -6.025   4.258 125.674  0.00  0.00    +0.000 C 
BRANCH  42  43
ATOM     43  C   UNL     1      -7.478   2.999 126.121  0.00  0.00    +0.000 C 
ATOM     44  O   UNL     1      -8.692   2.857 125.851  0.00  0.00    +0.000 OA
ATOM     45  N   UNL     1      -7.695   1.755 126.619  0.00  0.00    +0.000 N 
ATOM     46  H   UNL     1      -7.159   1.529 125.847  0.00  0.00    +0.000 HD
BRANCH  45  47
ATOM     47  C   UNL     1      -9.066   0.800 126.120  0.00  0.00    +0.000 C 
BRANCH  47  48
ATOM     48  C   UNL     1      -9.029  -0.530 125.011  0.00  0.00    +0.000 C 
ATOM     49  N   UNL     1      -8.224  -1.676 125.101  0.00  0.00    +0.000 N 
ATOM     50  O   UNL     1      -9.660  -0.415 123.960  0.00  0.00    +0.000 OA
ATOM     51  H   UNL     1      -7.370  -1.631 125.650  0.00  0.00    +0.000 HD
ATOM     52  H   UNL     1      -8.322  -2.621 124.774  0.00  0.00    +0.000 HD
ENDBRANCH  47  48
ENDBRANCH  45  47
ENDBRANCH  42  43
BRANCH  42  53
ATOM     53  C   UNL     1      -5.615   4.529 123.509  0.00  0.00    +0.000 C 
BRANCH  53  54
ATOM     54  C   UNL     1      -5.228   3.769 122.275  0.00  0.00    +0.000 C 
BRANCH  54  55
ATOM     55  C   UNL     1      -6.419   3.899 121.450  0.00  0.00    +0.000 C 
BRANCH  55  56
ATOM     56  N   UNL     1      -7.203   3.132 122.316  0.00  0.00    +0.000 NA
ATOM     57  C   UNL     1      -8.410   3.138 121.988  0.00  0.00    +0.000 C 
ATOM     58  N   UNL     1      -8.933   3.772 120.945  0.00  0.00    +0.000 N 
ATOM     59  N   UNL     1      -9.118   2.409 122.818  0.00  0.00    +0.000 N 
ATOM     60  H   UNL     1      -8.358   4.439 120.437  0.00  0.00    +0.000 HD
ATOM     61  H   UNL     1      -9.906   3.770 120.753  0.00  0.00    +0.000 HD
ATOM     62  H   UNL     1      -8.554   1.964 123.543  0.00  0.00    +0.000 HD
ATOM     63  H   UNL     1     -10.077   2.204 122.687  0.00  0.00    +0.000 HD
ENDBRANCH  55  56
ENDBRANCH  54  55
ENDBRANCH  53  54
ENDBRANCH  42  53
ENDBRANCH  40  42
ENDBRANCH  37  38
ENDBRANCH  18  31
BRANCH  22  64
ATOM     64  C   UNL     1      -5.335   1.275 132.123  0.00  0.00    +0.000 C 
BRANCH  64  65
ATOM     65  C   UNL     1      -3.983  -0.238 132.228  0.00  0.00    +0.000 C 
ATOM     66  N   UNL     1      -3.781  -1.399 130.877  0.00  0.00    +0.000 N 
ATOM     67  O   UNL     1      -3.033  -0.379 133.034  0.00  0.00    +0.000 OA
ATOM     68  H   UNL     1      -4.633  -1.190 130.208  0.00  0.00    +0.000 HD
ATOM     69  H   UNL     1      -4.252  -2.338 130.876  0.00  0.00    +0.000 HD
ENDBRANCH  64  65
ENDBRANCH  22  64
BRANCH   9  70
ATOM     70  C   UNL     1      -2.690  -1.024 136.731  0.00  0.00    +0.000 C 
BRANCH  70  71
ATOM     71  C   UNL     1      -1.540  -1.554 137.248  0.00  0.00    +0.000 A 
ATOM     72  C   UNL     1      -1.130  -3.346 136.983  0.00  0.00    +0.000 A 
ATOM     73  C   UNL     1       0.375  -4.021 137.541  0.00  0.00    +0.000 A 
ATOM     74  C   UNL     1       1.616  -3.191 138.489  0.00  0.00    +0.000 A 
ATOM     75  C   UNL     1       1.235  -1.627 138.976  0.00  0.00    +0.000 A 
ATOM     76  C   UNL     1      -0.326  -0.658 138.409  0.00  0.00    +0.000 A 
BRANCH  74  77
ATOM     77  O   UNL     1       2.870  -3.596 138.820  0.00  0.00    +0.000 OA
ATOM     78  H   UNL     1       2.980  -4.543 139.092  0.00  0.00    +0.000 HD
ENDBRANCH  74  77
ENDBRANCH  70  71
ENDBRANCH   9  70
BRANCH   5  79
ATOM     79  C   UNL     1      -5.361   3.801 138.891  0.00  0.00    +0.000 C 
BRANCH  79  80
ATOM     80  C   UNL     1      -5.836   3.711 140.316  0.00  0.00    +0.000 A 
ATOM     81  C   UNL     1      -4.972   3.093 141.146  0.00  0.00    +0.000 A 
ATOM     82  C   UNL     1      -5.455   2.808 142.403  0.00  0.00    +0.000 A 
ATOM     83  C   UNL     1      -6.697   3.274 142.888  0.00  0.00    +0.000 A 
ATOM     84  C   UNL     1      -7.531   4.004 142.111  0.00  0.00    +0.000 A 
ATOM     85  C   UNL     1      -7.047   4.255 140.877  0.00  0.00    +0.000 A 
ENDBRANCH  79  80
ENDBRANCH   5  79
BRANCH   1  86
ATOM     86  C   UNL     1      -6.619   5.493 136.110  0.00  0.00    +0.000 C 
BRANCH  86  88
ATOM     87  C   UNL     1      -5.853   7.430 137.130  0.00  0.00    +0.000 C 
ATOM     88  C   UNL     1      -6.644   6.202 137.411  0.00  0.00    +0.000 C 
ATOM     89  C   UNL     1      -7.938   6.594 137.992  0.00  0.00    +0.000 C 
ENDBRANCH  86  88
ENDBRANCH   1  86
TORSDOF 19
ENDMDL
MODEL 6
REMARK VINA RESULT:      -9.7      2.386      3.928
REMARK  Name = CHEMBL268306
REMARK  21 active torsions:
REMARK  status: ('A' for Active; 'I' for Inactive)
REMARK    1  A    between atoms: C_1  and  C_2
REMARK    2  A    between atoms: C_2  and  C_3
REMARK    3  A    between atoms: C_2  and  C_4
REMARK    4  A    between atoms: C_4  and  C_5
REMARK    5  A    between atoms: C_9  and  C_10
REMARK    6  A    between atoms: C_10  and  C_11
REMARK    7  A    between atoms: C_20  and  C_21
REMARK    8  A    between atoms: C_21  and  C_22
REMARK    9  A    between atoms: C_25  and  O_26
REMARK   10  A    between atoms: C_37  and  C_38
REMARK   11  A    between atoms: C_44  and  C_45
REMARK   12  A    between atoms: N_47  and  C_48
REMARK   13  A    between atoms: C_48  and  C_49
REMARK   14  A    between atoms: C_48  and  C_56
REMARK   15  A    between atoms: C_49  and  C_50
REMARK   16  A    between atoms: C_50  and  C_51
REMARK   17  A    between atoms: C_51  and  N_52
REMARK   18  A    between atoms: N_58  and  C_59
REMARK   19  A    between atoms: C_59  and  C_60
REMARK   20  A    between atoms: C_66  and  C_67
REMARK   21  A    between atoms: C_67  and  C_68
REMARK                            x       y       z     vdW  Elec       q    Type
REMARK                         _______ _______ _______ _____ _____    ______ ____
ROOT
ATOM      1  C   UNL     1      -5.354   4.510 136.104  0.00  0.00    +0.000 C 
ATOM      2  N   UNL     1      -3.945   3.873 136.896  0.00  0.00    +0.000 N 
ATOM      3  C   UNL     1      -3.519   2.944 137.892  0.00  0.00    +0.000 C 
ATOM      4  O   UNL     1      -2.391   2.459 138.008  0.00  0.00    +0.000 OA
ATOM      5  C   UNL     1      -4.559   2.456 138.849  0.00  0.00    +0.000 C 
ATOM      6  N   UNL     1      -5.314   1.402 138.372  0.00  0.00    +0.000 N 
ATOM      7  C   UNL     1      -4.633   0.223 138.210  0.00  0.00    +0.000 C 
ATOM      8  O   UNL     1      -5.386  -0.673 137.836  0.00  0.00    +0.000 OA
ATOM      9  C   UNL     1      -3.299  -0.516 138.064  0.00  0.00    +0.000 C 
ATOM     10  N   UNL     1      -3.721  -1.864 138.608  0.00  0.00    +0.000 N 
ATOM     11  C   UNL     1      -4.408  -3.011 138.150  0.00  0.00    +0.000 C 
ATOM     12  O   UNL     1      -4.444  -3.891 139.025  0.00  0.00    +0.000 OA
ATOM     13  C   UNL     1      -5.200  -3.423 136.752  0.00  0.00    +0.000 C 
ATOM     14  C   UNL     1      -5.187  -2.466 135.630  0.00  0.00    +0.000 C 
ATOM     15  S   UNL     1      -6.194  -2.067 133.682  0.00  0.00    +0.000 S 
ATOM     16  S   UNL     1      -7.132   0.529 133.560  0.00  0.00    +0.000 S 
ATOM     17  C   UNL     1      -7.234   1.060 131.226  0.00  0.00    +0.000 C 
ATOM     18  C   UNL     1      -6.574   2.231 130.577  0.00  0.00    +0.000 C 
ATOM     19  N   UNL     1      -7.125   3.315 131.424  0.00  0.00    +0.000 N 
ATOM     20  C   UNL     1      -6.898   3.492 132.746  0.00  0.00    +0.000 C 
ATOM     21  O   UNL     1      -7.569   4.135 133.548  0.00  0.00    +0.000 OA
ATOM     22  C   UNL     1      -5.695   2.871 133.202  0.00  0.00    +0.000 C 
ATOM     23  N   UNL     1      -4.779   4.392 133.673  0.00  0.00    +0.000 N 
ATOM     24  C   UNL     1      -4.587   5.036 134.909  0.00  0.00    +0.000 C 
ATOM     25  O   UNL     1      -3.478   5.577 135.119  0.00  0.00    +0.000 OA
ATOM     26  H   UNL     1      -3.074   4.235 136.485  0.00  0.00    +0.000 HD
ATOM     27  H   UNL     1      -6.215   1.608 137.841  0.00  0.00    +0.000 HD
ATOM     28  H   UNL     1      -3.381  -1.923 139.544  0.00  0.00    +0.000 HD
ATOM     29  H   UNL     1      -8.100   3.521 131.301  0.00  0.00    +0.000 HD
ATOM     30  H   UNL     1      -3.728   4.373 133.672  0.00  0.00    +0.000 HD
ENDROOT
BRANCH  18  31
ATOM     31  C   UNL     1      -4.862   2.142 130.103  0.00  0.00    +0.000 C 
ATOM     32  O   UNL     1      -4.536   0.998 129.765  0.00  0.00    +0.000 OA
ATOM     33  N   UNL     1      -4.076   3.386 129.739  0.00  0.00    +0.000 N 
ATOM     34  C   UNL     1      -3.826   4.392 130.705  0.00  0.00    +0.000 C 
ATOM     35  C   UNL     1      -3.292   5.600 129.942  0.00  0.00    +0.000 C 
ATOM     36  C   UNL     1      -2.340   5.039 128.944  0.00  0.00    +0.000 C 
ATOM     37  C   UNL     1      -3.043   3.721 128.596  0.00  0.00    +0.000 C 
BRANCH  37  38
ATOM     38  C   UNL     1      -3.321   4.418 127.232  0.00  0.00    +0.000 C 
ATOM     39  O   UNL     1      -2.299   4.651 126.545  0.00  0.00    +0.000 OA
ATOM     40  N   UNL     1      -4.721   4.509 126.893  0.00  0.00    +0.000 N 
ATOM     41  H   UNL     1      -5.221   4.577 127.754  0.00  0.00    +0.000 HD
BRANCH  40  42
ATOM     42  C   UNL     1      -5.690   3.740 125.577  0.00  0.00    +0.000 C 
BRANCH  42  43
ATOM     43  C   UNL     1      -5.731   4.155 123.646  0.00  0.00    +0.000 C 
ATOM     44  O   UNL     1      -4.989   4.712 122.806  0.00  0.00    +0.000 OA
ATOM     45  N   UNL     1      -6.366   3.814 122.497  0.00  0.00    +0.000 N 
ATOM     46  H   UNL     1      -5.997   2.953 122.739  0.00  0.00    +0.000 HD
BRANCH  45  47
ATOM     47  C   UNL     1      -5.555   3.881 120.954  0.00  0.00    +0.000 C 
BRANCH  47  48
ATOM     48  C   UNL     1      -5.648   5.180 119.812  0.00  0.00    +0.000 C 
ATOM     49  N   UNL     1      -6.385   5.197 118.618  0.00  0.00    +0.000 N 
ATOM     50  O   UNL     1      -4.891   6.137 119.974  0.00  0.00    +0.000 OA
ATOM     51  H   UNL     1      -6.641   4.312 118.190  0.00  0.00    +0.000 HD
ATOM     52  H   UNL     1      -6.801   5.929 118.070  0.00  0.00    +0.000 HD
ENDBRANCH  47  48
ENDBRANCH  45  47
ENDBRANCH  42  43
BRANCH  42  53
ATOM     53  C   UNL     1      -7.519   2.787 126.398  0.00  0.00    +0.000 C 
BRANCH  53  54
ATOM     54  C   UNL     1      -7.973   1.774 127.405  0.00  0.00    +0.000 C 
BRANCH  54  55
ATOM     55  C   UNL     1      -7.809   0.524 126.678  0.00  0.00    +0.000 C 
BRANCH  55  56
ATOM     56  N   UNL     1      -6.564   0.255 127.257  0.00  0.00    +0.000 NA
ATOM     57  C   UNL     1      -6.256  -0.953 127.168  0.00  0.00    +0.000 C 
ATOM     58  N   UNL     1      -6.983  -1.905 126.595  0.00  0.00    +0.000 N 
ATOM     59  N   UNL     1      -5.085  -1.172 127.718  0.00  0.00    +0.000 N 
ATOM     60  H   UNL     1      -7.941  -1.698 126.329  0.00  0.00    +0.000 HD
ATOM     61  H   UNL     1      -6.703  -2.856 126.586  0.00  0.00    +0.000 HD
ATOM     62  H   UNL     1      -4.648  -0.325 128.081  0.00  0.00    +0.000 HD
ATOM     63  H   UNL     1      -4.613  -2.040 127.674  0.00  0.00    +0.000 HD
ENDBRANCH  55  56
ENDBRANCH  54  55
ENDBRANCH  53  54
ENDBRANCH  42  53
ENDBRANCH  40  42
ENDBRANCH  37  38
ENDBRANCH  18  31
BRANCH  22  64
ATOM     64  C   UNL     1      -5.296   1.183 132.309  0.00  0.00    +0.000 C 
BRANCH  64  65
ATOM     65  C   UNL     1      -3.890  -0.282 132.372  0.00  0.00    +0.000 C 
ATOM     66  N   UNL     1      -3.660  -1.409 130.997  0.00  0.00    +0.000 N 
ATOM     67  O   UNL     1      -2.928  -0.404 133.167  0.00  0.00    +0.000 OA
ATOM     68  H   UNL     1      -4.525  -1.217 130.340  0.00  0.00    +0.000 HD
ATOM     69  H   UNL     1      -4.097  -2.364 130.982  0.00  0.00    +0.000 HD
ENDBRANCH  64  65
ENDBRANCH  22  64
BRANCH   9  70
ATOM     70  C   UNL     1      -2.535  -1.067 136.872  0.00  0.00    +0.000 C 
BRANCH  70  71
ATOM     71  C   UNL     1      -1.370  -1.580 137.373  0.00  0.00    +0.000 A 
ATOM     72  C   UNL     1      -0.979  -3.385 137.181  0.00  0.00    +0.000 A 
ATOM     73  C   UNL     1       0.540  -4.043 137.718  0.00  0.00    +0.000 A 
ATOM     74  C   UNL     1       1.819  -3.178 138.581  0.00  0.00    +0.000 A 
ATOM     75  C   UNL     1       1.463  -1.590 139.006  0.00  0.00    +0.000 A 
ATOM     76  C   UNL     1      -0.112  -0.639 138.447  0.00  0.00    +0.000 A 
BRANCH  74  77
ATOM     77  O   UNL     1       3.081  -3.576 138.888  0.00  0.00    +0.000 OA
ATOM     78  H   UNL     1       3.188  -4.164 139.678  0.00  0.00    +0.000 HD
ENDBRANCH  74  77
ENDBRANCH  70  71
ENDBRANCH   9  70
BRANCH   5  79
ATOM     79  C   UNL     1      -5.302   3.677 139.088  0.00  0.00    +0.000 C 
BRANCH  79  80
ATOM     80  C   UNL     1      -5.675   3.613 140.544  0.00  0.00    +0.000 A 
ATOM     81  C   UNL     1      -6.827   4.244 140.846  0.00  0.00    +0.000 A 
ATOM     82  C   UNL     1      -7.095   4.386 142.188  0.00  0.00    +0.000 A 
ATOM     83  C   UNL     1      -6.335   3.771 143.208  0.00  0.00    +0.000 A 
ATOM     84  C   UNL     1      -5.240   3.027 142.921  0.00  0.00    +0.000 A 
ATOM     85  C   UNL     1      -4.984   2.918 141.601  0.00  0.00    +0.000 A 
ENDBRANCH  79  80
ENDBRANCH   5  79
BRANCH   1  86
ATOM     86  C   UNL     1      -6.639   5.349 136.332  0.00  0.00    +0.000 C 
BRANCH  86  88
ATOM     87  C   UNL     1      -5.877   7.391 137.124  0.00  0.00    +0.000 C 
ATOM     88  C   UNL     1      -6.601   6.169 137.564  0.00  0.00    +0.000 C 
ATOM     89  C   UNL     1      -7.866   6.570 138.200  0.00  0.00    +0.000 C 
ENDBRANCH  86  88
ENDBRANCH   1  86
TORSDOF 19
ENDMDL
MODEL 7
REMARK VINA RESULT:      -9.6      2.443      4.223
REMARK  Name = CHEMBL268306
REMARK  21 active torsions:
REMARK  status: ('A' for Active; 'I' for Inactive)
REMARK    1  A    between atoms: C_1  and  C_2
REMARK    2  A    between atoms: C_2  and  C_3
REMARK    3  A    between atoms: C_2  and  C_4
REMARK    4  A    between atoms: C_4  and  C_5
REMARK    5  A    between atoms: C_9  and  C_10
REMARK    6  A    between atoms: C_10  and  C_11
REMARK    7  A    between atoms: C_20  and  C_21
REMARK    8  A    between atoms: C_21  and  C_22
REMARK    9  A    between atoms: C_25  and  O_26
REMARK   10  A    between atoms: C_37  and  C_38
REMARK   11  A    between atoms: C_44  and  C_45
REMARK   12  A    between atoms: N_47  and  C_48
REMARK   13  A    between atoms: C_48  and  C_49
REMARK   14  A    between atoms: C_48  and  C_56
REMARK   15  A    between atoms: C_49  and  C_50
REMARK   16  A    between atoms: C_50  and  C_51
REMARK   17  A    between atoms: C_51  and  N_52
REMARK   18  A    between atoms: N_58  and  C_59
REMARK   19  A    between atoms: C_59  and  C_60
REMARK   20  A    between atoms: C_66  and  C_67
REMARK   21  A    between atoms: C_67  and  C_68
REMARK                            x       y       z     vdW  Elec       q    Type
REMARK                         _______ _______ _______ _____ _____    ______ ____
ROOT
ATOM      1  C   UNL     1      -5.286   4.486 136.228  0.00  0.00    +0.000 C 
ATOM      2  N   UNL     1      -3.893   3.822 137.027  0.00  0.00    +0.000 N 
ATOM      3  C   UNL     1      -3.489   2.870 138.011  0.00  0.00    +0.000 C 
ATOM      4  O   UNL     1      -2.366   2.374 138.133  0.00  0.00    +0.000 OA
ATOM      5  C   UNL     1      -4.546   2.372 138.943  0.00  0.00    +0.000 C 
ATOM      6  N   UNL     1      -5.302   1.334 138.436  0.00  0.00    +0.000 N 
ATOM      7  C   UNL     1      -4.628   0.153 138.260  0.00  0.00    +0.000 C 
ATOM      8  O   UNL     1      -5.383  -0.730 137.858  0.00  0.00    +0.000 OA
ATOM      9  C   UNL     1      -3.298  -0.594 138.119  0.00  0.00    +0.000 C 
ATOM     10  N   UNL     1      -3.738  -1.949 138.630  0.00  0.00    +0.000 N 
ATOM     11  C   UNL     1      -4.427  -3.081 138.140  0.00  0.00    +0.000 C 
ATOM     12  O   UNL     1      -4.482  -3.978 138.997  0.00  0.00    +0.000 OA
ATOM     13  C   UNL     1      -5.202  -3.459 136.723  0.00  0.00    +0.000 C 
ATOM     14  C   UNL     1      -5.166  -2.481 135.620  0.00  0.00    +0.000 C 
ATOM     15  S   UNL     1      -6.141  -2.037 133.666  0.00  0.00    +0.000 S 
ATOM     16  S   UNL     1      -7.058   0.569 133.582  0.00  0.00    +0.000 S 
ATOM     17  C   UNL     1      -7.123   1.146 131.258  0.00  0.00    +0.000 C 
ATOM     18  C   UNL     1      -6.445   2.323 130.641  0.00  0.00    +0.000 C 
ATOM     19  N   UNL     1      -6.999   3.396 131.501  0.00  0.00    +0.000 N 
ATOM     20  C   UNL     1      -6.789   3.546 132.829  0.00  0.00    +0.000 C 
ATOM     21  O   UNL     1      -7.467   4.178 133.634  0.00  0.00    +0.000 OA
ATOM     22  C   UNL     1      -5.598   2.906 133.290  0.00  0.00    +0.000 C 
ATOM     23  N   UNL     1      -4.677   4.410 133.804  0.00  0.00    +0.000 N 
ATOM     24  C   UNL     1      -4.498   5.028 135.055  0.00  0.00    +0.000 C 
ATOM     25  O   UNL     1      -3.388   5.556 135.291  0.00  0.00    +0.000 OA
ATOM     26  H   UNL     1      -3.014   4.185 136.636  0.00  0.00    +0.000 HD
ATOM     27  H   UNL     1      -6.194   1.558 137.896  0.00  0.00    +0.000 HD
ATOM     28  H   UNL     1      -3.412  -2.028 139.570  0.00  0.00    +0.000 HD
ATOM     29  H   UNL     1      -7.970   3.612 131.368  0.00  0.00    +0.000 HD
ATOM     30  H   UNL     1      -3.627   4.383 133.818  0.00  0.00    +0.000 HD
ENDROOT
BRANCH  18  31
ATOM     31  C   UNL     1      -4.727   2.231 130.190  0.00  0.00    +0.000 C 
ATOM     32  O   UNL     1      -4.385   1.075 129.910  0.00  0.00    +0.000 OA
ATOM     33  N   UNL     1      -3.950   3.464 129.775  0.00  0.00    +0.000 N 
ATOM     34  C   UNL     1      -3.720   4.517 130.694  0.00  0.00    +0.000 C 
ATOM     35  C   UNL     1      -3.190   5.693 129.880  0.00  0.00    +0.000 C 
ATOM     36  C   UNL     1      -2.221   5.096 128.921  0.00  0.00    +0.000 C 
ATOM     37  C   UNL     1      -2.907   3.755 128.628  0.00  0.00    +0.000 C 
BRANCH  37  38
ATOM     38  C   UNL     1      -3.177   4.383 127.229  0.00  0.00    +0.000 C 
ATOM     39  O   UNL     1      -2.243   4.247 126.405  0.00  0.00    +0.000 OA
ATOM     40  N   UNL     1      -4.530   4.851 127.046  0.00  0.00    +0.000 N 
ATOM     41  H   UNL     1      -4.859   5.136 127.945  0.00  0.00    +0.000 HD
BRANCH  40  42
ATOM     42  C   UNL     1      -5.858   4.290 125.958  0.00  0.00    +0.000 C 
BRANCH  42  43
ATOM     43  C   UNL     1      -5.978   4.366 123.988  0.00  0.00    +0.000 C 
ATOM     44  O   UNL     1      -5.256   4.732 123.033  0.00  0.00    +0.000 OA
ATOM     45  N   UNL     1      -6.683   3.863 122.944  0.00  0.00    +0.000 N 
ATOM     46  H   UNL     1      -6.338   3.040 123.317  0.00  0.00    +0.000 HD
BRANCH  45  47
ATOM     47  C   UNL     1      -5.947   3.622 121.380  0.00  0.00    +0.000 C 
BRANCH  47  48
ATOM     48  C   UNL     1      -6.307   4.513 119.939  0.00  0.00    +0.000 C 
ATOM     49  N   UNL     1      -7.438   4.364 119.121  0.00  0.00    +0.000 N 
ATOM     50  O   UNL     1      -5.433   5.257 119.495  0.00  0.00    +0.000 OA
ATOM     51  H   UNL     1      -7.946   3.485 119.146  0.00  0.00    +0.000 HD
ATOM     52  H   UNL     1      -7.937   4.984 118.507  0.00  0.00    +0.000 HD
ENDBRANCH  47  48
ENDBRANCH  45  47
ENDBRANCH  42  43
BRANCH  42  53
ATOM     53  C   UNL     1      -7.794   4.232 127.041  0.00  0.00    +0.000 C 
BRANCH  53  54
ATOM     54  C   UNL     1      -8.394   3.892 128.373  0.00  0.00    +0.000 C 
BRANCH  54  55
ATOM     55  C   UNL     1      -8.817   5.195 128.860  0.00  0.00    +0.000 C 
BRANCH  55  56
ATOM     56  N   UNL     1      -9.472   4.659 129.973  0.00  0.00    +0.000 NA
ATOM     57  C   UNL     1      -9.537   5.474 130.919  0.00  0.00    +0.000 C 
ATOM     58  N   UNL     1      -9.064   6.715 130.915  0.00  0.00    +0.000 N 
ATOM     59  N   UNL     1     -10.158   4.942 131.945  0.00  0.00    +0.000 N 
ATOM     60  H   UNL     1      -8.463   7.009 130.151  0.00  0.00    +0.000 HD
ATOM     61  H   UNL     1      -9.114   7.306 131.709  0.00  0.00    +0.000 HD
ATOM     62  H   UNL     1     -10.486   3.993 131.766  0.00  0.00    +0.000 HD
ATOM     63  H   UNL     1     -10.400   5.446 132.761  0.00  0.00    +0.000 HD
ENDBRANCH  55  56
ENDBRANCH  54  55
ENDBRANCH  53  54
ENDBRANCH  42  53
ENDBRANCH  40  42
ENDBRANCH  37  38
ENDBRANCH  18  31
BRANCH  22  64
ATOM     64  C   UNL     1      -5.200   1.233 132.370  0.00  0.00    +0.000 C 
BRANCH  64  65
ATOM     65  C   UNL     1      -3.813  -0.251 132.432  0.00  0.00    +0.000 C 
ATOM     66  N   UNL     1      -3.582  -1.366 131.048  0.00  0.00    +0.000 N 
ATOM     67  O   UNL     1      -2.861  -0.393 133.236  0.00  0.00    +0.000 OA
ATOM     68  H   UNL     1      -4.438  -1.157 130.384  0.00  0.00    +0.000 HD
ATOM     69  H   UNL     1      -4.031  -2.316 131.018  0.00  0.00    +0.000 HD
ENDBRANCH  64  65
ENDBRANCH  22  64
BRANCH   9  70
ATOM     70  C   UNL     1      -2.521  -1.128 136.927  0.00  0.00    +0.000 C 
BRANCH  70  71
ATOM     71  C   UNL     1      -1.355  -1.635 137.432  0.00  0.00    +0.000 A 
ATOM     72  C   UNL     1      -0.989  -3.451 137.307  0.00  0.00    +0.000 A 
ATOM     73  C   UNL     1       0.530  -4.106 137.848  0.00  0.00    +0.000 A 
ATOM     74  C   UNL     1       1.832  -3.223 138.656  0.00  0.00    +0.000 A 
ATOM     75  C   UNL     1       1.503  -1.614 139.020  0.00  0.00    +0.000 A 
ATOM     76  C   UNL     1      -0.069  -0.666 138.447  0.00  0.00    +0.000 A 
BRANCH  74  77
ATOM     77  O   UNL     1       3.094  -3.624 138.960  0.00  0.00    +0.000 OA
ATOM     78  H   UNL     1       3.225  -4.075 139.833  0.00  0.00    +0.000 HD
ENDBRANCH  74  77
ENDBRANCH  70  71
ENDBRANCH   9  70
BRANCH   5  79
ATOM     79  C   UNL     1      -5.283   3.595 139.196  0.00  0.00    +0.000 C 
BRANCH  79  80
ATOM     80  C   UNL     1      -5.715   3.485 140.633  0.00  0.00    +0.000 A 
ATOM     81  C   UNL     1      -6.934   4.002 140.882  0.00  0.00    +0.000 A 
ATOM     82  C   UNL     1      -7.276   4.108 142.211  0.00  0.00    +0.000 A 
ATOM     83  C   UNL     1      -6.509   3.560 143.263  0.00  0.00    +0.000 A 
ATOM     84  C   UNL     1      -5.337   2.925 143.026  0.00  0.00    +0.000 A 
ATOM     85  C   UNL     1      -5.011   2.850 141.719  0.00  0.00    +0.000 A 
ENDBRANCH  79  80
ENDBRANCH   5  79
BRANCH   1  86
ATOM     86  C   UNL     1      -6.567   5.330 136.454  0.00  0.00    +0.000 C 
BRANCH  86  88
ATOM     87  C   UNL     1      -5.899   7.447 137.124  0.00  0.00    +0.000 C 
ATOM     88  C   UNL     1      -6.503   6.196 137.654  0.00  0.00    +0.000 C 
ATOM     89  C   UNL     1      -7.747   6.534 138.364  0.00  0.00    +0.000 C 
ENDBRANCH  86  88
ENDBRANCH   1  86
TORSDOF 19
ENDMDL
MODEL 8
REMARK VINA RESULT:      -9.4      2.897     11.757
REMARK  Name = CHEMBL268306
REMARK  21 active torsions:
REMARK  status: ('A' for Active; 'I' for Inactive)
REMARK    1  A    between atoms: C_1  and  C_2
REMARK    2  A    between atoms: C_2  and  C_3
REMARK    3  A    between atoms: C_2  and  C_4
REMARK    4  A    between atoms: C_4  and  C_5
REMARK    5  A    between atoms: C_9  and  C_10
REMARK    6  A    between atoms: C_10  and  C_11
REMARK    7  A    between atoms: C_20  and  C_21
REMARK    8  A    between atoms: C_21  and  C_22
REMARK    9  A    between atoms: C_25  and  O_26
REMARK   10  A    between atoms: C_37  and  C_38
REMARK   11  A    between atoms: C_44  and  C_45
REMARK   12  A    between atoms: N_47  and  C_48
REMARK   13  A    between atoms: C_48  and  C_49
REMARK   14  A    between atoms: C_48  and  C_56
REMARK   15  A    between atoms: C_49  and  C_50
REMARK   16  A    between atoms: C_50  and  C_51
REMARK   17  A    between atoms: C_51  and  N_52
REMARK   18  A    between atoms: N_58  and  C_59
REMARK   19  A    between atoms: C_59  and  C_60
REMARK   20  A    between atoms: C_66  and  C_67
REMARK   21  A    between atoms: C_67  and  C_68
REMARK                            x       y       z     vdW  Elec       q    Type
REMARK                         _______ _______ _______ _____ _____    ______ ____
ROOT
ATOM      1  C   UNL     1      -6.729  -0.440 125.728  0.00  0.00    +0.000 C 
ATOM      2  N   UNL     1      -6.113   1.184 125.669  0.00  0.00    +0.000 N 
ATOM      3  C   UNL     1      -6.506   2.555 125.722  0.00  0.00    +0.000 C 
ATOM      4  O   UNL     1      -5.780   3.515 125.991  0.00  0.00    +0.000 OA
ATOM      5  C   UNL     1      -7.954   2.851 125.498  0.00  0.00    +0.000 C 
ATOM      6  N   UNL     1      -8.739   2.716 126.626  0.00  0.00    +0.000 N 
ATOM      7  C   UNL     1      -8.504   3.638 127.613  0.00  0.00    +0.000 C 
ATOM      8  O   UNL     1      -9.278   3.481 128.555  0.00  0.00    +0.000 OA
ATOM      9  C   UNL     1      -7.581   4.687 128.241  0.00  0.00    +0.000 C 
ATOM     10  N   UNL     1      -8.629   5.538 128.926  0.00  0.00    +0.000 N 
ATOM     11  C   UNL     1      -9.397   5.503 130.111  0.00  0.00    +0.000 C 
ATOM     12  O   UNL     1     -10.106   6.517 130.215  0.00  0.00    +0.000 OA
ATOM     13  C   UNL     1      -9.595   4.416 131.348  0.00  0.00    +0.000 C 
ATOM     14  C   UNL     1      -8.772   3.192 131.345  0.00  0.00    +0.000 C 
ATOM     15  S   UNL     1      -8.634   1.195 132.326  0.00  0.00    +0.000 S 
ATOM     16  S   UNL     1      -8.476  -0.826 130.448  0.00  0.00    +0.000 S 
ATOM     17  C   UNL     1      -7.372  -2.640 131.557  0.00  0.00    +0.000 C 
ATOM     18  C   UNL     1      -6.140  -3.328 131.071  0.00  0.00    +0.000 C 
ATOM     19  N   UNL     1      -6.594  -3.696 129.709  0.00  0.00    +0.000 N 
ATOM     20  C   UNL     1      -6.915  -2.839 128.713  0.00  0.00    +0.000 C 
ATOM     21  O   UNL     1      -7.601  -3.058 127.719  0.00  0.00    +0.000 OA
ATOM     22  C   UNL     1      -6.321  -1.548 128.863  0.00  0.00    +0.000 C 
ATOM     23  N   UNL     1      -5.240  -1.584 127.379  0.00  0.00    +0.000 N 
ATOM     24  C   UNL     1      -5.393  -1.057 126.084  0.00  0.00    +0.000 C 
ATOM     25  O   UNL     1      -4.373  -0.612 125.510  0.00  0.00    +0.000 OA
ATOM     26  H   UNL     1      -5.085   1.206 125.639  0.00  0.00    +0.000 HD
ATOM     27  H   UNL     1      -9.191   1.773 126.833  0.00  0.00    +0.000 HD
ATOM     28  H   UNL     1      -8.770   6.345 128.356  0.00  0.00    +0.000 HD
ATOM     29  H   UNL     1      -7.284  -4.423 129.654  0.00  0.00    +0.000 HD
ATOM     30  H   UNL     1      -4.369  -0.996 127.370  0.00  0.00    +0.000 HD
ENDROOT
BRANCH  18  31
ATOM     31  C   UNL     1      -4.537  -2.634 131.406  0.00  0.00    +0.000 C 
ATOM     32  O   UNL     1      -4.274  -1.692 130.648  0.00  0.00    +0.000 OA
ATOM     33  N   UNL     1      -3.828  -2.879 132.723  0.00  0.00    +0.000 N 
ATOM     34  C   UNL     1      -3.414  -4.184 133.089  0.00  0.00    +0.000 C 
ATOM     35  C   UNL     1      -3.022  -4.116 134.561  0.00  0.00    +0.000 C 
ATOM     36  C   UNL     1      -2.258  -2.847 134.701  0.00  0.00    +0.000 C 
ATOM     37  C   UNL     1      -3.010  -1.955 133.704  0.00  0.00    +0.000 C 
BRANCH  37  38
ATOM     38  C   UNL     1      -3.522  -1.233 134.985  0.00  0.00    +0.000 C 
ATOM     39  O   UNL     1      -2.978  -1.607 136.050  0.00  0.00    +0.000 OA
ATOM     40  N   UNL     1      -4.401  -0.119 134.721  0.00  0.00    +0.000 N 
ATOM     41  H   UNL     1      -4.885  -0.330 133.873  0.00  0.00    +0.000 HD
BRANCH  40  42
ATOM     42  C   UNL     1      -4.203   1.656 134.993  0.00  0.00    +0.000 C 
BRANCH  42  43
ATOM     43  C   UNL     1      -3.166   2.974 133.951  0.00  0.00    +0.000 C 
ATOM     44  O   UNL     1      -2.243   2.962 133.105  0.00  0.00    +0.000 OA
ATOM     45  N   UNL     1      -3.191   4.268 133.545  0.00  0.00    +0.000 N 
ATOM     46  H   UNL     1      -4.011   3.956 133.138  0.00  0.00    +0.000 HD
BRANCH  45  47
ATOM     47  C   UNL     1      -2.470   4.764 132.035  0.00  0.00    +0.000 C 
BRANCH  47  48
ATOM     48  C   UNL     1      -1.635   6.253 131.748  0.00  0.00    +0.000 C 
ATOM     49  N   UNL     1      -0.389   6.632 132.273  0.00  0.00    +0.000 N 
ATOM     50  O   UNL     1      -2.238   7.138 131.141  0.00  0.00    +0.000 OA
ATOM     51  H   UNL     1      -0.062   6.185 133.125  0.00  0.00    +0.000 HD
ATOM     52  H   UNL     1       0.340   7.247 131.956  0.00  0.00    +0.000 HD
ENDBRANCH  47  48
ENDBRANCH  45  47
ENDBRANCH  42  43
BRANCH  42  53
ATOM     53  C   UNL     1      -4.556   2.171 137.123  0.00  0.00    +0.000 C 
BRANCH  53  54
ATOM     54  C   UNL     1      -4.683   3.343 138.050  0.00  0.00    +0.000 C 
BRANCH  54  55
ATOM     55  C   UNL     1      -4.399   4.464 137.168  0.00  0.00    +0.000 C 
BRANCH  55  56
ATOM     56  N   UNL     1      -5.707   4.514 136.675  0.00  0.00    +0.000 NA
ATOM     57  C   UNL     1      -6.123   5.688 136.564  0.00  0.00    +0.000 C 
ATOM     58  N   UNL     1      -5.441   6.790 136.856  0.00  0.00    +0.000 N 
ATOM     59  N   UNL     1      -7.350   5.701 136.099  0.00  0.00    +0.000 N 
ATOM     60  H   UNL     1      -4.560   6.704 137.354  0.00  0.00    +0.000 HD
ATOM     61  H   UNL     1      -5.836   7.696 136.780  0.00  0.00    +0.000 HD
ATOM     62  H   UNL     1      -7.711   4.769 135.896  0.00  0.00    +0.000 HD
ATOM     63  H   UNL     1      -7.832   6.528 135.848  0.00  0.00    +0.000 HD
ENDBRANCH  55  56
ENDBRANCH  54  55
ENDBRANCH  53  54
ENDBRANCH  42  53
ENDBRANCH  40  42
ENDBRANCH  37  38
ENDBRANCH  18  31
BRANCH  22  64
ATOM     64  C   UNL     1      -6.180  -0.961 130.718  0.00  0.00    +0.000 C 
BRANCH  64  65
ATOM     65  C   UNL     1      -5.307   0.533 131.785  0.00  0.00    +0.000 C 
ATOM     66  N   UNL     1      -3.559   0.892 131.620  0.00  0.00    +0.000 N 
ATOM     67  O   UNL     1      -5.860   1.466 132.413  0.00  0.00    +0.000 OA
ATOM     68  H   UNL     1      -3.160   0.045 131.037  0.00  0.00    +0.000 HD
ATOM     69  H   UNL     1      -2.848   0.519 132.298  0.00  0.00    +0.000 HD
ENDBRANCH  64  65
ENDBRANCH  22  64
BRANCH   9  70
ATOM     70  C   UNL     1      -6.617   4.663 129.415  0.00  0.00    +0.000 C 
BRANCH  70  71
ATOM     71  C   UNL     1      -5.412   4.260 128.907  0.00  0.00    +0.000 A 
ATOM     72  C   UNL     1      -4.949   2.462 128.904  0.00  0.00    +0.000 A 
ATOM     73  C   UNL     1      -3.469   1.911 128.171  0.00  0.00    +0.000 A 
ATOM     74  C   UNL     1      -2.201   2.922 127.466  0.00  0.00    +0.000 A 
ATOM     75  C   UNL     1      -2.422   4.582 127.624  0.00  0.00    +0.000 A 
ATOM     76  C   UNL     1      -4.012   5.409 128.321  0.00  0.00    +0.000 A 
BRANCH  74  77
ATOM     77  O   UNL     1      -1.108   2.565 126.743  0.00  0.00    +0.000 OA
ATOM     78  H   UNL     1      -1.246   1.907 126.014  0.00  0.00    +0.000 HD
ENDBRANCH  74  77
ENDBRANCH  70  71
ENDBRANCH   9  70
BRANCH   5  79
ATOM     79  C   UNL     1      -8.259   1.921 124.429  0.00  0.00    +0.000 C 
BRANCH  79  80
ATOM     80  C   UNL     1      -7.914   2.666 123.169  0.00  0.00    +0.000 A 
ATOM     81  C   UNL     1      -8.973   2.936 122.380  0.00  0.00    +0.000 A 
ATOM     82  C   UNL     1      -8.675   3.429 121.131  0.00  0.00    +0.000 A 
ATOM     83  C   UNL     1      -7.376   3.809 120.728  0.00  0.00    +0.000 A 
ATOM     84  C   UNL     1      -6.310   3.661 121.549  0.00  0.00    +0.000 A 
ATOM     85  C   UNL     1      -6.621   3.158 122.762  0.00  0.00    +0.000 A 
ENDBRANCH  79  80
ENDBRANCH   5  79
BRANCH   1  86
ATOM     86  C   UNL     1      -7.612  -1.466 124.971  0.00  0.00    +0.000 C 
BRANCH  86  88
ATOM     87  C   UNL     1      -7.640  -3.665 124.237  0.00  0.00    +0.000 C 
ATOM     88  C   UNL     1      -6.837  -2.418 124.143  0.00  0.00    +0.000 C 
ATOM     89  C   UNL     1      -6.603  -2.110 122.722  0.00  0.00    +0.000 C 
ENDBRANCH  86  88
ENDBRANCH   1  86
TORSDOF 19
ENDMDL
MODEL 9
REMARK VINA RESULT:      -9.4      3.232     12.148
REMARK  Name = CHEMBL268306
REMARK  21 active torsions:
REMARK  status: ('A' for Active; 'I' for Inactive)
REMARK    1  A    between atoms: C_1  and  C_2
REMARK    2  A    between atoms: C_2  and  C_3
REMARK    3  A    between atoms: C_2  and  C_4
REMARK    4  A    between atoms: C_4  and  C_5
REMARK    5  A    between atoms: C_9  and  C_10
REMARK    6  A    between atoms: C_10  and  C_11
REMARK    7  A    between atoms: C_20  and  C_21
REMARK    8  A    between atoms: C_21  and  C_22
REMARK    9  A    between atoms: C_25  and  O_26
REMARK   10  A    between atoms: C_37  and  C_38
REMARK   11  A    between atoms: C_44  and  C_45
REMARK   12  A    between atoms: N_47  and  C_48
REMARK   13  A    between atoms: C_48  and  C_49
REMARK   14  A    between atoms: C_48  and  C_56
REMARK   15  A    between atoms: C_49  and  C_50
REMARK   16  A    between atoms: C_50  and  C_51
REMARK   17  A    between atoms: C_51  and  N_52
REMARK   18  A    between atoms: N_58  and  C_59
REMARK   19  A    between atoms: C_59  and  C_60
REMARK   20  A    between atoms: C_66  and  C_67
REMARK   21  A    between atoms: C_67  and  C_68
REMARK                            x       y       z     vdW  Elec       q    Type
REMARK                         _______ _______ _______ _____ _____    ______ ____
ROOT
ATOM      1  C   UNL     1      -7.108  -1.496 126.749  0.00  0.00    +0.000 C 
ATOM      2  N   UNL     1      -6.382   0.043 126.397  0.00  0.00    +0.000 N 
ATOM      3  C   UNL     1      -6.645   1.445 126.360  0.00  0.00    +0.000 C 
ATOM      4  O   UNL     1      -5.806   2.349 126.385  0.00  0.00    +0.000 OA
ATOM      5  C   UNL     1      -8.080   1.864 126.362  0.00  0.00    +0.000 C 
ATOM      6  N   UNL     1      -8.650   1.921 127.619  0.00  0.00    +0.000 N 
ATOM      7  C   UNL     1      -8.161   2.907 128.437  0.00  0.00    +0.000 C 
ATOM      8  O   UNL     1      -8.756   2.922 129.512  0.00  0.00    +0.000 OA
ATOM      9  C   UNL     1      -7.055   3.913 128.767  0.00  0.00    +0.000 C 
ATOM     10  N   UNL     1      -7.883   4.929 129.523  0.00  0.00    +0.000 N 
ATOM     11  C   UNL     1      -8.418   5.088 130.822  0.00  0.00    +0.000 C 
ATOM     12  O   UNL     1      -9.010   6.174 130.932  0.00  0.00    +0.000 OA
ATOM     13  C   UNL     1      -8.471   4.153 132.190  0.00  0.00    +0.000 C 
ATOM     14  C   UNL     1      -7.765   2.858 132.184  0.00  0.00    +0.000 C 
ATOM     15  S   UNL     1      -7.612   0.964 133.348  0.00  0.00    +0.000 S 
ATOM     16  S   UNL     1      -7.972  -1.238 131.716  0.00  0.00    +0.000 S 
ATOM     17  C   UNL     1      -6.833  -3.037 132.814  0.00  0.00    +0.000 C 
ATOM     18  C   UNL     1      -5.774  -3.891 132.201  0.00  0.00    +0.000 C 
ATOM     19  N   UNL     1      -6.502  -4.343 130.992  0.00  0.00    +0.000 N 
ATOM     20  C   UNL     1      -6.931  -3.559 129.976  0.00  0.00    +0.000 C 
ATOM     21  O   UNL     1      -7.806  -3.804 129.151  0.00  0.00    +0.000 OA
ATOM     22  C   UNL     1      -6.216  -2.327 129.870  0.00  0.00    +0.000 C 
ATOM     23  N   UNL     1      -5.436  -2.618 128.233  0.00  0.00    +0.000 N 
ATOM     24  C   UNL     1      -5.784  -2.207 126.933  0.00  0.00    +0.000 C 
ATOM     25  O   UNL     1      -4.856  -1.927 126.142  0.00  0.00    +0.000 OA
ATOM     26  H   UNL     1      -5.380  -0.042 126.184  0.00  0.00    +0.000 HD
ATOM     27  H   UNL     1      -9.132   1.053 128.009  0.00  0.00    +0.000 HD
ATOM     28  H   UNL     1      -8.061   5.686 128.898  0.00  0.00    +0.000 HD
ATOM     29  H   UNL     1      -7.247  -4.998 131.143  0.00  0.00    +0.000 HD
ATOM     30  H   UNL     1      -4.537  -2.125 128.003  0.00  0.00    +0.000 HD
ENDROOT
BRANCH  18  31
ATOM     31  C   UNL     1      -4.085  -3.334 132.167  0.00  0.00    +0.000 C 
ATOM     32  O   UNL     1      -3.920  -2.411 131.359  0.00  0.00    +0.000 OA
ATOM     33  N   UNL     1      -3.125  -3.646 133.297  0.00  0.00    +0.000 N 
ATOM     34  C   UNL     1      -2.749  -4.984 133.576  0.00  0.00    +0.000 C 
ATOM     35  C   UNL     1      -2.038  -4.959 134.925  0.00  0.00    +0.000 C 
ATOM     36  C   UNL     1      -1.160  -3.758 134.880  0.00  0.00    +0.000 C 
ATOM     37  C   UNL     1      -2.038  -2.800 134.063  0.00  0.00    +0.000 C 
BRANCH  37  38
ATOM     38  C   UNL     1      -2.194  -2.048 135.418  0.00  0.00    +0.000 C 
ATOM     39  O   UNL     1      -1.199  -1.365 135.755  0.00  0.00    +0.000 OA
ATOM     40  N   UNL     1      -3.526  -2.104 135.971  0.00  0.00    +0.000 N 
ATOM     41  H   UNL     1      -3.923  -2.971 135.677  0.00  0.00    +0.000 HD
BRANCH  40  42
ATOM     42  C   UNL     1      -4.767  -0.820 136.244  0.00  0.00    +0.000 C 
BRANCH  42  43
ATOM     43  C   UNL     1      -4.576   1.144 136.156  0.00  0.00    +0.000 C 
ATOM     44  O   UNL     1      -3.852   2.025 136.672  0.00  0.00    +0.000 OA
ATOM     45  N   UNL     1      -4.913   2.213 135.391  0.00  0.00    +0.000 N 
ATOM     46  H   UNL     1      -4.401   1.707 134.745  0.00  0.00    +0.000 HD
BRANCH  45  47
ATOM     47  C   UNL     1      -3.891   3.624 135.299  0.00  0.00    +0.000 C 
BRANCH  47  48
ATOM     48  C   UNL     1      -3.164   4.260 133.862  0.00  0.00    +0.000 C 
ATOM     49  N   UNL     1      -2.127   5.204 133.792  0.00  0.00    +0.000 N 
ATOM     50  O   UNL     1      -3.686   3.976 132.784  0.00  0.00    +0.000 OA
ATOM     51  H   UNL     1      -1.974   5.820 134.585  0.00  0.00    +0.000 HD
ATOM     52  H   UNL     1      -1.408   5.396 133.117  0.00  0.00    +0.000 HD
ENDBRANCH  47  48
ENDBRANCH  45  47
ENDBRANCH  42  43
BRANCH  42  53
ATOM     53  C   UNL     1      -6.411  -1.573 137.531  0.00  0.00    +0.000 C 
BRANCH  53  54
ATOM     54  C   UNL     1      -7.623  -2.457 137.505  0.00  0.00    +0.000 C 
BRANCH  54  55
ATOM     55  C   UNL     1      -7.231  -3.485 136.553  0.00  0.00    +0.000 C 
BRANCH  55  56
ATOM     56  N   UNL     1      -8.063  -4.451 137.129  0.00  0.00    +0.000 NA
ATOM     57  C   UNL     1      -8.954  -4.835 136.339  0.00  0.00    +0.000 C 
ATOM     58  N   UNL     1      -9.126  -4.414 135.092  0.00  0.00    +0.000 N 
ATOM     59  N   UNL     1      -9.715  -5.740 136.907  0.00  0.00    +0.000 N 
ATOM     60  H   UNL     1      -8.602  -3.606 134.769  0.00  0.00    +0.000 HD
ATOM     61  H   UNL     1      -9.874  -4.730 134.522  0.00  0.00    +0.000 HD
ATOM     62  H   UNL     1      -9.421  -5.972 137.857  0.00  0.00    +0.000 HD
ATOM     63  H   UNL     1     -10.420  -6.242 136.428  0.00  0.00    +0.000 HD
ENDBRANCH  55  56
ENDBRANCH  54  55
ENDBRANCH  53  54
ENDBRANCH  42  53
ENDBRANCH  40  42
ENDBRANCH  37  38
ENDBRANCH  18  31
BRANCH  22  64
ATOM     64  C   UNL     1      -5.685  -1.578 131.591  0.00  0.00    +0.000 C 
BRANCH  64  65
ATOM     65  C   UNL     1      -4.507  -0.085 132.308  0.00  0.00    +0.000 C 
ATOM     66  N   UNL     1      -4.356   1.477 131.442  0.00  0.00    +0.000 N 
ATOM     67  O   UNL     1      -4.010   0.032 133.454  0.00  0.00    +0.000 OA
ATOM     68  H   UNL     1      -4.838   1.295 130.466  0.00  0.00    +0.000 HD
ATOM     69  H   UNL     1      -3.551   1.678 130.796  0.00  0.00    +0.000 HD
ENDBRANCH  64  65
ENDBRANCH  22  64
BRANCH   9  70
ATOM     70  C   UNL     1      -5.894   3.906 129.748  0.00  0.00    +0.000 C 
BRANCH  70  71
ATOM     71  C   UNL     1      -5.312   5.140 129.654  0.00  0.00    +0.000 A 
ATOM     72  C   UNL     1      -4.209   5.552 128.218  0.00  0.00    +0.000 A 
ATOM     73  C   UNL     1      -3.539   7.147 128.021  0.00  0.00    +0.000 A 
ATOM     74  C   UNL     1      -3.696   8.503 129.145  0.00  0.00    +0.000 A 
ATOM     75  C   UNL     1      -4.488   8.163 130.589  0.00  0.00    +0.000 A 
ATOM     76  C   UNL     1      -5.374   6.503 130.982  0.00  0.00    +0.000 A 
BRANCH  74  77
ATOM     77  O   UNL     1      -3.342   9.806 128.988  0.00  0.00    +0.000 OA
ATOM     78  H   UNL     1      -4.078  10.461 128.881  0.00  0.00    +0.000 HD
ENDBRANCH  74  77
ENDBRANCH  70  71
ENDBRANCH   9  70
BRANCH   5  79
ATOM     79  C   UNL     1      -8.654   0.869 125.478  0.00  0.00    +0.000 C 
BRANCH  79  80
ATOM     80  C   UNL     1      -8.836   1.587 124.168  0.00  0.00    +0.000 A 
ATOM     81  C   UNL     1      -9.773   1.042 123.367  0.00  0.00    +0.000 A 
ATOM     82  C   UNL     1      -9.823   1.540 122.085  0.00  0.00    +0.000 A 
ATOM     83  C   UNL     1      -9.085   2.665 121.653  0.00  0.00    +0.000 A 
ATOM     84  C   UNL     1      -8.226   3.307 122.479  0.00  0.00    +0.000 A 
ATOM     85  C   UNL     1      -8.178   2.790 123.724  0.00  0.00    +0.000 A 
ENDBRANCH  79  80
ENDBRANCH   5  79
BRANCH   1  86
ATOM     86  C   UNL     1      -8.198  -2.496 126.283  0.00  0.00    +0.000 C 
BRANCH  86  88
ATOM     87  C   UNL     1      -9.340  -3.475 124.518  0.00  0.00    +0.000 C 
ATOM     88  C   UNL     1      -7.984  -3.006 124.909  0.00  0.00    +0.000 C 
ATOM     89  C   UNL     1      -7.483  -2.090 123.872  0.00  0.00    +0.000 C 
ENDBRANCH  86  88
ENDBRANCH   1  86
TORSDOF 19
ENDMDL
