MODEL 1
REMARK VINA RESULT:     -10.5      0.000      0.000
REMARK  Name = CHEMBL322187
REMARK  8 active torsions:
REMARK  status: ('A' for Active; 'I' for Inactive)
REMARK    1  A    between atoms: C_1  and  O_2
REMARK    2  A    between atoms: O_2  and  C_3
REMARK    3  A    between atoms: C_5  and  O_6
REMARK    4  A    between atoms: O_6  and  C_7
REMARK    5  A    between atoms: C_7  and  C_8
REMARK    6  A    between atoms: C_7  and  C_9
REMARK    7  A    between atoms: C_17  and  C_18
REMARK    8  A    between atoms: C_23  and  N_24
REMARK                            x       y       z     vdW  Elec       q    Type
REMARK                         _______ _______ _______ _____ _____    ______ ____
ROOT
ATOM      1  C   UNL     1      -7.028   0.926 129.729  0.00  0.00    +0.000 C 
ATOM      2  O   UNL     1      -5.813   0.774 129.888  0.00  0.00    +0.000 OA
ATOM      3  N   UNL     1      -7.734   1.949 130.448  0.00  0.00    +0.000 N 
ATOM      4  C   UNL     1      -7.330   3.382 130.166  0.00  0.00    +0.000 C 
ATOM      5  C   UNL     1      -7.581   4.313 131.329  0.00  0.00    +0.000 C 
ATOM      6  C   UNL     1      -9.277   4.559 131.516  0.00  0.00    +0.000 C 
ATOM      7  C   UNL     1      -9.474   2.853 132.026  0.00  0.00    +0.000 C 
ATOM      8  C   UNL     1      -9.098   1.742 131.041  0.00  0.00    +0.000 C 
ENDROOT
BRANCH   6   9
ATOM      9  N   UNL     1      -9.867   6.068 130.619  0.00  0.00    +0.000 N 
ATOM     10  C   UNL     1     -10.686   6.278 131.751  0.00  0.00    +0.000 C 
ATOM     11  O   UNL     1     -10.262   6.442 132.964  0.00  0.00    +0.000 OA
ATOM     12  O   UNL     1     -11.972   6.023 131.618  0.00  0.00    +0.000 OA
ATOM     13  C   UNL     1     -12.351   7.289 131.221  0.00  0.00    +0.000 C 
ATOM     14  C   UNL     1     -12.236   6.979 129.794  0.00  0.00    +0.000 A 
ATOM     15  C   UNL     1     -13.197   6.611 128.838  0.00  0.00    +0.000 A 
ATOM     16  C   UNL     1     -13.241   7.202 127.575  0.00  0.00    +0.000 A 
ATOM     17  C   UNL     1     -12.405   8.263 127.481  0.00  0.00    +0.000 A 
ATOM     18  C   UNL     1     -11.204   8.147 128.434  0.00  0.00    +0.000 A 
ATOM     19  C   UNL     1     -10.969   6.868 129.369  0.00  0.00    +0.000 A 
ENDBRANCH   6   9
BRANCH   1  25
ATOM     20  C   UNL     1      -8.278   0.612 127.493  0.00  0.00    +0.000 A 
ATOM     21  C   UNL     1      -8.627  -0.243 126.465  0.00  0.00    +0.000 A 
ATOM     22  C   UNL     1      -8.672  -1.615 126.527  0.00  0.00    +0.000 A 
ATOM     23  C   UNL     1      -7.998  -2.175 127.593  0.00  0.00    +0.000 A 
ATOM     24  C   UNL     1      -7.481  -1.330 128.617  0.00  0.00    +0.000 A 
ATOM     25  C   UNL     1      -7.667   0.098 128.623  0.00  0.00    +0.000 A 
BRANCH  20  27
ATOM     26  C   UNL     1      -7.899   2.524 126.217  0.00  0.00    +0.000 C 
ATOM     27  O   UNL     1      -8.723   1.857 127.136  0.00  0.00    +0.000 OA
ENDBRANCH  20  27
BRANCH  22  28
ATOM     28  O   UNL     1      -9.305  -2.420 125.623  0.00  0.00    +0.000 OA
BRANCH  28  29
ATOM     29  C   UNL     1      -8.958  -2.415 124.204  0.00  0.00    +0.000 C 
ATOM     30  C   UNL     1      -9.770  -3.353 123.317  0.00  0.00    +0.000 C 
BRANCH  29  31
ATOM     31  C   UNL     1      -7.485  -2.633 123.884  0.00  0.00    +0.000 A 
ATOM     32  C   UNL     1      -6.734  -3.656 124.464  0.00  0.00    +0.000 A 
ATOM     33  C   UNL     1      -5.430  -3.857 124.037  0.00  0.00    +0.000 A 
ATOM     34  N   UNL     1      -4.825  -3.119 123.082  0.00  0.00    +0.000 NA
ATOM     35  C   UNL     1      -5.561  -2.136 122.526  0.00  0.00    +0.000 A 
ATOM     36  C   UNL     1      -6.874  -1.864 122.879  0.00  0.00    +0.000 A 
ENDBRANCH  29  31
ENDBRANCH  28  29
ENDBRANCH  22  28
ENDBRANCH   1  25
TORSDOF 6
ENDMDL
MODEL 2
REMARK VINA RESULT:     -10.3      0.935      1.241
REMARK  Name = CHEMBL322187
REMARK  8 active torsions:
REMARK  status: ('A' for Active; 'I' for Inactive)
REMARK    1  A    between atoms: C_1  and  O_2
REMARK    2  A    between atoms: O_2  and  C_3
REMARK    3  A    between atoms: C_5  and  O_6
REMARK    4  A    between atoms: O_6  and  C_7
REMARK    5  A    between atoms: C_7  and  C_8
REMARK    6  A    between atoms: C_7  and  C_9
REMARK    7  A    between atoms: C_17  and  C_18
REMARK    8  A    between atoms: C_23  and  N_24
REMARK                            x       y       z     vdW  Elec       q    Type
REMARK                         _______ _______ _______ _____ _____    ______ ____
ROOT
ATOM      1  C   UNL     1      -6.499   1.922 128.519  0.00  0.00    +0.000 C 
ATOM      2  O   UNL     1      -5.284   1.953 128.296  0.00  0.00    +0.000 OA
ATOM      3  N   UNL     1      -7.090   2.835 129.456  0.00  0.00    +0.000 N 
ATOM      4  C   UNL     1      -7.001   4.310 129.119  0.00  0.00    +0.000 C 
ATOM      5  C   UNL     1      -7.016   5.203 130.337  0.00  0.00    +0.000 C 
ATOM      6  C   UNL     1      -8.591   5.197 131.038  0.00  0.00    +0.000 C 
ATOM      7  C   UNL     1      -8.377   3.485 131.519  0.00  0.00    +0.000 C 
ATOM      8  C   UNL     1      -8.164   2.434 130.426  0.00  0.00    +0.000 C 
ENDROOT
BRANCH   6   9
ATOM      9  N   UNL     1      -9.636   6.595 130.420  0.00  0.00    +0.000 N 
ATOM     10  C   UNL     1     -10.395   6.394 131.594  0.00  0.00    +0.000 C 
ATOM     11  O   UNL     1      -9.943   6.487 132.804  0.00  0.00    +0.000 OA
ATOM     12  O   UNL     1     -11.568   5.810 131.460  0.00  0.00    +0.000 OA
ATOM     13  C   UNL     1     -12.307   6.962 131.287  0.00  0.00    +0.000 C 
ATOM     14  C   UNL     1     -12.218   6.915 129.826  0.00  0.00    +0.000 A 
ATOM     15  C   UNL     1     -13.110   6.438 128.852  0.00  0.00    +0.000 A 
ATOM     16  C   UNL     1     -13.408   7.175 127.705  0.00  0.00    +0.000 A 
ATOM     17  C   UNL     1     -12.903   8.430 127.762  0.00  0.00    +0.000 A 
ATOM     18  C   UNL     1     -11.649   8.516 128.646  0.00  0.00    +0.000 A 
ATOM     19  C   UNL     1     -11.004   7.230 129.352  0.00  0.00    +0.000 A 
ENDBRANCH   6   9
BRANCH   1  25
ATOM     20  C   UNL     1      -8.104   1.408 126.564  0.00  0.00    +0.000 A 
ATOM     21  C   UNL     1      -8.626   0.460 125.705  0.00  0.00    +0.000 A 
ATOM     22  C   UNL     1      -8.673  -0.896 125.922  0.00  0.00    +0.000 A 
ATOM     23  C   UNL     1      -7.836  -1.359 126.917  0.00  0.00    +0.000 A 
ATOM     24  C   UNL     1      -7.150  -0.425 127.746  0.00  0.00    +0.000 A 
ATOM     25  C   UNL     1      -7.319   1.000 127.628  0.00  0.00    +0.000 A 
BRANCH  20  27
ATOM     26  C   UNL     1      -8.589   2.802 124.762  0.00  0.00    +0.000 C 
ATOM     27  O   UNL     1      -8.591   2.621 126.153  0.00  0.00    +0.000 OA
ENDBRANCH  20  27
BRANCH  22  28
ATOM     28  O   UNL     1      -9.453  -1.774 125.225  0.00  0.00    +0.000 OA
BRANCH  28  29
ATOM     29  C   UNL     1      -9.121  -2.201 123.868  0.00  0.00    +0.000 C 
ATOM     30  C   UNL     1      -9.964  -3.338 123.302  0.00  0.00    +0.000 C 
BRANCH  29  31
ATOM     31  C   UNL     1      -7.656  -2.544 123.626  0.00  0.00    +0.000 A 
ATOM     32  C   UNL     1      -6.819  -1.750 122.842  0.00  0.00    +0.000 A 
ATOM     33  C   UNL     1      -5.472  -2.069 122.762  0.00  0.00    +0.000 A 
ATOM     34  N   UNL     1      -4.904  -3.114 123.401  0.00  0.00    +0.000 NA
ATOM     35  C   UNL     1      -5.721  -3.872 124.159  0.00  0.00    +0.000 A 
ATOM     36  C   UNL     1      -7.078  -3.627 124.308  0.00  0.00    +0.000 A 
ENDBRANCH  29  31
ENDBRANCH  28  29
ENDBRANCH  22  28
ENDBRANCH   1  25
TORSDOF 6
ENDMDL
MODEL 3
REMARK VINA RESULT:     -10.0      1.816      2.244
REMARK  Name = CHEMBL322187
REMARK  8 active torsions:
REMARK  status: ('A' for Active; 'I' for Inactive)
REMARK    1  A    between atoms: C_1  and  O_2
REMARK    2  A    between atoms: O_2  and  C_3
REMARK    3  A    between atoms: C_5  and  O_6
REMARK    4  A    between atoms: O_6  and  C_7
REMARK    5  A    between atoms: C_7  and  C_8
REMARK    6  A    between atoms: C_7  and  C_9
REMARK    7  A    between atoms: C_17  and  C_18
REMARK    8  A    between atoms: C_23  and  N_24
REMARK                            x       y       z     vdW  Elec       q    Type
REMARK                         _______ _______ _______ _____ _____    ______ ____
ROOT
ATOM      1  C   UNL     1      -5.814   1.046 130.201  0.00  0.00    +0.000 C 
ATOM      2  O   UNL     1      -4.816   0.927 130.919  0.00  0.00    +0.000 OA
ATOM      3  N   UNL     1      -6.945   1.810 130.648  0.00  0.00    +0.000 N 
ATOM      4  C   UNL     1      -6.716   3.287 130.892  0.00  0.00    +0.000 C 
ATOM      5  C   UNL     1      -7.650   3.874 131.924  0.00  0.00    +0.000 C 
ATOM      6  C   UNL     1      -9.244   3.969 131.272  0.00  0.00    +0.000 C 
ATOM      7  C   UNL     1      -9.355   2.181 131.271  0.00  0.00    +0.000 C 
ATOM      8  C   UNL     1      -8.366   1.381 130.418  0.00  0.00    +0.000 C 
ENDROOT
BRANCH   6   9
ATOM      9  N   UNL     1      -9.591   5.621 130.512  0.00  0.00    +0.000 N 
ATOM     10  C   UNL     1     -10.503   5.789 131.578  0.00  0.00    +0.000 C 
ATOM     11  O   UNL     1     -10.197   5.773 132.836  0.00  0.00    +0.000 OA
ATOM     12  O   UNL     1     -11.785   5.688 131.294  0.00  0.00    +0.000 OA
ATOM     13  C   UNL     1     -12.000   7.023 131.018  0.00  0.00    +0.000 C 
ATOM     14  C   UNL     1     -11.762   6.862 129.581  0.00  0.00    +0.000 A 
ATOM     15  C   UNL     1     -12.646   6.706 128.501  0.00  0.00    +0.000 A 
ATOM     16  C   UNL     1     -12.500   7.434 127.321  0.00  0.00    +0.000 A 
ATOM     17  C   UNL     1     -11.563   8.405 127.435  0.00  0.00    +0.000 A 
ATOM     18  C   UNL     1     -10.486   8.058 128.476  0.00  0.00    +0.000 A 
ATOM     19  C   UNL     1     -10.473   6.666 129.269  0.00  0.00    +0.000 A 
ENDBRANCH   6   9
BRANCH   1  25
ATOM     20  C   UNL     1      -5.564   1.257 127.641  0.00  0.00    +0.000 A 
ATOM     21  C   UNL     1      -5.246   0.638 126.448  0.00  0.00    +0.000 A 
ATOM     22  C   UNL     1      -5.286  -0.713 126.196  0.00  0.00    +0.000 A 
ATOM     23  C   UNL     1      -5.324  -1.516 127.317  0.00  0.00    +0.000 A 
ATOM     24  C   UNL     1      -5.502  -0.921 128.600  0.00  0.00    +0.000 A 
ATOM     25  C   UNL     1      -5.691   0.494 128.788  0.00  0.00    +0.000 A 
BRANCH  20  27
ATOM     26  C   UNL     1      -7.087   2.928 127.077  0.00  0.00    +0.000 C 
ATOM     27  O   UNL     1      -5.756   2.584 127.355  0.00  0.00    +0.000 OA
ENDBRANCH  20  27
BRANCH  22  28
ATOM     28  O   UNL     1      -5.274  -1.278 124.953  0.00  0.00    +0.000 OA
BRANCH  28  29
ATOM     29  C   UNL     1      -5.829  -2.605 124.698  0.00  0.00    +0.000 C 
ATOM     30  C   UNL     1      -4.963  -3.542 123.864  0.00  0.00    +0.000 C 
BRANCH  29  31
ATOM     31  C   UNL     1      -7.236  -2.630 124.114  0.00  0.00    +0.000 A 
ATOM     32  C   UNL     1      -8.176  -3.602 124.459  0.00  0.00    +0.000 A 
ATOM     33  C   UNL     1      -9.468  -3.489 123.970  0.00  0.00    +0.000 A 
ATOM     34  N   UNL     1      -9.889  -2.488 123.168  0.00  0.00    +0.000 NA
ATOM     35  C   UNL     1      -8.974  -1.552 122.845  0.00  0.00    +0.000 A 
ATOM     36  C   UNL     1      -7.661  -1.573 123.292  0.00  0.00    +0.000 A 
ENDBRANCH  29  31
ENDBRANCH  28  29
ENDBRANCH  22  28
ENDBRANCH   1  25
TORSDOF 6
ENDMDL
MODEL 4
REMARK VINA RESULT:      -9.8      2.211      9.257
REMARK  Name = CHEMBL322187
REMARK  8 active torsions:
REMARK  status: ('A' for Active; 'I' for Inactive)
REMARK    1  A    between atoms: C_1  and  O_2
REMARK    2  A    between atoms: O_2  and  C_3
REMARK    3  A    between atoms: C_5  and  O_6
REMARK    4  A    between atoms: O_6  and  C_7
REMARK    5  A    between atoms: C_7  and  C_8
REMARK    6  A    between atoms: C_7  and  C_9
REMARK    7  A    between atoms: C_17  and  C_18
REMARK    8  A    between atoms: C_23  and  N_24
REMARK                            x       y       z     vdW  Elec       q    Type
REMARK                         _______ _______ _______ _____ _____    ______ ____
ROOT
ATOM      1  C   UNL     1      -6.303   4.058 129.284  0.00  0.00    +0.000 C 
ATOM      2  O   UNL     1      -5.452   3.768 130.130  0.00  0.00    +0.000 OA
ATOM      3  N   UNL     1      -6.084   3.754 127.898  0.00  0.00    +0.000 N 
ATOM      4  C   UNL     1      -5.953   2.289 127.534  0.00  0.00    +0.000 C 
ATOM      5  C   UNL     1      -5.115   2.052 126.300  0.00  0.00    +0.000 C 
ATOM      6  C   UNL     1      -5.976   2.585 124.905  0.00  0.00    +0.000 C 
ATOM      7  C   UNL     1      -5.822   4.284 125.451  0.00  0.00    +0.000 C 
ATOM      8  C   UNL     1      -6.457   4.690 126.785  0.00  0.00    +0.000 C 
ENDROOT
BRANCH   6   9
ATOM      9  N   UNL     1      -6.929   1.213 124.107  0.00  0.00    +0.000 N 
ATOM     10  C   UNL     1      -8.075   1.966 124.451  0.00  0.00    +0.000 C 
ATOM     11  O   UNL     1      -8.329   3.170 124.050  0.00  0.00    +0.000 OA
ATOM     12  O   UNL     1      -8.803   1.526 125.457  0.00  0.00    +0.000 OA
ATOM     13  C   UNL     1      -9.655   0.737 124.712  0.00  0.00    +0.000 C 
ATOM     14  C   UNL     1      -8.846  -0.471 124.890  0.00  0.00    +0.000 A 
ATOM     15  C   UNL     1      -8.959  -1.547 125.785  0.00  0.00    +0.000 A 
ATOM     16  C   UNL     1      -8.848  -2.871 125.360  0.00  0.00    +0.000 A 
ATOM     17  C   UNL     1      -8.824  -2.972 124.010  0.00  0.00    +0.000 A 
ATOM     18  C   UNL     1      -8.256  -1.709 123.341  0.00  0.00    +0.000 A 
ATOM     19  C   UNL     1      -7.707  -0.462 124.183  0.00  0.00    +0.000 A 
ENDBRANCH   6   9
BRANCH   1  25
ATOM     20  C   UNL     1      -8.816   3.871 129.840  0.00  0.00    +0.000 A 
ATOM     21  C   UNL     1      -9.893   4.373 130.545  0.00  0.00    +0.000 A 
ATOM     22  C   UNL     1     -10.018   5.650 131.038  0.00  0.00    +0.000 A 
ATOM     23  C   UNL     1      -8.840   6.364 131.119  0.00  0.00    +0.000 A 
ATOM     24  C   UNL     1      -7.654   5.828 130.538  0.00  0.00    +0.000 A 
ATOM     25  C   UNL     1      -7.628   4.580 129.820  0.00  0.00    +0.000 A 
BRANCH  20  27
ATOM     26  C   UNL     1      -8.730   1.543 129.775  0.00  0.00    +0.000 C 
ATOM     27  O   UNL     1      -9.250   2.725 129.226  0.00  0.00    +0.000 OA
ENDBRANCH  20  27
BRANCH  22  28
ATOM     28  O   UNL     1     -11.188   6.219 131.451  0.00  0.00    +0.000 OA
BRANCH  28  29
ATOM     29  C   UNL     1     -11.676   7.480 130.898  0.00  0.00    +0.000 C 
ATOM     30  C   UNL     1     -12.995   7.992 131.467  0.00  0.00    +0.000 C 
BRANCH  29  31
ATOM     31  C   UNL     1     -11.771   7.541 129.378  0.00  0.00    +0.000 A 
ATOM     32  C   UNL     1     -10.763   8.089 128.585  0.00  0.00    +0.000 A 
ATOM     33  C   UNL     1     -10.874   8.005 127.205  0.00  0.00    +0.000 A 
ATOM     34  N   UNL     1     -11.909   7.419 126.565  0.00  0.00    +0.000 NA
ATOM     35  C   UNL     1     -12.874   6.889 127.342  0.00  0.00    +0.000 A 
ATOM     36  C   UNL     1     -12.848   6.916 128.728  0.00  0.00    +0.000 A 
ENDBRANCH  29  31
ENDBRANCH  28  29
ENDBRANCH  22  28
ENDBRANCH   1  25
TORSDOF 6
ENDMDL
MODEL 5
REMARK VINA RESULT:      -9.8      2.273      9.245
REMARK  Name = CHEMBL322187
REMARK  8 active torsions:
REMARK  status: ('A' for Active; 'I' for Inactive)
REMARK    1  A    between atoms: C_1  and  O_2
REMARK    2  A    between atoms: O_2  and  C_3
REMARK    3  A    between atoms: C_5  and  O_6
REMARK    4  A    between atoms: O_6  and  C_7
REMARK    5  A    between atoms: C_7  and  C_8
REMARK    6  A    between atoms: C_7  and  C_9
REMARK    7  A    between atoms: C_17  and  C_18
REMARK    8  A    between atoms: C_23  and  N_24
REMARK                            x       y       z     vdW  Elec       q    Type
REMARK                         _______ _______ _______ _____ _____    ______ ____
ROOT
ATOM      1  C   UNL     1      -6.243   3.419 129.547  0.00  0.00    +0.000 C 
ATOM      2  O   UNL     1      -5.512   2.944 130.422  0.00  0.00    +0.000 OA
ATOM      3  N   UNL     1      -5.980   3.161 128.160  0.00  0.00    +0.000 N 
ATOM      4  C   UNL     1      -6.066   1.718 127.707  0.00  0.00    +0.000 C 
ATOM      5  C   UNL     1      -5.193   1.413 126.513  0.00  0.00    +0.000 C 
ATOM      6  C   UNL     1      -5.856   2.160 125.107  0.00  0.00    +0.000 C 
ATOM      7  C   UNL     1      -5.464   3.775 125.774  0.00  0.00    +0.000 C 
ATOM      8  C   UNL     1      -6.116   4.207 127.091  0.00  0.00    +0.000 C 
ENDROOT
BRANCH   6   9
ATOM      9  N   UNL     1      -6.962   1.014 124.164  0.00  0.00    +0.000 N 
ATOM     10  C   UNL     1      -8.019   1.795 124.683  0.00  0.00    +0.000 C 
ATOM     11  O   UNL     1      -8.180   3.064 124.485  0.00  0.00    +0.000 OA
ATOM     12  O   UNL     1      -8.740   1.264 125.649  0.00  0.00    +0.000 OA
ATOM     13  C   UNL     1      -9.691   0.675 124.842  0.00  0.00    +0.000 C 
ATOM     14  C   UNL     1      -8.987  -0.609 124.787  0.00  0.00    +0.000 A 
ATOM     15  C   UNL     1      -9.159  -1.799 125.513  0.00  0.00    +0.000 A 
ATOM     16  C   UNL     1      -9.187  -3.044 124.884  0.00  0.00    +0.000 A 
ATOM     17  C   UNL     1      -9.229  -2.933 123.535  0.00  0.00    +0.000 A 
ATOM     18  C   UNL     1      -8.579  -1.632 123.037  0.00  0.00    +0.000 A 
ATOM     19  C   UNL     1      -7.883  -0.583 124.026  0.00  0.00    +0.000 A 
ENDBRANCH   6   9
BRANCH   1  25
ATOM     20  C   UNL     1      -7.543   5.407 130.558  0.00  0.00    +0.000 A 
ATOM     21  C   UNL     1      -8.768   6.011 130.766  0.00  0.00    +0.000 A 
ATOM     22  C   UNL     1      -9.994   5.391 130.754  0.00  0.00    +0.000 A 
ATOM     23  C   UNL     1     -10.014   4.145 130.162  0.00  0.00    +0.000 A 
ATOM     24  C   UNL     1      -8.785   3.528 129.786  0.00  0.00    +0.000 A 
ATOM     25  C   UNL     1      -7.499   4.125 130.037  0.00  0.00    +0.000 A 
BRANCH  20  27
ATOM     26  C   UNL     1      -6.198   6.047 132.349  0.00  0.00    +0.000 C 
ATOM     27  O   UNL     1      -6.592   6.277 131.023  0.00  0.00    +0.000 OA
ENDBRANCH  20  27
BRANCH  22  28
ATOM     28  O   UNL     1     -11.146   5.923 131.258  0.00  0.00    +0.000 OA
BRANCH  28  29
ATOM     29  C   UNL     1     -11.669   7.210 130.807  0.00  0.00    +0.000 C 
ATOM     30  C   UNL     1     -12.991   7.648 131.429  0.00  0.00    +0.000 C 
BRANCH  29  31
ATOM     31  C   UNL     1     -11.787   7.381 129.297  0.00  0.00    +0.000 A 
ATOM     32  C   UNL     1     -10.797   7.997 128.532  0.00  0.00    +0.000 A 
ATOM     33  C   UNL     1     -10.928   8.012 127.151  0.00  0.00    +0.000 A 
ATOM     34  N   UNL     1     -11.966   7.464 126.485  0.00  0.00    +0.000 NA
ATOM     35  C   UNL     1     -12.914   6.868 127.234  0.00  0.00    +0.000 A 
ATOM     36  C   UNL     1     -12.867   6.793 128.618  0.00  0.00    +0.000 A 
ENDBRANCH  29  31
ENDBRANCH  28  29
ENDBRANCH  22  28
ENDBRANCH   1  25
TORSDOF 6
ENDMDL
MODEL 6
REMARK VINA RESULT:      -9.8      1.940      2.678
REMARK  Name = CHEMBL322187
REMARK  8 active torsions:
REMARK  status: ('A' for Active; 'I' for Inactive)
REMARK    1  A    between atoms: C_1  and  O_2
REMARK    2  A    between atoms: O_2  and  C_3
REMARK    3  A    between atoms: C_5  and  O_6
REMARK    4  A    between atoms: O_6  and  C_7
REMARK    5  A    between atoms: C_7  and  C_8
REMARK    6  A    between atoms: C_7  and  C_9
REMARK    7  A    between atoms: C_17  and  C_18
REMARK    8  A    between atoms: C_23  and  N_24
REMARK                            x       y       z     vdW  Elec       q    Type
REMARK                         _______ _______ _______ _____ _____    ______ ____
ROOT
ATOM      1  C   UNL     1      -5.778   1.101 130.439  0.00  0.00    +0.000 C 
ATOM      2  O   UNL     1      -4.776   1.034 131.159  0.00  0.00    +0.000 OA
ATOM      3  N   UNL     1      -6.909   1.890 130.838  0.00  0.00    +0.000 N 
ATOM      4  C   UNL     1      -6.684   3.381 130.982  0.00  0.00    +0.000 C 
ATOM      5  C   UNL     1      -7.616   4.033 131.975  0.00  0.00    +0.000 C 
ATOM      6  C   UNL     1      -9.213   4.079 131.326  0.00  0.00    +0.000 C 
ATOM      7  C   UNL     1      -9.318   2.294 131.445  0.00  0.00    +0.000 C 
ATOM      8  C   UNL     1      -8.329   1.443 130.643  0.00  0.00    +0.000 C 
ENDROOT
BRANCH   6   9
ATOM      9  N   UNL     1      -9.568   5.675 130.457  0.00  0.00    +0.000 N 
ATOM     10  C   UNL     1     -10.417   5.947 131.554  0.00  0.00    +0.000 C 
ATOM     11  O   UNL     1     -10.043   6.021 132.791  0.00  0.00    +0.000 OA
ATOM     12  O   UNL     1     -11.715   5.855 131.347  0.00  0.00    +0.000 OA
ATOM     13  C   UNL     1     -11.917   7.170 130.979  0.00  0.00    +0.000 C 
ATOM     14  C   UNL     1     -11.763   6.893 129.548  0.00  0.00    +0.000 A 
ATOM     15  C   UNL     1     -12.707   6.674 128.533  0.00  0.00    +0.000 A 
ATOM     16  C   UNL     1     -12.611   7.305 127.293  0.00  0.00    +0.000 A 
ATOM     17  C   UNL     1     -11.651   8.259 127.280  0.00  0.00    +0.000 A 
ATOM     18  C   UNL     1     -10.526   7.968 128.287  0.00  0.00    +0.000 A 
ATOM     19  C   UNL     1     -10.497   6.642 129.185  0.00  0.00    +0.000 A 
ENDBRANCH   6   9
BRANCH   1  25
ATOM     20  C   UNL     1      -5.926  -0.872 128.782  0.00  0.00    +0.000 A 
ATOM     21  C   UNL     1      -5.988  -1.284 127.465  0.00  0.00    +0.000 A 
ATOM     22  C   UNL     1      -5.558  -0.573 126.370  0.00  0.00    +0.000 A 
ATOM     23  C   UNL     1      -5.364   0.775 126.586  0.00  0.00    +0.000 A 
ATOM     24  C   UNL     1      -5.435   1.290 127.913  0.00  0.00    +0.000 A 
ATOM     25  C   UNL     1      -5.658   0.456 129.066  0.00  0.00    +0.000 A 
BRANCH  20  27
ATOM     26  C   UNL     1      -5.216  -3.043 129.243  0.00  0.00    +0.000 C 
ATOM     27  O   UNL     1      -6.094  -1.993 129.552  0.00  0.00    +0.000 OA
ENDBRANCH  20  27
BRANCH  22  28
ATOM     28  O   UNL     1      -5.339  -1.102 125.130  0.00  0.00    +0.000 OA
BRANCH  28  29
ATOM     29  C   UNL     1      -5.784  -2.446 124.770  0.00  0.00    +0.000 C 
ATOM     30  C   UNL     1      -4.843  -3.242 123.872  0.00  0.00    +0.000 C 
BRANCH  29  31
ATOM     31  C   UNL     1      -7.184  -2.539 124.174  0.00  0.00    +0.000 A 
ATOM     32  C   UNL     1      -8.094  -3.529 124.547  0.00  0.00    +0.000 A 
ATOM     33  C   UNL     1      -9.385  -3.478 124.043  0.00  0.00    +0.000 A 
ATOM     34  N   UNL     1      -9.830  -2.521 123.201  0.00  0.00    +0.000 NA
ATOM     35  C   UNL     1      -8.944  -1.568 122.851  0.00  0.00    +0.000 A 
ATOM     36  C   UNL     1      -7.636  -1.528 123.310  0.00  0.00    +0.000 A 
ENDBRANCH  29  31
ENDBRANCH  28  29
ENDBRANCH  22  28
ENDBRANCH   1  25
TORSDOF 6
ENDMDL
MODEL 7
REMARK VINA RESULT:      -9.6      1.402      2.167
REMARK  Name = CHEMBL322187
REMARK  8 active torsions:
REMARK  status: ('A' for Active; 'I' for Inactive)
REMARK    1  A    between atoms: C_1  and  O_2
REMARK    2  A    between atoms: O_2  and  C_3
REMARK    3  A    between atoms: C_5  and  O_6
REMARK    4  A    between atoms: O_6  and  C_7
REMARK    5  A    between atoms: C_7  and  C_8
REMARK    6  A    between atoms: C_7  and  C_9
REMARK    7  A    between atoms: C_17  and  C_18
REMARK    8  A    between atoms: C_23  and  N_24
REMARK                            x       y       z     vdW  Elec       q    Type
REMARK                         _______ _______ _______ _____ _____    ______ ____
ROOT
ATOM      1  C   UNL     1      -6.878   0.335 131.208  0.00  0.00    +0.000 C 
ATOM      2  O   UNL     1      -5.765   0.204 131.728  0.00  0.00    +0.000 OA
ATOM      3  N   UNL     1      -7.729   1.430 131.577  0.00  0.00    +0.000 N 
ATOM      4  C   UNL     1      -7.218   2.823 131.273  0.00  0.00    +0.000 C 
ATOM      5  C   UNL     1      -7.765   3.877 132.206  0.00  0.00    +0.000 C 
ATOM      6  C   UNL     1      -9.435   4.140 131.865  0.00  0.00    +0.000 C 
ATOM      7  C   UNL     1      -9.823   2.501 132.475  0.00  0.00    +0.000 C 
ATOM      8  C   UNL     1      -9.212   1.287 131.767  0.00  0.00    +0.000 C 
ENDROOT
BRANCH   6   9
ATOM      9  N   UNL     1      -9.695   5.538 130.680  0.00  0.00    +0.000 N 
ATOM     10  C   UNL     1     -10.388   6.157 131.744  0.00  0.00    +0.000 C 
ATOM     11  O   UNL     1      -9.881   6.451 132.899  0.00  0.00    +0.000 OA
ATOM     12  O   UNL     1     -11.702   6.198 131.662  0.00  0.00    +0.000 OA
ATOM     13  C   UNL     1     -11.791   7.414 131.016  0.00  0.00    +0.000 C 
ATOM     14  C   UNL     1     -11.818   6.809 129.681  0.00  0.00    +0.000 A 
ATOM     15  C   UNL     1     -12.882   6.501 128.818  0.00  0.00    +0.000 A 
ATOM     16  C   UNL     1     -12.844   6.824 127.461  0.00  0.00    +0.000 A 
ATOM     17  C   UNL     1     -11.788   7.614 127.155  0.00  0.00    +0.000 A 
ATOM     18  C   UNL     1     -10.605   7.403 128.115  0.00  0.00    +0.000 A 
ATOM     19  C   UNL     1     -10.634   6.316 129.291  0.00  0.00    +0.000 A 
ENDBRANCH   6   9
BRANCH   1  25
ATOM     20  C   UNL     1      -7.379  -1.979 130.180  0.00  0.00    +0.000 A 
ATOM     21  C   UNL     1      -7.871  -2.693 129.104  0.00  0.00    +0.000 A 
ATOM     22  C   UNL     1      -7.970  -2.246 127.808  0.00  0.00    +0.000 A 
ATOM     23  C   UNL     1      -7.881  -0.878 127.652  0.00  0.00    +0.000 A 
ATOM     24  C   UNL     1      -7.520  -0.068 128.767  0.00  0.00    +0.000 A 
ATOM     25  C   UNL     1      -7.195  -0.613 130.060  0.00  0.00    +0.000 A 
BRANCH  20  27
ATOM     26  C   UNL     1      -6.181  -3.879 130.800  0.00  0.00    +0.000 C 
ATOM     27  O   UNL     1      -7.108  -2.892 131.166  0.00  0.00    +0.000 OA
ENDBRANCH  20  27
BRANCH  22  28
ATOM     28  O   UNL     1      -8.160  -3.045 126.717  0.00  0.00    +0.000 OA
BRANCH  28  29
ATOM     29  C   UNL     1      -8.379  -2.495 125.381  0.00  0.00    +0.000 C 
ATOM     30  C   UNL     1      -9.534  -3.102 124.592  0.00  0.00    +0.000 C 
BRANCH  29  31
ATOM     31  C   UNL     1      -7.157  -2.469 124.471  0.00  0.00    +0.000 A 
ATOM     32  C   UNL     1      -5.970  -3.129 124.789  0.00  0.00    +0.000 A 
ATOM     33  C   UNL     1      -4.944  -3.150 123.857  0.00  0.00    +0.000 A 
ATOM     34  N   UNL     1      -5.014  -2.565 122.642  0.00  0.00    +0.000 NA
ATOM     35  C   UNL     1      -6.167  -1.934 122.344  0.00  0.00    +0.000 A 
ATOM     36  C   UNL     1      -7.251  -1.866 123.205  0.00  0.00    +0.000 A 
ENDBRANCH  29  31
ENDBRANCH  28  29
ENDBRANCH  22  28
ENDBRANCH   1  25
TORSDOF 6
ENDMDL
MODEL 8
REMARK VINA RESULT:      -9.4      3.928      5.282
REMARK  Name = CHEMBL322187
REMARK  8 active torsions:
REMARK  status: ('A' for Active; 'I' for Inactive)
REMARK    1  A    between atoms: C_1  and  O_2
REMARK    2  A    between atoms: O_2  and  C_3
REMARK    3  A    between atoms: C_5  and  O_6
REMARK    4  A    between atoms: O_6  and  C_7
REMARK    5  A    between atoms: C_7  and  C_8
REMARK    6  A    between atoms: C_7  and  C_9
REMARK    7  A    between atoms: C_17  and  C_18
REMARK    8  A    between atoms: C_23  and  N_24
REMARK                            x       y       z     vdW  Elec       q    Type
REMARK                         _______ _______ _______ _____ _____    ______ ____
ROOT
ATOM      1  C   UNL     1      -4.410   5.263 128.867  0.00  0.00    +0.000 C 
ATOM      2  O   UNL     1      -3.503   6.094 128.980  0.00  0.00    +0.000 OA
ATOM      3  N   UNL     1      -5.247   4.943 129.989  0.00  0.00    +0.000 N 
ATOM      4  C   UNL     1      -6.095   6.067 130.549  0.00  0.00    +0.000 C 
ATOM      5  C   UNL     1      -6.413   5.901 132.016  0.00  0.00    +0.000 C 
ATOM      6  C   UNL     1      -7.537   4.609 132.220  0.00  0.00    +0.000 C 
ATOM      7  C   UNL     1      -6.285   3.433 131.714  0.00  0.00    +0.000 C 
ATOM      8  C   UNL     1      -5.694   3.545 130.305  0.00  0.00    +0.000 C 
ENDROOT
BRANCH   6   9
ATOM      9  N   UNL     1      -9.289   5.207 132.255  0.00  0.00    +0.000 N 
ATOM     10  C   UNL     1      -9.588   4.009 131.567  0.00  0.00    +0.000 C 
ATOM     11  O   UNL     1      -9.364   2.814 132.011  0.00  0.00    +0.000 OA
ATOM     12  O   UNL     1      -9.862   4.107 130.281  0.00  0.00    +0.000 OA
ATOM     13  C   UNL     1     -11.226   4.265 130.414  0.00  0.00    +0.000 C 
ATOM     14  C   UNL     1     -11.152   5.728 130.416  0.00  0.00    +0.000 A 
ATOM     15  C   UNL     1     -11.345   6.673 129.395  0.00  0.00    +0.000 A 
ATOM     16  C   UNL     1     -12.123   7.816 129.590  0.00  0.00    +0.000 A 
ATOM     17  C   UNL     1     -12.792   7.781 130.767  0.00  0.00    +0.000 A 
ATOM     18  C   UNL     1     -12.068   6.934 131.825  0.00  0.00    +0.000 A 
ATOM     19  C   UNL     1     -10.651   6.239 131.550  0.00  0.00    +0.000 A 
ENDBRANCH   6   9
BRANCH   1  25
ATOM     20  C   UNL     1      -4.108   3.626 126.895  0.00  0.00    +0.000 A 
ATOM     21  C   UNL     1      -4.594   3.151 125.693  0.00  0.00    +0.000 A 
ATOM     22  C   UNL     1      -5.433   3.819 124.833  0.00  0.00    +0.000 A 
ATOM     23  C   UNL     1      -6.092   4.900 125.380  0.00  0.00    +0.000 A 
ATOM     24  C   UNL     1      -5.737   5.350 126.685  0.00  0.00    +0.000 A 
ATOM     25  C   UNL     1      -4.679   4.754 127.459  0.00  0.00    +0.000 A 
BRANCH  20  27
ATOM     26  C   UNL     1      -1.851   3.152 126.564  0.00  0.00    +0.000 C 
ATOM     27  O   UNL     1      -3.044   2.831 127.230  0.00  0.00    +0.000 OA
ENDBRANCH  20  27
BRANCH  22  28
ATOM     28  O   UNL     1      -5.653   3.476 123.529  0.00  0.00    +0.000 OA
BRANCH  28  29
ATOM     29  C   UNL     1      -6.943   2.971 123.066  0.00  0.00    +0.000 C 
ATOM     30  C   UNL     1      -7.143   1.463 123.167  0.00  0.00    +0.000 C 
BRANCH  29  31
ATOM     31  C   UNL     1      -7.355   3.401 121.664  0.00  0.00    +0.000 A 
ATOM     32  C   UNL     1      -8.687   3.441 121.252  0.00  0.00    +0.000 A 
ATOM     33  C   UNL     1      -8.987   3.951 119.998  0.00  0.00    +0.000 A 
ATOM     34  N   UNL     1      -8.063   4.421 119.132  0.00  0.00    +0.000 NA
ATOM     35  C   UNL     1      -6.780   4.382 119.543  0.00  0.00    +0.000 A 
ATOM     36  C   UNL     1      -6.382   3.899 120.780  0.00  0.00    +0.000 A 
ENDBRANCH  29  31
ENDBRANCH  28  29
ENDBRANCH  22  28
ENDBRANCH   1  25
TORSDOF 6
ENDMDL
MODEL 9
REMARK VINA RESULT:      -9.4      2.538      9.165
REMARK  Name = CHEMBL322187
REMARK  8 active torsions:
REMARK  status: ('A' for Active; 'I' for Inactive)
REMARK    1  A    between atoms: C_1  and  O_2
REMARK    2  A    between atoms: O_2  and  C_3
REMARK    3  A    between atoms: C_5  and  O_6
REMARK    4  A    between atoms: O_6  and  C_7
REMARK    5  A    between atoms: C_7  and  C_8
REMARK    6  A    between atoms: C_7  and  C_9
REMARK    7  A    between atoms: C_17  and  C_18
REMARK    8  A    between atoms: C_23  and  N_24
REMARK                            x       y       z     vdW  Elec       q    Type
REMARK                         _______ _______ _______ _____ _____    ______ ____
ROOT
ATOM      1  C   UNL     1      -6.103   4.136 131.258  0.00  0.00    +0.000 C 
ATOM      2  O   UNL     1      -5.650   3.848 132.370  0.00  0.00    +0.000 OA
ATOM      3  N   UNL     1      -5.339   3.872 130.071  0.00  0.00    +0.000 N 
ATOM      4  C   UNL     1      -5.024   2.421 129.772  0.00  0.00    +0.000 C 
ATOM      5  C   UNL     1      -3.756   2.237 128.973  0.00  0.00    +0.000 C 
ATOM      6  C   UNL     1      -4.007   2.781 127.356  0.00  0.00    +0.000 C 
ATOM      7  C   UNL     1      -4.142   4.469 127.939  0.00  0.00    +0.000 C 
ATOM      8  C   UNL     1      -5.270   4.825 128.912  0.00  0.00    +0.000 C 
ENDROOT
BRANCH   6   9
ATOM      9  N   UNL     1      -4.516   1.403 126.228  0.00  0.00    +0.000 N 
ATOM     10  C   UNL     1      -5.476   2.316 125.737  0.00  0.00    +0.000 C 
ATOM     11  O   UNL     1      -5.213   3.460 125.189  0.00  0.00    +0.000 OA
ATOM     12  O   UNL     1      -6.729   2.123 126.099  0.00  0.00    +0.000 OA
ATOM     13  C   UNL     1      -7.085   1.316 125.038  0.00  0.00    +0.000 C 
ATOM     14  C   UNL     1      -6.782   0.076 125.756  0.00  0.00    +0.000 A 
ATOM     15  C   UNL     1      -7.605  -0.823 126.454  0.00  0.00    +0.000 A 
ATOM     16  C   UNL     1      -7.503  -2.203 126.274  0.00  0.00    +0.000 A 
ATOM     17  C   UNL     1      -6.688  -2.523 125.242  0.00  0.00    +0.000 A 
ATOM     18  C   UNL     1      -5.615  -1.451 124.991  0.00  0.00    +0.000 A 
ATOM     19  C   UNL     1      -5.469  -0.148 125.911  0.00  0.00    +0.000 A 
ENDBRANCH   6   9
BRANCH   1  25
ATOM     20  C   UNL     1      -8.652   3.794 131.036  0.00  0.00    +0.000 A 
ATOM     21  C   UNL     1      -9.917   4.308 131.242  0.00  0.00    +0.000 A 
ATOM     22  C   UNL     1     -10.244   5.637 131.374  0.00  0.00    +0.000 A 
ATOM     23  C   UNL     1      -9.184   6.475 131.654  0.00  0.00    +0.000 A 
ATOM     24  C   UNL     1      -7.855   5.965 131.603  0.00  0.00    +0.000 A 
ATOM     25  C   UNL     1      -7.549   4.609 131.226  0.00  0.00    +0.000 A 
BRANCH  20  27
ATOM     26  C   UNL     1      -8.687   2.357 129.202  0.00  0.00    +0.000 C 
ATOM     27  O   UNL     1      -8.818   2.509 130.591  0.00  0.00    +0.000 OA
ENDBRANCH  20  27
BRANCH  22  28
ATOM     28  O   UNL     1     -11.506   6.147 131.266  0.00  0.00    +0.000 OA
BRANCH  28  29
ATOM     29  C   UNL     1     -11.789   7.362 130.506  0.00  0.00    +0.000 C 
ATOM     30  C   UNL     1     -13.048   8.123 130.910  0.00  0.00    +0.000 C 
BRANCH  29  31
ATOM     31  C   UNL     1     -11.809   7.202 128.991  0.00  0.00    +0.000 A 
ATOM     32  C   UNL     1     -12.973   6.902 128.283  0.00  0.00    +0.000 A 
ATOM     33  C   UNL     1     -12.930   6.884 126.897  0.00  0.00    +0.000 A 
ATOM     34  N   UNL     1     -11.821   7.141 126.172  0.00  0.00    +0.000 NA
ATOM     35  C   UNL     1     -10.703   7.435 126.866  0.00  0.00    +0.000 A 
ATOM     36  C   UNL     1     -10.649   7.486 128.251  0.00  0.00    +0.000 A 
ENDBRANCH  29  31
ENDBRANCH  28  29
ENDBRANCH  22  28
ENDBRANCH   1  25
TORSDOF 6
ENDMDL
