MODEL 1
REMARK VINA RESULT:      -8.2      0.000      0.000
REMARK  Name = CHEMBL104530
REMARK  7 active torsions:
REMARK  status: ('A' for Active; 'I' for Inactive)
REMARK    1  A    between atoms: C_1  and  C_2
REMARK    2  A    between atoms: C_2  and  O_3
REMARK    3  A    between atoms: O_3  and  C_4
REMARK    4  A    between atoms: C_7  and  C_8
REMARK    5  A    between atoms: C_13  and  N_14
REMARK    6  A    between atoms: C_27  and  O_28
REMARK    7  A    between atoms: O_28  and  C_29
REMARK                            x       y       z     vdW  Elec       q    Type
REMARK                         _______ _______ _______ _____ _____    ______ ____
ROOT
ATOM      1  C   UNL     1      -8.353   5.688 130.292  0.00  0.00    +0.000 C 
ATOM      2  O   UNL     1      -7.823   6.097 131.333  0.00  0.00    +0.000 OA
ATOM      3  N   UNL     1      -7.757   4.593 129.547  0.00  0.00    +0.000 N 
ATOM      4  C   UNL     1      -7.552   3.271 130.158  0.00  0.00    +0.000 C 
ATOM      5  C   UNL     1      -6.202   2.606 129.736  0.00  0.00    +0.000 C 
ATOM      6  C   UNL     1      -6.047   2.213 127.953  0.00  0.00    +0.000 C 
ATOM      7  C   UNL     1      -6.209   3.938 127.596  0.00  0.00    +0.000 C 
ATOM      8  C   UNL     1      -7.549   4.569 128.090  0.00  0.00    +0.000 C 
ENDROOT
BRANCH   6   9
ATOM      9  N   UNL     1      -6.037   0.532 127.097  0.00  0.00    +0.000 N 
ATOM     10  C   UNL     1      -7.321   0.943 126.701  0.00  0.00    +0.000 C 
ATOM     11  O   UNL     1      -8.313   1.263 127.423  0.00  0.00    +0.000 OA
ATOM     12  O   UNL     1      -7.364   1.279 125.431  0.00  0.00    +0.000 OA
ATOM     13  C   UNL     1      -7.861   0.084 124.982  0.00  0.00    +0.000 C 
ATOM     14  C   UNL     1      -6.550  -0.387 124.510  0.00  0.00    +0.000 A 
ATOM     15  C   UNL     1      -6.719  -0.900 123.072  0.00  0.00    +0.000 A 
ATOM     16  C   UNL     1      -6.277  -2.070 122.526  0.00  0.00    +0.000 A 
ATOM     17  C   UNL     1      -5.649  -2.767 123.524  0.00  0.00    +0.000 A 
ATOM     18  C   UNL     1      -5.419  -2.127 125.068  0.00  0.00    +0.000 A 
ATOM     19  C   UNL     1      -5.738  -0.626 125.637  0.00  0.00    +0.000 A 
ENDBRANCH   6   9
BRANCH   1  23
ATOM     20  C   UNL     1     -12.178   7.760 129.535  0.00  0.00    +0.000 A 
ATOM     21  C   UNL     1     -10.982   8.294 129.070  0.00  0.00    +0.000 A 
ATOM     22  C   UNL     1      -9.768   7.572 129.219  0.00  0.00    +0.000 A 
ATOM     23  C   UNL     1      -9.710   6.338 129.931  0.00  0.00    +0.000 A 
ATOM     24  C   UNL     1     -10.934   5.850 130.396  0.00  0.00    +0.000 A 
ATOM     25  C   UNL     1     -12.138   6.540 130.185  0.00  0.00    +0.000 A 
BRANCH  24  26
ATOM     26  O   UNL     1     -10.921   4.686 131.080  0.00  0.00    +0.000 OA
ATOM     27  C   UNL     1     -11.190   3.466 130.428  0.00  0.00    +0.000 C 
ENDBRANCH  24  26
BRANCH  20  28
ATOM     28  O   UNL     1     -13.348   8.406 129.234  0.00  0.00    +0.000 OA
BRANCH  28  30
ATOM     29  C   UNL     1     -13.486  10.675 130.015  0.00  0.00    +0.000 C 
ATOM     30  C   UNL     1     -13.221   9.775 128.821  0.00  0.00    +0.000 C 
ENDBRANCH  28  30
ENDBRANCH  20  28
ENDBRANCH   1  23
TORSDOF 5
ENDMDL
MODEL 2
REMARK VINA RESULT:      -8.1      4.574      9.004
REMARK  Name = CHEMBL104530
REMARK  7 active torsions:
REMARK  status: ('A' for Active; 'I' for Inactive)
REMARK    1  A    between atoms: C_1  and  C_2
REMARK    2  A    between atoms: C_2  and  O_3
REMARK    3  A    between atoms: O_3  and  C_4
REMARK    4  A    between atoms: C_7  and  C_8
REMARK    5  A    between atoms: C_13  and  N_14
REMARK    6  A    between atoms: C_27  and  O_28
REMARK    7  A    between atoms: O_28  and  C_29
REMARK                            x       y       z     vdW  Elec       q    Type
REMARK                         _______ _______ _______ _____ _____    ______ ____
ROOT
ATOM      1  C   UNL     1      -6.885   1.599 124.204  0.00  0.00    +0.000 C 
ATOM      2  O   UNL     1      -6.897   0.361 124.182  0.00  0.00    +0.000 OA
ATOM      3  N   UNL     1      -6.507   2.307 125.414  0.00  0.00    +0.000 N 
ATOM      4  C   UNL     1      -5.187   2.119 126.033  0.00  0.00    +0.000 C 
ATOM      5  C   UNL     1      -5.243   2.088 127.595  0.00  0.00    +0.000 C 
ATOM      6  C   UNL     1      -5.800   3.643 128.388  0.00  0.00    +0.000 C 
ATOM      7  C   UNL     1      -7.350   3.472 127.550  0.00  0.00    +0.000 C 
ATOM      8  C   UNL     1      -7.234   3.448 125.993  0.00  0.00    +0.000 C 
ENDROOT
BRANCH   6   9
ATOM      9  N   UNL     1      -4.811   4.887 129.404  0.00  0.00    +0.000 N 
ATOM     10  C   UNL     1      -5.278   4.097 130.467  0.00  0.00    +0.000 C 
ATOM     11  O   UNL     1      -6.474   3.837 130.801  0.00  0.00    +0.000 OA
ATOM     12  O   UNL     1      -4.331   3.344 130.980  0.00  0.00    +0.000 OA
ATOM     13  C   UNL     1      -4.039   4.174 132.029  0.00  0.00    +0.000 C 
ATOM     14  C   UNL     1      -2.842   4.726 131.378  0.00  0.00    +0.000 A 
ATOM     15  C   UNL     1      -1.682   4.664 132.383  0.00  0.00    +0.000 A 
ATOM     16  C   UNL     1      -0.790   5.642 132.719  0.00  0.00    +0.000 A 
ATOM     17  C   UNL     1      -1.128   6.758 132.001  0.00  0.00    +0.000 A 
ATOM     18  C   UNL     1      -2.362   6.754 130.849  0.00  0.00    +0.000 A 
ATOM     19  C   UNL     1      -3.260   5.508 130.282  0.00  0.00    +0.000 A 
ENDBRANCH   6   9
BRANCH   1  23
ATOM     20  C   UNL     1      -7.677   3.893 120.515  0.00  0.00    +0.000 A 
ATOM     21  C   UNL     1      -6.374   3.597 120.896  0.00  0.00    +0.000 A 
ATOM     22  C   UNL     1      -6.126   2.767 122.022  0.00  0.00    +0.000 A 
ATOM     23  C   UNL     1      -7.182   2.295 122.854  0.00  0.00    +0.000 A 
ATOM     24  C   UNL     1      -8.474   2.634 122.443  0.00  0.00    +0.000 A 
ATOM     25  C   UNL     1      -8.710   3.399 121.291  0.00  0.00    +0.000 A 
BRANCH  24  26
ATOM     26  O   UNL     1      -9.502   2.210 123.208  0.00  0.00    +0.000 OA
ATOM     27  C   UNL     1     -10.202   1.030 122.883  0.00  0.00    +0.000 C 
ENDBRANCH  24  26
BRANCH  20  28
ATOM     28  O   UNL     1      -7.883   4.561 119.337  0.00  0.00    +0.000 OA
BRANCH  28  30
ATOM     29  C   UNL     1      -6.097   5.878 118.414  0.00  0.00    +0.000 C 
ATOM     30  C   UNL     1      -6.796   4.530 118.400  0.00  0.00    +0.000 C 
ENDBRANCH  28  30
ENDBRANCH  20  28
ENDBRANCH   1  23
TORSDOF 5
ENDMDL
MODEL 3
REMARK VINA RESULT:      -8.1      5.909      8.871
REMARK  Name = CHEMBL104530
REMARK  7 active torsions:
REMARK  status: ('A' for Active; 'I' for Inactive)
REMARK    1  A    between atoms: C_1  and  C_2
REMARK    2  A    between atoms: C_2  and  O_3
REMARK    3  A    between atoms: O_3  and  C_4
REMARK    4  A    between atoms: C_7  and  C_8
REMARK    5  A    between atoms: C_13  and  N_14
REMARK    6  A    between atoms: C_27  and  O_28
REMARK    7  A    between atoms: O_28  and  C_29
REMARK                            x       y       z     vdW  Elec       q    Type
REMARK                         _______ _______ _______ _____ _____    ______ ____
ROOT
ATOM      1  C   UNL     1      -8.782  -0.686 125.931  0.00  0.00    +0.000 C 
ATOM      2  O   UNL     1      -9.889  -0.961 125.450  0.00  0.00    +0.000 OA
ATOM      3  N   UNL     1      -8.273  -1.428 127.071  0.00  0.00    +0.000 N 
ATOM      4  C   UNL     1      -8.068  -2.883 127.010  0.00  0.00    +0.000 C 
ATOM      5  C   UNL     1      -8.466  -3.612 128.334  0.00  0.00    +0.000 C 
ATOM      6  C   UNL     1      -7.469  -3.164 129.803  0.00  0.00    +0.000 C 
ATOM      7  C   UNL     1      -8.034  -1.496 129.634  0.00  0.00    +0.000 C 
ATOM      8  C   UNL     1      -7.663  -0.832 128.270  0.00  0.00    +0.000 C 
ENDROOT
BRANCH   6   9
ATOM      9  N   UNL     1      -6.200  -4.195 130.745  0.00  0.00    +0.000 N 
ATOM     10  C   UNL     1      -5.309  -3.282 130.157  0.00  0.00    +0.000 C 
ATOM     11  O   UNL     1      -5.117  -3.036 128.927  0.00  0.00    +0.000 OA
ATOM     12  O   UNL     1      -4.840  -2.415 131.027  0.00  0.00    +0.000 OA
ATOM     13  C   UNL     1      -3.657  -3.066 131.256  0.00  0.00    +0.000 C 
ATOM     14  C   UNL     1      -4.118  -3.647 132.526  0.00  0.00    +0.000 A 
ATOM     15  C   UNL     1      -3.043  -3.381 133.589  0.00  0.00    +0.000 A 
ATOM     16  C   UNL     1      -2.492  -4.253 134.484  0.00  0.00    +0.000 A 
ATOM     17  C   UNL     1      -3.060  -5.477 134.252  0.00  0.00    +0.000 A 
ATOM     18  C   UNL     1      -4.295  -5.704 133.125  0.00  0.00    +0.000 A 
ATOM     19  C   UNL     1      -5.114  -4.601 132.235  0.00  0.00    +0.000 A 
ENDBRANCH   6   9
BRANCH   1  23
ATOM     20  C   UNL     1      -6.778   2.525 123.657  0.00  0.00    +0.000 A 
ATOM     21  C   UNL     1      -7.284   2.771 124.929  0.00  0.00    +0.000 A 
ATOM     22  C   UNL     1      -7.829   1.710 125.701  0.00  0.00    +0.000 A 
ATOM     23  C   UNL     1      -7.973   0.394 125.174  0.00  0.00    +0.000 A 
ATOM     24  C   UNL     1      -7.468   0.200 123.885  0.00  0.00    +0.000 A 
ATOM     25  C   UNL     1      -6.870   1.239 123.157  0.00  0.00    +0.000 A 
BRANCH  24  26
ATOM     26  O   UNL     1      -7.589  -1.033 123.348  0.00  0.00    +0.000 OA
ATOM     27  C   UNL     1      -6.447  -1.800 123.041  0.00  0.00    +0.000 C 
ENDBRANCH  24  26
BRANCH  20  28
ATOM     28  O   UNL     1      -6.118   3.534 123.007  0.00  0.00    +0.000 OA
BRANCH  28  30
ATOM     29  C   UNL     1      -5.121   3.783 120.834  0.00  0.00    +0.000 C 
ATOM     30  C   UNL     1      -6.421   3.685 121.612  0.00  0.00    +0.000 C 
ENDBRANCH  28  30
ENDBRANCH  20  28
ENDBRANCH   1  23
TORSDOF 5
ENDMDL
MODEL 4
REMARK VINA RESULT:      -8.0      4.293      5.386
REMARK  Name = CHEMBL104530
REMARK  7 active torsions:
REMARK  status: ('A' for Active; 'I' for Inactive)
REMARK    1  A    between atoms: C_1  and  C_2
REMARK    2  A    between atoms: C_2  and  O_3
REMARK    3  A    between atoms: O_3  and  C_4
REMARK    4  A    between atoms: C_7  and  C_8
REMARK    5  A    between atoms: C_13  and  N_14
REMARK    6  A    between atoms: C_27  and  O_28
REMARK    7  A    between atoms: O_28  and  C_29
REMARK                            x       y       z     vdW  Elec       q    Type
REMARK                         _______ _______ _______ _____ _____    ______ ____
ROOT
ATOM      1  C   UNL     1      -8.318   5.038 129.978  0.00  0.00    +0.000 C 
ATOM      2  O   UNL     1      -7.292   5.695 129.763  0.00  0.00    +0.000 OA
ATOM      3  N   UNL     1      -8.232   3.621 130.282  0.00  0.00    +0.000 N 
ATOM      4  C   UNL     1      -7.476   3.130 131.444  0.00  0.00    +0.000 C 
ATOM      5  C   UNL     1      -6.689   1.812 131.150  0.00  0.00    +0.000 C 
ATOM      6  C   UNL     1      -7.727   0.356 130.747  0.00  0.00    +0.000 C 
ATOM      7  C   UNL     1      -8.339   1.228 129.335  0.00  0.00    +0.000 C 
ATOM      8  C   UNL     1      -9.064   2.568 129.677  0.00  0.00    +0.000 C 
ENDROOT
BRANCH   6   9
ATOM      9  N   UNL     1      -8.051  -1.198 131.766  0.00  0.00    +0.000 N 
ATOM     10  C   UNL     1      -7.405  -1.810 130.680  0.00  0.00    +0.000 C 
ATOM     11  O   UNL     1      -7.724  -1.798 129.453  0.00  0.00    +0.000 OA
ATOM     12  O   UNL     1      -6.187  -2.202 130.983  0.00  0.00    +0.000 OA
ATOM     13  C   UNL     1      -6.512  -3.509 131.229  0.00  0.00    +0.000 C 
ATOM     14  C   UNL     1      -6.503  -3.332 132.689  0.00  0.00    +0.000 A 
ATOM     15  C   UNL     1      -5.653  -4.455 133.299  0.00  0.00    +0.000 A 
ATOM     16  C   UNL     1      -5.947  -5.274 134.352  0.00  0.00    +0.000 A 
ATOM     17  C   UNL     1      -7.202  -4.936 134.784  0.00  0.00    +0.000 A 
ATOM     18  C   UNL     1      -8.066  -3.641 134.133  0.00  0.00    +0.000 A 
ATOM     19  C   UNL     1      -7.599  -2.517 133.038  0.00  0.00    +0.000 A 
ENDBRANCH   6   9
BRANCH   1  23
ATOM     20  C   UNL     1     -11.887   7.634 130.113  0.00  0.00    +0.000 A 
ATOM     21  C   UNL     1     -11.157   7.499 128.938  0.00  0.00    +0.000 A 
ATOM     22  C   UNL     1     -10.076   6.580 128.867  0.00  0.00    +0.000 A 
ATOM     23  C   UNL     1      -9.637   5.847 130.007  0.00  0.00    +0.000 A 
ATOM     24  C   UNL     1     -10.390   6.030 131.171  0.00  0.00    +0.000 A 
ATOM     25  C   UNL     1     -11.497   6.891 131.212  0.00  0.00    +0.000 A 
BRANCH  24  26
ATOM     26  O   UNL     1     -10.002   5.357 132.275  0.00  0.00    +0.000 OA
ATOM     27  C   UNL     1      -9.129   5.949 133.210  0.00  0.00    +0.000 C 
ENDBRANCH  24  26
BRANCH  20  28
ATOM     28  O   UNL     1     -13.018   8.408 130.100  0.00  0.00    +0.000 OA
BRANCH  28  30
ATOM     29  C   UNL     1     -13.369  10.785 130.064  0.00  0.00    +0.000 C 
ATOM     30  C   UNL     1     -12.976   9.565 129.251  0.00  0.00    +0.000 C 
ENDBRANCH  28  30
ENDBRANCH  20  28
ENDBRANCH   1  23
TORSDOF 5
ENDMDL
MODEL 5
REMARK VINA RESULT:      -8.0      4.600      7.419
REMARK  Name = CHEMBL104530
REMARK  7 active torsions:
REMARK  status: ('A' for Active; 'I' for Inactive)
REMARK    1  A    between atoms: C_1  and  C_2
REMARK    2  A    between atoms: C_2  and  O_3
REMARK    3  A    between atoms: O_3  and  C_4
REMARK    4  A    between atoms: C_7  and  C_8
REMARK    5  A    between atoms: C_13  and  N_14
REMARK    6  A    between atoms: C_27  and  O_28
REMARK    7  A    between atoms: O_28  and  C_29
REMARK                            x       y       z     vdW  Elec       q    Type
REMARK                         _______ _______ _______ _____ _____    ______ ____
ROOT
ATOM      1  C   UNL     1      -7.648   3.950 126.377  0.00  0.00    +0.000 C 
ATOM      2  O   UNL     1      -8.243   5.019 126.566  0.00  0.00    +0.000 OA
ATOM      3  N   UNL     1      -7.508   2.989 127.458  0.00  0.00    +0.000 N 
ATOM      4  C   UNL     1      -8.683   2.409 128.126  0.00  0.00    +0.000 C 
ATOM      5  C   UNL     1      -8.492   2.249 129.668  0.00  0.00    +0.000 C 
ATOM      6  C   UNL     1      -7.171   1.085 130.175  0.00  0.00    +0.000 C 
ATOM      7  C   UNL     1      -5.994   2.116 129.349  0.00  0.00    +0.000 C 
ATOM      8  C   UNL     1      -6.263   2.294 127.821  0.00  0.00    +0.000 C 
ENDROOT
BRANCH   6   9
ATOM      9  N   UNL     1      -7.320  -0.612 130.985  0.00  0.00    +0.000 N 
ATOM     10  C   UNL     1      -7.022  -1.045 129.683  0.00  0.00    +0.000 C 
ATOM     11  O   UNL     1      -7.649  -0.817 128.604  0.00  0.00    +0.000 OA
ATOM     12  O   UNL     1      -5.796  -1.509 129.582  0.00  0.00    +0.000 OA
ATOM     13  C   UNL     1      -6.132  -2.831 129.696  0.00  0.00    +0.000 C 
ATOM     14  C   UNL     1      -5.730  -2.905 131.108  0.00  0.00    +0.000 A 
ATOM     15  C   UNL     1      -4.826  -4.134 131.282  0.00  0.00    +0.000 A 
ATOM     16  C   UNL     1      -4.888  -5.113 132.232  0.00  0.00    +0.000 A 
ATOM     17  C   UNL     1      -5.961  -4.827 133.033  0.00  0.00    +0.000 A 
ATOM     18  C   UNL     1      -6.878  -3.422 132.851  0.00  0.00    +0.000 A 
ATOM     19  C   UNL     1      -6.640  -2.138 131.864  0.00  0.00    +0.000 A 
ENDBRANCH   6   9
BRANCH   1  23
ATOM     20  C   UNL     1      -6.435   3.526 122.153  0.00  0.00    +0.000 A 
ATOM     21  C   UNL     1      -5.588   4.133 123.073  0.00  0.00    +0.000 A 
ATOM     22  C   UNL     1      -5.933   4.170 124.451  0.00  0.00    +0.000 A 
ATOM     23  C   UNL     1      -7.187   3.687 124.924  0.00  0.00    +0.000 A 
ATOM     24  C   UNL     1      -8.013   3.102 123.960  0.00  0.00    +0.000 A 
ATOM     25  C   UNL     1      -7.633   3.011 122.612  0.00  0.00    +0.000 A 
BRANCH  24  26
ATOM     26  O   UNL     1      -9.213   2.636 124.367  0.00  0.00    +0.000 OA
ATOM     27  C   UNL     1      -9.815   1.537 123.721  0.00  0.00    +0.000 C 
ENDBRANCH  24  26
BRANCH  20  28
ATOM     28  O   UNL     1      -5.999   3.366 120.864  0.00  0.00    +0.000 OA
BRANCH  28  30
ATOM     29  C   UNL     1      -5.496   5.301 119.530  0.00  0.00    +0.000 C 
ATOM     30  C   UNL     1      -6.551   4.274 119.899  0.00  0.00    +0.000 C 
ENDBRANCH  28  30
ENDBRANCH  20  28
ENDBRANCH   1  23
TORSDOF 5
ENDMDL
MODEL 6
REMARK VINA RESULT:      -8.0      4.215     10.078
REMARK  Name = CHEMBL104530
REMARK  7 active torsions:
REMARK  status: ('A' for Active; 'I' for Inactive)
REMARK    1  A    between atoms: C_1  and  C_2
REMARK    2  A    between atoms: C_2  and  O_3
REMARK    3  A    between atoms: O_3  and  C_4
REMARK    4  A    between atoms: C_7  and  C_8
REMARK    5  A    between atoms: C_13  and  N_14
REMARK    6  A    between atoms: C_27  and  O_28
REMARK    7  A    between atoms: O_28  and  C_29
REMARK                            x       y       z     vdW  Elec       q    Type
REMARK                         _______ _______ _______ _____ _____    ______ ____
ROOT
ATOM      1  C   UNL     1      -7.813   1.461 126.809  0.00  0.00    +0.000 C 
ATOM      2  O   UNL     1      -9.025   1.645 126.980  0.00  0.00    +0.000 OA
ATOM      3  N   UNL     1      -6.845   2.397 127.352  0.00  0.00    +0.000 N 
ATOM      4  C   UNL     1      -6.768   2.671 128.795  0.00  0.00    +0.000 C 
ATOM      5  C   UNL     1      -6.497   4.175 129.118  0.00  0.00    +0.000 C 
ATOM      6  C   UNL     1      -4.885   4.822 128.537  0.00  0.00    +0.000 C 
ATOM      7  C   UNL     1      -5.379   4.460 126.877  0.00  0.00    +0.000 C 
ATOM      8  C   UNL     1      -5.696   2.953 126.620  0.00  0.00    +0.000 C 
ENDROOT
BRANCH   6   9
ATOM      9  N   UNL     1      -3.368   5.327 129.539  0.00  0.00    +0.000 N 
ATOM     10  C   UNL     1      -3.883   6.613 129.308  0.00  0.00    +0.000 C 
ATOM     11  O   UNL     1      -4.115   7.191 128.203  0.00  0.00    +0.000 OA
ATOM     12  O   UNL     1      -4.425   7.132 130.387  0.00  0.00    +0.000 OA
ATOM     13  C   UNL     1      -3.339   7.884 130.747  0.00  0.00    +0.000 C 
ATOM     14  C   UNL     1      -2.906   6.930 131.779  0.00  0.00    +0.000 A 
ATOM     15  C   UNL     1      -2.643   7.715 133.072  0.00  0.00    +0.000 A 
ATOM     16  C   UNL     1      -1.563   7.650 133.906  0.00  0.00    +0.000 A 
ATOM     17  C   UNL     1      -0.690   6.746 133.363  0.00  0.00    +0.000 A 
ATOM     18  C   UNL     1      -1.059   5.849 131.981  0.00  0.00    +0.000 A 
ATOM     19  C   UNL     1      -2.456   5.760 131.134  0.00  0.00    +0.000 A 
ENDBRANCH   6   9
BRANCH   1  23
ATOM     20  C   UNL     1      -6.386  -2.235 124.858  0.00  0.00    +0.000 A 
ATOM     21  C   UNL     1      -6.607  -2.201 126.230  0.00  0.00    +0.000 A 
ATOM     22  C   UNL     1      -7.170  -1.047 126.838  0.00  0.00    +0.000 A 
ATOM     23  C   UNL     1      -7.430   0.142 126.096  0.00  0.00    +0.000 A 
ATOM     24  C   UNL     1      -7.173   0.067 124.724  0.00  0.00    +0.000 A 
ATOM     25  C   UNL     1      -6.680  -1.101 124.123  0.00  0.00    +0.000 A 
BRANCH  24  26
ATOM     26  O   UNL     1      -7.402   1.174 123.987  0.00  0.00    +0.000 OA
ATOM     27  C   UNL     1      -8.579   1.299 123.221  0.00  0.00    +0.000 C 
ENDBRANCH  24  26
BRANCH  20  28
ATOM     28  O   UNL     1      -5.993  -3.415 124.284  0.00  0.00    +0.000 OA
BRANCH  28  30
ATOM     29  C   UNL     1      -4.159  -4.758 123.506  0.00  0.00    +0.000 C 
ATOM     30  C   UNL     1      -4.774  -3.370 123.528  0.00  0.00    +0.000 C 
ENDBRANCH  28  30
ENDBRANCH  20  28
ENDBRANCH   1  23
TORSDOF 5
ENDMDL
MODEL 7
REMARK VINA RESULT:      -7.7      4.492      6.273
REMARK  Name = CHEMBL104530
REMARK  7 active torsions:
REMARK  status: ('A' for Active; 'I' for Inactive)
REMARK    1  A    between atoms: C_1  and  C_2
REMARK    2  A    between atoms: C_2  and  O_3
REMARK    3  A    between atoms: O_3  and  C_4
REMARK    4  A    between atoms: C_7  and  C_8
REMARK    5  A    between atoms: C_13  and  N_14
REMARK    6  A    between atoms: C_27  and  O_28
REMARK    7  A    between atoms: O_28  and  C_29
REMARK                            x       y       z     vdW  Elec       q    Type
REMARK                         _______ _______ _______ _____ _____    ______ ____
ROOT
ATOM      1  C   UNL     1      -3.744   5.295 128.459  0.00  0.00    +0.000 C 
ATOM      2  O   UNL     1      -2.909   5.830 127.719  0.00  0.00    +0.000 OA
ATOM      3  N   UNL     1      -4.759   4.416 127.904  0.00  0.00    +0.000 N 
ATOM      4  C   UNL     1      -4.397   3.201 127.158  0.00  0.00    +0.000 C 
ATOM      5  C   UNL     1      -5.320   2.945 125.923  0.00  0.00    +0.000 C 
ATOM      6  C   UNL     1      -7.080   2.622 126.318  0.00  0.00    +0.000 C 
ATOM      7  C   UNL     1      -7.177   4.234 127.040  0.00  0.00    +0.000 C 
ATOM      8  C   UNL     1      -6.193   4.460 128.230  0.00  0.00    +0.000 C 
ENDROOT
BRANCH   6   9
ATOM      9  N   UNL     1      -8.061   1.016 126.175  0.00  0.00    +0.000 N 
ATOM     10  C   UNL     1      -8.628   1.687 125.079  0.00  0.00    +0.000 C 
ATOM     11  O   UNL     1      -9.246   2.794 125.055  0.00  0.00    +0.000 OA
ATOM     12  O   UNL     1      -8.206   1.206 123.930  0.00  0.00    +0.000 OA
ATOM     13  C   UNL     1      -9.290   0.402 123.703  0.00  0.00    +0.000 C 
ATOM     14  C   UNL     1      -8.591  -0.817 124.136  0.00  0.00    +0.000 A 
ATOM     15  C   UNL     1      -8.804  -1.894 123.062  0.00  0.00    +0.000 A 
ATOM     16  C   UNL     1      -9.186  -3.196 123.222  0.00  0.00    +0.000 A 
ATOM     17  C   UNL     1      -9.387  -3.393 124.562  0.00  0.00    +0.000 A 
ATOM     18  C   UNL     1      -9.063  -2.201 125.712  0.00  0.00    +0.000 A 
ATOM     19  C   UNL     1      -8.374  -0.728 125.526  0.00  0.00    +0.000 A 
ENDBRANCH   6   9
BRANCH   1  23
ATOM     20  C   UNL     1      -3.470   5.783 132.839  0.00  0.00    +0.000 A 
ATOM     21  C   UNL     1      -2.901   4.678 132.215  0.00  0.00    +0.000 A 
ATOM     22  C   UNL     1      -2.895   4.579 130.798  0.00  0.00    +0.000 A 
ATOM     23  C   UNL     1      -3.551   5.540 129.975  0.00  0.00    +0.000 A 
ATOM     24  C   UNL     1      -4.125   6.623 130.648  0.00  0.00    +0.000 A 
ATOM     25  C   UNL     1      -4.067   6.745 132.044  0.00  0.00    +0.000 A 
BRANCH  24  26
ATOM     26  O   UNL     1      -4.760   7.552 129.904  0.00  0.00    +0.000 OA
ATOM     27  C   UNL     1      -4.136   8.779 129.598  0.00  0.00    +0.000 C 
ENDBRANCH  24  26
BRANCH  20  28
ATOM     28  O   UNL     1      -3.317   5.924 134.193  0.00  0.00    +0.000 OA
BRANCH  28  30
ATOM     29  C   UNL     1      -1.374   7.042 135.060  0.00  0.00    +0.000 C 
ATOM     30  C   UNL     1      -2.825   7.196 134.640  0.00  0.00    +0.000 C 
ENDBRANCH  28  30
ENDBRANCH  20  28
ENDBRANCH   1  23
TORSDOF 5
ENDMDL
MODEL 8
REMARK VINA RESULT:      -7.7      5.427      9.241
REMARK  Name = CHEMBL104530
REMARK  7 active torsions:
REMARK  status: ('A' for Active; 'I' for Inactive)
REMARK    1  A    between atoms: C_1  and  C_2
REMARK    2  A    between atoms: C_2  and  O_3
REMARK    3  A    between atoms: O_3  and  C_4
REMARK    4  A    between atoms: C_7  and  C_8
REMARK    5  A    between atoms: C_13  and  N_14
REMARK    6  A    between atoms: C_27  and  O_28
REMARK    7  A    between atoms: O_28  and  C_29
REMARK                            x       y       z     vdW  Elec       q    Type
REMARK                         _______ _______ _______ _____ _____    ______ ____
ROOT
ATOM      1  C   UNL     1      -5.373   3.650 134.439  0.00  0.00    +0.000 C 
ATOM      2  O   UNL     1      -5.412   2.882 135.409  0.00  0.00    +0.000 OA
ATOM      3  N   UNL     1      -6.581   3.946 133.689  0.00  0.00    +0.000 N 
ATOM      4  C   UNL     1      -7.756   4.552 134.333  0.00  0.00    +0.000 C 
ATOM      5  C   UNL     1      -9.108   3.963 133.816  0.00  0.00    +0.000 C 
ATOM      6  C   UNL     1      -9.466   4.265 132.045  0.00  0.00    +0.000 C 
ATOM      7  C   UNL     1      -8.010   3.348 131.632  0.00  0.00    +0.000 C 
ATOM      8  C   UNL     1      -6.692   3.943 132.222  0.00  0.00    +0.000 C 
ENDROOT
BRANCH   6   9
ATOM      9  N   UNL     1     -10.761   5.391 131.263  0.00  0.00    +0.000 N 
ATOM     10  C   UNL     1      -9.652   6.240 131.114  0.00  0.00    +0.000 C 
ATOM     11  O   UNL     1      -8.883   6.709 132.007  0.00  0.00    +0.000 OA
ATOM     12  O   UNL     1      -9.243   6.308 129.867  0.00  0.00    +0.000 OA
ATOM     13  C   UNL     1      -9.886   7.479 129.567  0.00  0.00    +0.000 C 
ATOM     14  C   UNL     1     -10.984   6.800 128.861  0.00  0.00    +0.000 A 
ATOM     15  C   UNL     1     -11.177   7.493 127.505  0.00  0.00    +0.000 A 
ATOM     16  C   UNL     1     -12.334   7.924 126.923  0.00  0.00    +0.000 A 
ATOM     17  C   UNL     1     -13.350   7.652 127.800  0.00  0.00    +0.000 A 
ATOM     18  C   UNL     1     -13.099   6.818 129.245  0.00  0.00    +0.000 A 
ATOM     19  C   UNL     1     -11.746   6.093 129.813  0.00  0.00    +0.000 A 
ENDBRANCH   6   9
BRANCH   1  23
ATOM     20  C   UNL     1      -1.637   5.784 133.448  0.00  0.00    +0.000 A 
ATOM     21  C   UNL     1      -2.564   6.350 134.315  0.00  0.00    +0.000 A 
ATOM     22  C   UNL     1      -3.711   5.615 134.718  0.00  0.00    +0.000 A 
ATOM     23  C   UNL     1      -4.008   4.330 134.178  0.00  0.00    +0.000 A 
ATOM     24  C   UNL     1      -3.057   3.810 133.296  0.00  0.00    +0.000 A 
ATOM     25  C   UNL     1      -1.893   4.517 132.956  0.00  0.00    +0.000 A 
BRANCH  24  26
ATOM     26  O   UNL     1      -3.304   2.597 132.759  0.00  0.00    +0.000 OA
ATOM     27  C   UNL     1      -2.826   1.425 133.379  0.00  0.00    +0.000 C 
ENDBRANCH  24  26
BRANCH  20  28
ATOM     28  O   UNL     1      -0.467   6.455 133.207  0.00  0.00    +0.000 OA
BRANCH  28  30
ATOM     29  C   UNL     1       0.268   8.649 133.858  0.00  0.00    +0.000 C 
ATOM     30  C   UNL     1      -0.596   7.850 132.898  0.00  0.00    +0.000 C 
ENDBRANCH  28  30
ENDBRANCH  20  28
ENDBRANCH   1  23
TORSDOF 5
ENDMDL
MODEL 9
REMARK VINA RESULT:      -7.6      5.228      7.856
REMARK  Name = CHEMBL104530
REMARK  7 active torsions:
REMARK  status: ('A' for Active; 'I' for Inactive)
REMARK    1  A    between atoms: C_1  and  C_2
REMARK    2  A    between atoms: C_2  and  O_3
REMARK    3  A    between atoms: O_3  and  C_4
REMARK    4  A    between atoms: C_7  and  C_8
REMARK    5  A    between atoms: C_13  and  N_14
REMARK    6  A    between atoms: C_27  and  O_28
REMARK    7  A    between atoms: O_28  and  C_29
REMARK                            x       y       z     vdW  Elec       q    Type
REMARK                         _______ _______ _______ _____ _____    ______ ____
ROOT
ATOM      1  C   UNL     1      -6.510   3.966 125.927  0.00  0.00    +0.000 C 
ATOM      2  O   UNL     1      -7.197   4.931 126.287  0.00  0.00    +0.000 OA
ATOM      3  N   UNL     1      -5.950   3.057 126.911  0.00  0.00    +0.000 N 
ATOM      4  C   UNL     1      -6.809   2.309 127.842  0.00  0.00    +0.000 C 
ATOM      5  C   UNL     1      -6.208   2.206 129.280  0.00  0.00    +0.000 C 
ATOM      6  C   UNL     1      -4.635   1.273 129.404  0.00  0.00    +0.000 C 
ATOM      7  C   UNL     1      -3.886   2.464 128.332  0.00  0.00    +0.000 C 
ATOM      8  C   UNL     1      -4.561   2.573 126.928  0.00  0.00    +0.000 C 
ENDROOT
BRANCH   6   9
ATOM      9  N   UNL     1      -4.305  -0.413 130.183  0.00  0.00    +0.000 N 
ATOM     10  C   UNL     1      -4.464   0.320 131.370  0.00  0.00    +0.000 C 
ATOM     11  O   UNL     1      -3.810   1.328 131.778  0.00  0.00    +0.000 OA
ATOM     12  O   UNL     1      -5.607   0.061 131.965  0.00  0.00    +0.000 OA
ATOM     13  C   UNL     1      -5.103  -0.841 132.863  0.00  0.00    +0.000 C 
ATOM     14  C   UNL     1      -5.574  -2.004 132.096  0.00  0.00    +0.000 A 
ATOM     15  C   UNL     1      -6.312  -2.943 133.062  0.00  0.00    +0.000 A 
ATOM     16  C   UNL     1      -6.173  -4.293 133.213  0.00  0.00    +0.000 A 
ATOM     17  C   UNL     1      -5.198  -4.697 132.341  0.00  0.00    +0.000 A 
ATOM     18  C   UNL     1      -4.472  -3.641 131.242  0.00  0.00    +0.000 A 
ATOM     19  C   UNL     1      -4.823  -2.078 130.906  0.00  0.00    +0.000 A 
ENDBRANCH   6   9
BRANCH   1  23
ATOM     20  C   UNL     1      -6.326   3.690 121.524  0.00  0.00    +0.000 A 
ATOM     21  C   UNL     1      -5.307   4.313 122.235  0.00  0.00    +0.000 A 
ATOM     22  C   UNL     1      -5.314   4.303 123.656  0.00  0.00    +0.000 A 
ATOM     23  C   UNL     1      -6.400   3.755 124.398  0.00  0.00    +0.000 A 
ATOM     24  C   UNL     1      -7.411   3.157 123.639  0.00  0.00    +0.000 A 
ATOM     25  C   UNL     1      -7.360   3.113 122.238  0.00  0.00    +0.000 A 
BRANCH  24  26
ATOM     26  O   UNL     1      -8.460   2.631 124.305  0.00  0.00    +0.000 OA
ATOM     27  C   UNL     1      -9.501   1.981 123.610  0.00  0.00    +0.000 C 
ENDBRANCH  24  26
BRANCH  20  28
ATOM     28  O   UNL     1      -6.205   3.579 120.164  0.00  0.00    +0.000 OA
BRANCH  28  30
ATOM     29  C   UNL     1      -5.991   5.502 118.739  0.00  0.00    +0.000 C 
ATOM     30  C   UNL     1      -6.955   4.525 119.388  0.00  0.00    +0.000 C 
ENDBRANCH  28  30
ENDBRANCH  20  28
ENDBRANCH   1  23
TORSDOF 5
ENDMDL
