MODEL 1
REMARK VINA RESULT:      -7.6      0.000      0.000
REMARK  Name = CHEMBL481730
REMARK  7 active torsions:
REMARK  status: ('A' for Active; 'I' for Inactive)
REMARK    1  A    between atoms: C_2  and  C_3
REMARK    2  A    between atoms: C_6  and  C_7
REMARK    3  A    between atoms: C_12  and  C_13
REMARK    4  A    between atoms: N_19  and  C_20
REMARK    5  A    between atoms: N_19  and  C_24
REMARK    6  A    between atoms: C_20  and  C_21
REMARK    7  A    between atoms: C_24  and  C_25
REMARK                            x       y       z     vdW  Elec       q    Type
REMARK                         _______ _______ _______ _____ _____    ______ ____
ROOT
ATOM      1  C   UNL     1      -5.627   0.742 125.972  0.00  0.00    +0.000 A 
ATOM      2  C   UNL     1      -5.434  -0.562 125.515  0.00  0.00    +0.000 A 
ATOM      3  C   UNL     1      -5.462  -1.609 126.436  0.00  0.00    +0.000 A 
ATOM      4  C   UNL     1      -5.478  -1.346 127.816  0.00  0.00    +0.000 A 
ATOM      5  C   UNL     1      -5.471  -0.023 128.252  0.00  0.00    +0.000 A 
ATOM      6  C   UNL     1      -5.560   1.003 127.341  0.00  0.00    +0.000 A 
ENDROOT
BRANCH   4   7
ATOM      7  C   UNL     1      -5.426  -2.436 128.780  0.00  0.00    +0.000 A 
ATOM      8  N   UNL     1      -4.164  -2.690 129.219  0.00  0.00    +0.000 NA
ATOM      9  C   UNL     1      -3.998  -3.660 130.133  0.00  0.00    +0.000 A 
ATOM     10  C   UNL     1      -5.041  -4.416 130.628  0.00  0.00    +0.000 A 
ATOM     11  C   UNL     1      -6.326  -4.152 130.165  0.00  0.00    +0.000 A 
ATOM     12  C   UNL     1      -6.544  -3.140 129.222  0.00  0.00    +0.000 A 
BRANCH  12  13
ATOM     13  C   UNL     1      -7.919  -2.865 128.687  0.00  0.00    +0.000 C 
ATOM     14  F   UNL     1      -8.917  -3.466 129.393  0.00  0.00    +0.000 F 
ATOM     15  F   UNL     1      -8.219  -1.538 128.648  0.00  0.00    +0.000 F 
ATOM     16  F   UNL     1      -8.090  -3.313 127.409  0.00  0.00    +0.000 F 
ENDBRANCH  12  13
ENDBRANCH   4   7
BRANCH   1  18
ATOM     17  O   UNL     1      -5.355   2.952 125.369  0.00  0.00    +0.000 OA
ATOM     18  C   UNL     1      -6.020   1.942 125.187  0.00  0.00    +0.000 C 
ATOM     19  N   UNL     1      -7.137   1.924 124.350  0.00  0.00    +0.000 N 
BRANCH  19  20
ATOM     20  C   UNL     1      -7.266   3.011 123.383  0.00  0.00    +0.000 C 
BRANCH  20  21
ATOM     21  C   UNL     1      -6.487   2.932 122.106  0.00  0.00    +0.000 C 
ATOM     22  C   UNL     1      -6.688   3.797 120.869  0.00  0.00    +0.000 C 
ATOM     23  C   UNL     1      -5.518   4.033 121.753  0.00  0.00    +0.000 C 
ENDBRANCH  20  21
ENDBRANCH  19  20
BRANCH  19  24
ATOM     24  C   UNL     1      -8.367   1.388 124.937  0.00  0.00    +0.000 C 
BRANCH  24  25
ATOM     25  C   UNL     1      -9.068   0.149 124.347  0.00  0.00    +0.000 C 
ATOM     26  C   UNL     1      -9.050  -0.984 125.364  0.00  0.00    +0.000 C 
ATOM     27  C   UNL     1      -8.949  -2.216 124.506  0.00  0.00    +0.000 C 
ATOM     28  C   UNL     1      -8.137  -1.746 123.328  0.00  0.00    +0.000 C 
ATOM     29  O   UNL     1      -8.471  -0.377 123.159  0.00  0.00    +0.000 OA
ENDBRANCH  24  25
ENDBRANCH  19  24
ENDBRANCH   1  18
TORSDOF 7
ENDMDL
MODEL 2
REMARK VINA RESULT:      -7.3      1.808      2.157
REMARK  Name = CHEMBL481730
REMARK  7 active torsions:
REMARK  status: ('A' for Active; 'I' for Inactive)
REMARK    1  A    between atoms: C_2  and  C_3
REMARK    2  A    between atoms: C_6  and  C_7
REMARK    3  A    between atoms: C_12  and  C_13
REMARK    4  A    between atoms: N_19  and  C_20
REMARK    5  A    between atoms: N_19  and  C_24
REMARK    6  A    between atoms: C_20  and  C_21
REMARK    7  A    between atoms: C_24  and  C_25
REMARK                            x       y       z     vdW  Elec       q    Type
REMARK                         _______ _______ _______ _____ _____    ______ ____
ROOT
ATOM      1  C   UNL     1      -7.017   1.916 125.753  0.00  0.00    +0.000 A 
ATOM      2  C   UNL     1      -5.911   1.116 126.042  0.00  0.00    +0.000 A 
ATOM      3  C   UNL     1      -6.056   0.070 126.952  0.00  0.00    +0.000 A 
ATOM      4  C   UNL     1      -7.227  -0.053 127.718  0.00  0.00    +0.000 A 
ATOM      5  C   UNL     1      -8.245   0.882 127.550  0.00  0.00    +0.000 A 
ATOM      6  C   UNL     1      -8.145   1.842 126.570  0.00  0.00    +0.000 A 
ENDROOT
BRANCH   4   7
ATOM      7  C   UNL     1      -7.349  -1.096 128.727  0.00  0.00    +0.000 A 
ATOM      8  N   UNL     1      -6.941  -0.687 129.958  0.00  0.00    +0.000 NA
ATOM      9  C   UNL     1      -7.033  -1.560 130.974  0.00  0.00    +0.000 A 
ATOM     10  C   UNL     1      -7.502  -2.848 130.821  0.00  0.00    +0.000 A 
ATOM     11  C   UNL     1      -7.908  -3.258 129.556  0.00  0.00    +0.000 A 
ATOM     12  C   UNL     1      -7.841  -2.374 128.471  0.00  0.00    +0.000 A 
BRANCH  12  13
ATOM     13  C   UNL     1      -8.243  -2.810 127.092  0.00  0.00    +0.000 C 
ATOM     14  F   UNL     1      -9.187  -2.015 126.515  0.00  0.00    +0.000 F 
ATOM     15  F   UNL     1      -7.197  -2.859 126.223  0.00  0.00    +0.000 F 
ATOM     16  F   UNL     1      -8.791  -4.060 127.070  0.00  0.00    +0.000 F 
ENDBRANCH  12  13
ENDBRANCH   4   7
BRANCH   1  18
ATOM     17  O   UNL     1      -7.223   4.007 124.802  0.00  0.00    +0.000 OA
ATOM     18  C   UNL     1      -7.227   2.805 124.579  0.00  0.00    +0.000 C 
ATOM     19  N   UNL     1      -7.490   2.281 123.314  0.00  0.00    +0.000 N 
BRANCH  19  20
ATOM     20  C   UNL     1      -7.362   3.186 122.174  0.00  0.00    +0.000 C 
BRANCH  20  21
ATOM     21  C   UNL     1      -6.042   3.273 121.472  0.00  0.00    +0.000 C 
ATOM     22  C   UNL     1      -5.625   4.330 120.458  0.00  0.00    +0.000 C 
ATOM     23  C   UNL     1      -5.072   4.370 121.836  0.00  0.00    +0.000 C 
ENDBRANCH  20  21
ENDBRANCH  19  20
BRANCH  19  24
ATOM     24  C   UNL     1      -8.533   1.255 123.250  0.00  0.00    +0.000 C 
BRANCH  24  25
ATOM     25  C   UNL     1      -8.294  -0.171 123.785  0.00  0.00    +0.000 C 
ATOM     26  C   UNL     1      -7.056  -0.766 123.128  0.00  0.00    +0.000 C 
ATOM     27  C   UNL     1      -7.385  -2.231 123.038  0.00  0.00    +0.000 C 
ATOM     28  C   UNL     1      -8.877  -2.235 122.841  0.00  0.00    +0.000 C 
ATOM     29  O   UNL     1      -9.355  -1.097 123.540  0.00  0.00    +0.000 OA
ENDBRANCH  24  25
ENDBRANCH  19  24
ENDBRANCH   1  18
TORSDOF 7
ENDMDL
MODEL 3
REMARK VINA RESULT:      -7.2      3.421      4.741
REMARK  Name = CHEMBL481730
REMARK  7 active torsions:
REMARK  status: ('A' for Active; 'I' for Inactive)
REMARK    1  A    between atoms: C_2  and  C_3
REMARK    2  A    between atoms: C_6  and  C_7
REMARK    3  A    between atoms: C_12  and  C_13
REMARK    4  A    between atoms: N_19  and  C_20
REMARK    5  A    between atoms: N_19  and  C_24
REMARK    6  A    between atoms: C_20  and  C_21
REMARK    7  A    between atoms: C_24  and  C_25
REMARK                            x       y       z     vdW  Elec       q    Type
REMARK                         _______ _______ _______ _____ _____    ______ ____
ROOT
ATOM      1  C   UNL     1      -8.515  -2.952 127.043  0.00  0.00    +0.000 A 
ATOM      2  C   UNL     1      -8.677  -3.906 128.048  0.00  0.00    +0.000 A 
ATOM      3  C   UNL     1      -8.230  -3.610 129.335  0.00  0.00    +0.000 A 
ATOM      4  C   UNL     1      -7.451  -2.466 129.574  0.00  0.00    +0.000 A 
ATOM      5  C   UNL     1      -7.136  -1.627 128.508  0.00  0.00    +0.000 A 
ATOM      6  C   UNL     1      -7.674  -1.861 127.265  0.00  0.00    +0.000 A 
ENDROOT
BRANCH   4   7
ATOM      7  C   UNL     1      -6.915  -2.197 130.902  0.00  0.00    +0.000 A 
ATOM      8  N   UNL     1      -7.645  -1.278 131.588  0.00  0.00    +0.000 NA
ATOM      9  C   UNL     1      -7.258  -0.970 132.837  0.00  0.00    +0.000 A 
ATOM     10  C   UNL     1      -6.151  -1.528 133.441  0.00  0.00    +0.000 A 
ATOM     11  C   UNL     1      -5.406  -2.461 132.727  0.00  0.00    +0.000 A 
ATOM     12  C   UNL     1      -5.784  -2.819 131.426  0.00  0.00    +0.000 A 
BRANCH  12  13
ATOM     13  C   UNL     1      -4.973  -3.799 130.628  0.00  0.00    +0.000 C 
ATOM     14  F   UNL     1      -3.761  -4.089 131.177  0.00  0.00    +0.000 F 
ATOM     15  F   UNL     1      -5.608  -4.988 130.443  0.00  0.00    +0.000 F 
ATOM     16  F   UNL     1      -4.679  -3.346 129.375  0.00  0.00    +0.000 F 
ENDBRANCH  12  13
ENDBRANCH   4   7
BRANCH   1  18
ATOM     17  O   UNL     1     -10.448  -2.830 125.788  0.00  0.00    +0.000 OA
ATOM     18  C   UNL     1      -9.226  -2.861 125.739  0.00  0.00    +0.000 C 
ATOM     19  N   UNL     1      -8.528  -2.888 124.532  0.00  0.00    +0.000 N 
BRANCH  19  20
ATOM     20  C   UNL     1      -9.249  -2.473 123.332  0.00  0.00    +0.000 C 
BRANCH  20  21
ATOM     21  C   UNL     1      -8.977  -1.113 122.764  0.00  0.00    +0.000 C 
ATOM     22  C   UNL     1     -10.013  -0.051 122.424  0.00  0.00    +0.000 C 
ATOM     23  C   UNL     1      -9.162   0.108 123.631  0.00  0.00    +0.000 C 
ENDBRANCH  20  21
ENDBRANCH  19  20
BRANCH  19  24
ATOM     24  C   UNL     1      -7.535  -3.955 124.390  0.00  0.00    +0.000 C 
BRANCH  24  25
ATOM     25  C   UNL     1      -6.027  -3.677 124.543  0.00  0.00    +0.000 C 
ATOM     26  C   UNL     1      -5.583  -2.662 123.499  0.00  0.00    +0.000 C 
ATOM     27  C   UNL     1      -4.172  -3.083 123.187  0.00  0.00    +0.000 C 
ATOM     28  C   UNL     1      -4.217  -4.579 123.357  0.00  0.00    +0.000 C 
ATOM     29  O   UNL     1      -5.180  -4.816 124.372  0.00  0.00    +0.000 OA
ENDBRANCH  24  25
ENDBRANCH  19  24
ENDBRANCH   1  18
TORSDOF 7
ENDMDL
MODEL 4
REMARK VINA RESULT:      -7.1      2.349      3.360
REMARK  Name = CHEMBL481730
REMARK  7 active torsions:
REMARK  status: ('A' for Active; 'I' for Inactive)
REMARK    1  A    between atoms: C_2  and  C_3
REMARK    2  A    between atoms: C_6  and  C_7
REMARK    3  A    between atoms: C_12  and  C_13
REMARK    4  A    between atoms: N_19  and  C_20
REMARK    5  A    between atoms: N_19  and  C_24
REMARK    6  A    between atoms: C_20  and  C_21
REMARK    7  A    between atoms: C_24  and  C_25
REMARK                            x       y       z     vdW  Elec       q    Type
REMARK                         _______ _______ _______ _____ _____    ______ ____
ROOT
ATOM      1  C   UNL     1      -8.573  -1.122 126.330  0.00  0.00    +0.000 A 
ATOM      2  C   UNL     1      -8.712  -2.480 126.620  0.00  0.00    +0.000 A 
ATOM      3  C   UNL     1      -8.216  -2.965 127.830  0.00  0.00    +0.000 A 
ATOM      4  C   UNL     1      -7.413  -2.153 128.648  0.00  0.00    +0.000 A 
ATOM      5  C   UNL     1      -7.124  -0.855 128.237  0.00  0.00    +0.000 A 
ATOM      6  C   UNL     1      -7.709  -0.344 127.102  0.00  0.00    +0.000 A 
ENDROOT
BRANCH   4   7
ATOM      7  C   UNL     1      -6.827  -2.683 129.872  0.00  0.00    +0.000 A 
ATOM      8  N   UNL     1      -7.722  -2.761 130.893  0.00  0.00    +0.000 NA
ATOM      9  C   UNL     1      -7.299  -3.260 132.065  0.00  0.00    +0.000 A 
ATOM     10  C   UNL     1      -6.001  -3.677 132.282  0.00  0.00    +0.000 A 
ATOM     11  C   UNL     1      -5.093  -3.585 131.233  0.00  0.00    +0.000 A 
ATOM     12  C   UNL     1      -5.498  -3.082 129.990  0.00  0.00    +0.000 A 
BRANCH  12  13
ATOM     13  C   UNL     1      -4.522  -2.944 128.857  0.00  0.00    +0.000 C 
ATOM     14  F   UNL     1      -5.039  -3.272 127.641  0.00  0.00    +0.000 F 
ATOM     15  F   UNL     1      -4.022  -1.684 128.736  0.00  0.00    +0.000 F 
ATOM     16  F   UNL     1      -3.433  -3.754 128.994  0.00  0.00    +0.000 F 
ENDBRANCH  12  13
ENDBRANCH   4   7
BRANCH   1  18
ATOM     17  O   UNL     1     -10.365   0.202 125.732  0.00  0.00    +0.000 OA
ATOM     18  C   UNL     1      -9.327  -0.312 125.337  0.00  0.00    +0.000 C 
ATOM     19  N   UNL     1      -8.904  -0.216 124.011  0.00  0.00    +0.000 N 
BRANCH  19  20
ATOM     20  C   UNL     1      -9.498   0.838 123.193  0.00  0.00    +0.000 C 
BRANCH  20  21
ATOM     21  C   UNL     1      -8.759   2.132 123.042  0.00  0.00    +0.000 C 
ATOM     22  C   UNL     1      -8.418   3.114 124.155  0.00  0.00    +0.000 C 
ATOM     23  C   UNL     1      -7.353   2.256 123.575  0.00  0.00    +0.000 C 
ENDBRANCH  20  21
ENDBRANCH  19  20
BRANCH  19  24
ATOM     24  C   UNL     1      -8.574  -1.481 123.352  0.00  0.00    +0.000 C 
BRANCH  24  25
ATOM     25  C   UNL     1      -7.113  -1.935 123.166  0.00  0.00    +0.000 C 
ATOM     26  C   UNL     1      -6.917  -3.306 123.800  0.00  0.00    +0.000 C 
ATOM     27  C   UNL     1      -5.496  -3.257 124.292  0.00  0.00    +0.000 C 
ATOM     28  C   UNL     1      -5.311  -1.809 124.659  0.00  0.00    +0.000 C 
ATOM     29  O   UNL     1      -6.132  -1.081 123.759  0.00  0.00    +0.000 OA
ENDBRANCH  24  25
ENDBRANCH  19  24
ENDBRANCH   1  18
TORSDOF 7
ENDMDL
MODEL 5
REMARK VINA RESULT:      -7.1      2.490      4.114
REMARK  Name = CHEMBL481730
REMARK  7 active torsions:
REMARK  status: ('A' for Active; 'I' for Inactive)
REMARK    1  A    between atoms: C_2  and  C_3
REMARK    2  A    between atoms: C_6  and  C_7
REMARK    3  A    between atoms: C_12  and  C_13
REMARK    4  A    between atoms: N_19  and  C_20
REMARK    5  A    between atoms: N_19  and  C_24
REMARK    6  A    between atoms: C_20  and  C_21
REMARK    7  A    between atoms: C_24  and  C_25
REMARK                            x       y       z     vdW  Elec       q    Type
REMARK                         _______ _______ _______ _____ _____    ______ ____
ROOT
ATOM      1  C   UNL     1      -6.426  -1.841 126.780  0.00  0.00    +0.000 A 
ATOM      2  C   UNL     1      -5.495  -1.287 127.659  0.00  0.00    +0.000 A 
ATOM      3  C   UNL     1      -5.617  -1.551 129.023  0.00  0.00    +0.000 A 
ATOM      4  C   UNL     1      -6.764  -2.187 129.527  0.00  0.00    +0.000 A 
ATOM      5  C   UNL     1      -7.775  -2.556 128.644  0.00  0.00    +0.000 A 
ATOM      6  C   UNL     1      -7.600  -2.398 127.289  0.00  0.00    +0.000 A 
ENDROOT
BRANCH   4   7
ATOM      7  C   UNL     1      -6.930  -2.391 130.959  0.00  0.00    +0.000 A 
ATOM      8  N   UNL     1      -7.618  -1.383 131.558  0.00  0.00    +0.000 NA
ATOM      9  C   UNL     1      -7.855  -1.477 132.876  0.00  0.00    +0.000 A 
ATOM     10  C   UNL     1      -7.419  -2.535 133.646  0.00  0.00    +0.000 A 
ATOM     11  C   UNL     1      -6.709  -3.557 133.025  0.00  0.00    +0.000 A 
ATOM     12  C   UNL     1      -6.452  -3.503 131.649  0.00  0.00    +0.000 A 
BRANCH  12  13
ATOM     13  C   UNL     1      -5.659  -4.581 130.968  0.00  0.00    +0.000 C 
ATOM     14  F   UNL     1      -6.298  -5.151 129.908  0.00  0.00    +0.000 F 
ATOM     15  F   UNL     1      -4.457  -4.143 130.503  0.00  0.00    +0.000 F 
ATOM     16  F   UNL     1      -5.369  -5.628 131.793  0.00  0.00    +0.000 F 
ENDBRANCH  12  13
ENDBRANCH   4   7
BRANCH   1  18
ATOM     17  O   UNL     1      -5.646  -2.999 124.943  0.00  0.00    +0.000 OA
ATOM     18  C   UNL     1      -6.301  -2.034 125.310  0.00  0.00    +0.000 C 
ATOM     19  N   UNL     1      -6.839  -1.113 124.412  0.00  0.00    +0.000 N 
BRANCH  19  20
ATOM     20  C   UNL     1      -6.960  -1.529 123.017  0.00  0.00    +0.000 C 
BRANCH  20  21
ATOM     21  C   UNL     1      -8.216  -2.216 122.579  0.00  0.00    +0.000 C 
ATOM     22  C   UNL     1      -8.972  -3.293 123.346  0.00  0.00    +0.000 C 
ATOM     23  C   UNL     1      -9.517  -1.913 123.280  0.00  0.00    +0.000 C 
ENDBRANCH  20  21
ENDBRANCH  19  20
BRANCH  19  24
ATOM     24  C   UNL     1      -6.530   0.295 124.675  0.00  0.00    +0.000 C 
BRANCH  24  25
ATOM     25  C   UNL     1      -7.629   1.375 124.676  0.00  0.00    +0.000 C 
ATOM     26  C   UNL     1      -8.905   0.809 125.284  0.00  0.00    +0.000 C 
ATOM     27  C   UNL     1      -9.992   1.520 124.525  0.00  0.00    +0.000 C 
ATOM     28  C   UNL     1      -9.384   1.717 123.161  0.00  0.00    +0.000 C 
ATOM     29  O   UNL     1      -7.992   1.872 123.386  0.00  0.00    +0.000 OA
ENDBRANCH  24  25
ENDBRANCH  19  24
ENDBRANCH   1  18
TORSDOF 7
ENDMDL
MODEL 6
REMARK VINA RESULT:      -7.0      3.541      8.246
REMARK  Name = CHEMBL481730
REMARK  7 active torsions:
REMARK  status: ('A' for Active; 'I' for Inactive)
REMARK    1  A    between atoms: C_2  and  C_3
REMARK    2  A    between atoms: C_6  and  C_7
REMARK    3  A    between atoms: C_12  and  C_13
REMARK    4  A    between atoms: N_19  and  C_20
REMARK    5  A    between atoms: N_19  and  C_24
REMARK    6  A    between atoms: C_20  and  C_21
REMARK    7  A    between atoms: C_24  and  C_25
REMARK                            x       y       z     vdW  Elec       q    Type
REMARK                         _______ _______ _______ _____ _____    ______ ____
ROOT
ATOM      1  C   UNL     1      -7.035  -3.189 129.347  0.00  0.00    +0.000 A 
ATOM      2  C   UNL     1      -8.197  -3.579 128.681  0.00  0.00    +0.000 A 
ATOM      3  C   UNL     1      -8.448  -3.066 127.408  0.00  0.00    +0.000 A 
ATOM      4  C   UNL     1      -7.660  -2.025 126.891  0.00  0.00    +0.000 A 
ATOM      5  C   UNL     1      -6.620  -1.515 127.664  0.00  0.00    +0.000 A 
ATOM      6  C   UNL     1      -6.305  -2.100 128.868  0.00  0.00    +0.000 A 
ENDROOT
BRANCH   4   7
ATOM      7  C   UNL     1      -7.970  -1.433 125.597  0.00  0.00    +0.000 A 
ATOM      8  N   UNL     1      -8.892  -0.438 125.680  0.00  0.00    +0.000 NA
ATOM      9  C   UNL     1      -9.237   0.200 124.550  0.00  0.00    +0.000 A 
ATOM     10  C   UNL     1      -8.712  -0.121 123.314  0.00  0.00    +0.000 A 
ATOM     11  C   UNL     1      -7.775  -1.146 123.239  0.00  0.00    +0.000 A 
ATOM     12  C   UNL     1      -7.379  -1.827 124.398  0.00  0.00    +0.000 A 
BRANCH  12  13
ATOM     13  C   UNL     1      -6.395  -2.958 124.330  0.00  0.00    +0.000 C 
ATOM     14  F   UNL     1      -5.360  -2.842 125.208  0.00  0.00    +0.000 F 
ATOM     15  F   UNL     1      -6.963  -4.173 124.563  0.00  0.00    +0.000 F 
ATOM     16  F   UNL     1      -5.795  -3.067 123.110  0.00  0.00    +0.000 F 
ENDBRANCH  12  13
ENDBRANCH   4   7
BRANCH   1  18
ATOM     17  O   UNL     1      -5.995  -5.011 130.305  0.00  0.00    +0.000 OA
ATOM     18  C   UNL     1      -6.362  -3.860 130.491  0.00  0.00    +0.000 C 
ATOM     19  N   UNL     1      -6.234  -3.226 131.727  0.00  0.00    +0.000 N 
BRANCH  19  20
ATOM     20  C   UNL     1      -5.293  -3.806 132.683  0.00  0.00    +0.000 C 
BRANCH  20  21
ATOM     21  C   UNL     1      -5.798  -4.203 134.036  0.00  0.00    +0.000 C 
ATOM     22  C   UNL     1      -6.342  -5.569 134.433  0.00  0.00    +0.000 C 
ATOM     23  C   UNL     1      -4.989  -5.153 134.885  0.00  0.00    +0.000 C 
ENDBRANCH  20  21
ENDBRANCH  19  20
BRANCH  19  24
ATOM     24  C   UNL     1      -7.452  -2.613 132.262  0.00  0.00    +0.000 C 
BRANCH  24  25
ATOM     25  C   UNL     1      -7.580  -1.086 132.427  0.00  0.00    +0.000 C 
ATOM     26  C   UNL     1      -8.547  -0.536 131.387  0.00  0.00    +0.000 C 
ATOM     27  C   UNL     1      -7.989   0.828 131.086  0.00  0.00    +0.000 C 
ATOM     28  C   UNL     1      -6.505   0.636 131.255  0.00  0.00    +0.000 C 
ATOM     29  O   UNL     1      -6.363  -0.354 132.262  0.00  0.00    +0.000 OA
ENDBRANCH  24  25
ENDBRANCH  19  24
ENDBRANCH   1  18
TORSDOF 7
ENDMDL
MODEL 7
REMARK VINA RESULT:      -6.9      5.497      8.417
REMARK  Name = CHEMBL481730
REMARK  7 active torsions:
REMARK  status: ('A' for Active; 'I' for Inactive)
REMARK    1  A    between atoms: C_2  and  C_3
REMARK    2  A    between atoms: C_6  and  C_7
REMARK    3  A    between atoms: C_12  and  C_13
REMARK    4  A    between atoms: N_19  and  C_20
REMARK    5  A    between atoms: N_19  and  C_24
REMARK    6  A    between atoms: C_20  and  C_21
REMARK    7  A    between atoms: C_24  and  C_25
REMARK                            x       y       z     vdW  Elec       q    Type
REMARK                         _______ _______ _______ _____ _____    ______ ____
ROOT
ATOM      1  C   UNL     1      -8.248   0.330 131.029  0.00  0.00    +0.000 A 
ATOM      2  C   UNL     1      -7.855   1.308 130.116  0.00  0.00    +0.000 A 
ATOM      3  C   UNL     1      -8.405   2.586 130.220  0.00  0.00    +0.000 A 
ATOM      4  C   UNL     1      -9.480   2.831 131.090  0.00  0.00    +0.000 A 
ATOM      5  C   UNL     1      -9.986   1.782 131.852  0.00  0.00    +0.000 A 
ATOM      6  C   UNL     1      -9.368   0.554 131.831  0.00  0.00    +0.000 A 
ENDROOT
BRANCH   4   7
ATOM      7  C   UNL     1     -10.109   4.144 131.141  0.00  0.00    +0.000 A 
ATOM      8  N   UNL     1     -10.968   4.357 130.109  0.00  0.00    +0.000 NA
ATOM      9  C   UNL     1     -11.627   5.526 130.067  0.00  0.00    +0.000 A 
ATOM     10  C   UNL     1     -11.457   6.520 131.009  0.00  0.00    +0.000 A 
ATOM     11  C   UNL     1     -10.569   6.295 132.056  0.00  0.00    +0.000 A 
ATOM     12  C   UNL     1      -9.872   5.083 132.142  0.00  0.00    +0.000 A 
BRANCH  12  13
ATOM     13  C   UNL     1      -8.885   4.837 133.246  0.00  0.00    +0.000 C 
ATOM     14  F   UNL     1      -7.687   4.350 132.817  0.00  0.00    +0.000 F 
ATOM     15  F   UNL     1      -8.609   5.954 133.973  0.00  0.00    +0.000 F 
ATOM     16  F   UNL     1      -9.321   3.914 134.152  0.00  0.00    +0.000 F 
ENDBRANCH  12  13
ENDBRANCH   4   7
BRANCH   1  18
ATOM     17  O   UNL     1      -6.933  -0.953 132.424  0.00  0.00    +0.000 OA
ATOM     18  C   UNL     1      -7.553  -0.940 131.371  0.00  0.00    +0.000 C 
ATOM     19  N   UNL     1      -7.554  -2.024 130.492  0.00  0.00    +0.000 N 
BRANCH  19  20
ATOM     20  C   UNL     1      -7.139  -3.319 131.025  0.00  0.00    +0.000 C 
BRANCH  20  21
ATOM     21  C   UNL     1      -6.011  -4.042 130.356  0.00  0.00    +0.000 C 
ATOM     22  C   UNL     1      -4.573  -4.128 130.851  0.00  0.00    +0.000 C 
ATOM     23  C   UNL     1      -5.467  -5.309 130.971  0.00  0.00    +0.000 C 
ENDBRANCH  20  21
ENDBRANCH  19  20
BRANCH  19  24
ATOM     24  C   UNL     1      -7.206  -1.720 129.102  0.00  0.00    +0.000 C 
BRANCH  24  25
ATOM     25  C   UNL     1      -8.230  -1.884 127.961  0.00  0.00    +0.000 C 
ATOM     26  C   UNL     1      -8.532  -3.362 127.750  0.00  0.00    +0.000 C 
ATOM     27  C   UNL     1      -8.785  -3.453 126.270  0.00  0.00    +0.000 C 
ATOM     28  C   UNL     1      -7.875  -2.397 125.702  0.00  0.00    +0.000 C 
ATOM     29  O   UNL     1      -7.808  -1.382 126.691  0.00  0.00    +0.000 OA
ENDBRANCH  24  25
ENDBRANCH  19  24
ENDBRANCH   1  18
TORSDOF 7
ENDMDL
MODEL 8
REMARK VINA RESULT:      -6.9      3.727      8.151
REMARK  Name = CHEMBL481730
REMARK  7 active torsions:
REMARK  status: ('A' for Active; 'I' for Inactive)
REMARK    1  A    between atoms: C_2  and  C_3
REMARK    2  A    between atoms: C_6  and  C_7
REMARK    3  A    between atoms: C_12  and  C_13
REMARK    4  A    between atoms: N_19  and  C_20
REMARK    5  A    between atoms: N_19  and  C_24
REMARK    6  A    between atoms: C_20  and  C_21
REMARK    7  A    between atoms: C_24  and  C_25
REMARK                            x       y       z     vdW  Elec       q    Type
REMARK                         _______ _______ _______ _____ _____    ______ ____
ROOT
ATOM      1  C   UNL     1      -7.675  -1.155 129.318  0.00  0.00    +0.000 A 
ATOM      2  C   UNL     1      -7.232  -0.143 128.466  0.00  0.00    +0.000 A 
ATOM      3  C   UNL     1      -7.406  -0.296 127.091  0.00  0.00    +0.000 A 
ATOM      4  C   UNL     1      -7.829  -1.525 126.558  0.00  0.00    +0.000 A 
ATOM      5  C   UNL     1      -8.078  -2.587 127.423  0.00  0.00    +0.000 A 
ATOM      6  C   UNL     1      -8.015  -2.398 128.784  0.00  0.00    +0.000 A 
ENDROOT
BRANCH   4   7
ATOM      7  C   UNL     1      -7.934  -1.712 125.118  0.00  0.00    +0.000 A 
ATOM      8  N   UNL     1      -9.214  -1.624 124.668  0.00  0.00    +0.000 NA
ATOM      9  C   UNL     1      -9.429  -1.755 123.349  0.00  0.00    +0.000 A 
ATOM     10  C   UNL     1      -8.418  -1.992 122.440  0.00  0.00    +0.000 A 
ATOM     11  C   UNL     1      -7.114  -2.089 122.913  0.00  0.00    +0.000 A 
ATOM     12  C   UNL     1      -6.845  -1.945 124.280  0.00  0.00    +0.000 A 
BRANCH  12  13
ATOM     13  C   UNL     1      -5.448  -2.081 124.812  0.00  0.00    +0.000 C 
ATOM     14  F   UNL     1      -5.344  -2.911 125.887  0.00  0.00    +0.000 F 
ATOM     15  F   UNL     1      -4.567  -2.541 123.882  0.00  0.00    +0.000 F 
ATOM     16  F   UNL     1      -4.929  -0.896 125.247  0.00  0.00    +0.000 F 
ENDBRANCH  12  13
ENDBRANCH   4   7
BRANCH   1  18
ATOM     17  O   UNL     1      -8.805  -0.259 131.119  0.00  0.00    +0.000 OA
ATOM     18  C   UNL     1      -7.956  -1.070 130.776  0.00  0.00    +0.000 C 
ATOM     19  N   UNL     1      -7.230  -1.825 131.698  0.00  0.00    +0.000 N 
BRANCH  19  20
ATOM     20  C   UNL     1      -7.771  -1.934 133.050  0.00  0.00    +0.000 C 
BRANCH  20  21
ATOM     21  C   UNL     1      -7.903  -3.294 133.664  0.00  0.00    +0.000 C 
ATOM     22  C   UNL     1      -7.126  -3.824 134.862  0.00  0.00    +0.000 C 
ATOM     23  C   UNL     1      -8.554  -3.443 135.017  0.00  0.00    +0.000 C 
ENDBRANCH  20  21
ENDBRANCH  19  20
BRANCH  19  24
ATOM     24  C   UNL     1      -5.773  -1.785 131.552  0.00  0.00    +0.000 C 
BRANCH  24  25
ATOM     25  C   UNL     1      -4.955  -3.062 131.281  0.00  0.00    +0.000 C 
ATOM     26  C   UNL     1      -5.858  -4.136 130.690  0.00  0.00    +0.000 C 
ATOM     27  C   UNL     1      -5.274  -5.412 131.231  0.00  0.00    +0.000 C 
ATOM     28  C   UNL     1      -4.745  -5.002 132.579  0.00  0.00    +0.000 C 
ATOM     29  O   UNL     1      -4.346  -3.648 132.434  0.00  0.00    +0.000 OA
ENDBRANCH  24  25
ENDBRANCH  19  24
ENDBRANCH   1  18
TORSDOF 7
ENDMDL
MODEL 9
REMARK VINA RESULT:      -6.7      6.270      7.717
REMARK  Name = CHEMBL481730
REMARK  7 active torsions:
REMARK  status: ('A' for Active; 'I' for Inactive)
REMARK    1  A    between atoms: C_2  and  C_3
REMARK    2  A    between atoms: C_6  and  C_7
REMARK    3  A    between atoms: C_12  and  C_13
REMARK    4  A    between atoms: N_19  and  C_20
REMARK    5  A    between atoms: N_19  and  C_24
REMARK    6  A    between atoms: C_20  and  C_21
REMARK    7  A    between atoms: C_24  and  C_25
REMARK                            x       y       z     vdW  Elec       q    Type
REMARK                         _______ _______ _______ _____ _____    ______ ____
ROOT
ATOM      1  C   UNL     1      -9.872   3.118 131.000  0.00  0.00    +0.000 A 
ATOM      2  C   UNL     1      -9.571   2.659 132.283  0.00  0.00    +0.000 A 
ATOM      3  C   UNL     1      -8.378   1.965 132.487  0.00  0.00    +0.000 A 
ATOM      4  C   UNL     1      -7.594   1.558 131.395  0.00  0.00    +0.000 A 
ATOM      5  C   UNL     1      -8.022   1.861 130.105  0.00  0.00    +0.000 A 
ATOM      6  C   UNL     1      -9.136   2.643 129.914  0.00  0.00    +0.000 A 
ENDROOT
BRANCH   4   7
ATOM      7  C   UNL     1      -6.390   0.764 131.601  0.00  0.00    +0.000 A 
ATOM      8  N   UNL     1      -5.263   1.522 131.653  0.00  0.00    +0.000 NA
ATOM      9  C   UNL     1      -4.093   0.898 131.866  0.00  0.00    +0.000 A 
ATOM     10  C   UNL     1      -3.985  -0.470 132.014  0.00  0.00    +0.000 A 
ATOM     11  C   UNL     1      -5.144  -1.236 131.951  0.00  0.00    +0.000 A 
ATOM     12  C   UNL     1      -6.385  -0.622 131.743  0.00  0.00    +0.000 A 
BRANCH  12  13
ATOM     13  C   UNL     1      -7.642  -1.436 131.638  0.00  0.00    +0.000 C 
ATOM     14  F   UNL     1      -7.435  -2.781 131.691  0.00  0.00    +0.000 F 
ATOM     15  F   UNL     1      -8.547  -1.147 132.613  0.00  0.00    +0.000 F 
ATOM     16  F   UNL     1      -8.304  -1.240 130.461  0.00  0.00    +0.000 F 
ENDBRANCH  12  13
ENDBRANCH   4   7
BRANCH   1  18
ATOM     17  O   UNL     1     -11.777   3.822 129.907  0.00  0.00    +0.000 OA
ATOM     18  C   UNL     1     -10.840   4.177 130.607  0.00  0.00    +0.000 C 
ATOM     19  N   UNL     1     -10.636   5.511 130.961  0.00  0.00    +0.000 N 
BRANCH  19  20
ATOM     20  C   UNL     1     -11.770   6.421 130.825  0.00  0.00    +0.000 C 
BRANCH  20  21
ATOM     21  C   UNL     1     -11.656   7.572 129.874  0.00  0.00    +0.000 C 
ATOM     22  C   UNL     1     -12.554   7.847 128.675  0.00  0.00    +0.000 C 
ATOM     23  C   UNL     1     -12.691   8.671 129.903  0.00  0.00    +0.000 C 
ENDBRANCH  20  21
ENDBRANCH  19  20
BRANCH  19  24
ATOM     24  C   UNL     1      -9.300   6.047 130.690  0.00  0.00    +0.000 C 
BRANCH  24  25
ATOM     25  C   UNL     1      -8.339   6.432 131.832  0.00  0.00    +0.000 C 
ATOM     26  C   UNL     1      -7.125   5.514 131.814  0.00  0.00    +0.000 C 
ATOM     27  C   UNL     1      -6.763   5.392 133.269  0.00  0.00    +0.000 C 
ATOM     28  C   UNL     1      -8.098   5.483 133.961  0.00  0.00    +0.000 C 
ATOM     29  O   UNL     1      -8.890   6.333 133.147  0.00  0.00    +0.000 OA
ENDBRANCH  24  25
ENDBRANCH  19  24
ENDBRANCH   1  18
TORSDOF 7
ENDMDL
