MODEL 1
REMARK VINA RESULT:      -9.8      0.000      0.000
REMARK  Name = CHEMBL2172293
REMARK  35 active torsions:
REMARK  status: ('A' for Active; 'I' for Inactive)
REMARK    1  A    between atoms: C_1  and  C_2
REMARK    2  A    between atoms: C_2  and  N_3
REMARK    3  A    between atoms: N_3  and  C_4
REMARK    4  A    between atoms: N_3  and  C_6
REMARK    5  A    between atoms: C_4  and  C_5
REMARK    6  A    between atoms: C_10  and  C_11
REMARK    7  A    between atoms: C_14  and  S_15
REMARK    8  A    between atoms: S_15  and  N_18
REMARK    9  A    between atoms: N_18  and  C_19
REMARK   10  A    between atoms: C_19  and  C_20
REMARK   11  A    between atoms: C_20  and  O_21
REMARK   12  A    between atoms: O_21  and  C_22
REMARK   13  A    between atoms: C_22  and  C_23
REMARK   14  A    between atoms: C_23  and  O_24
REMARK   15  A    between atoms: O_24  and  C_25
REMARK   16  A    between atoms: C_25  and  C_26
REMARK   17  A    between atoms: C_26  and  O_27
REMARK   18  A    between atoms: O_27  and  C_28
REMARK   19  A    between atoms: C_28  and  C_29
REMARK   20  A    between atoms: C_29  and  N_30
REMARK   21  A    between atoms: C_32  and  C_33
REMARK   22  A    between atoms: C_33  and  N_34
REMARK   23  A    between atoms: C_35  and  C_37
REMARK   24  A    between atoms: C_37  and  C_38
REMARK   25  A    between atoms: C_38  and  C_39
REMARK   26  A    between atoms: N_41  and  C_42
REMARK   27  A    between atoms: C_47  and  C_49
REMARK   28  A    between atoms: C_52  and  N_53
REMARK   29  A    between atoms: C_54  and  C_56
REMARK   30  A    between atoms: C_61  and  C_62
REMARK   31  A    between atoms: C_74  and  S_75
REMARK   32  A    between atoms: N_83  and  C_84
REMARK   33  A    between atoms: N_83  and  C_86
REMARK   34  A    between atoms: C_84  and  C_85
REMARK   35  A    between atoms: C_86  and  C_87
REMARK                            x       y       z     vdW  Elec       q    Type
REMARK                         _______ _______ _______ _____ _____    ______ ____
ROOT
ATOM      1  O   UNL     1      -2.737   5.348 129.533  0.00  0.00    +0.000 OA
ENDROOT
BRANCH   1   2
ATOM      2  C   UNL     1      -2.647   5.172 128.129  0.00  0.00    +0.000 C 
BRANCH   2   3
ATOM      3  C   UNL     1      -3.461   3.969 127.679  0.00  0.00    +0.000 C 
BRANCH   3   4
ATOM      4  N   UNL     1      -4.384   4.347 126.629  0.00  0.00    +0.000 N 
ATOM      5  C   UNL     1      -4.493   3.775 125.401  0.00  0.00    +0.000 A 
ATOM      6  C   UNL     1      -5.513   4.429 124.766  0.00  0.00    +0.000 A 
ATOM      7  N   UNL     1      -5.991   5.392 125.629  0.00  0.00    +0.000 NA
ATOM      8  N   UNL     1      -5.289   5.331 126.767  0.00  0.00    +0.000 NA
BRANCH   6   9
ATOM      9  C   UNL     1      -6.041   4.175 123.386  0.00  0.00    +0.000 C 
BRANCH   9  10
ATOM     10  N   UNL     1      -6.815   2.896 123.303  0.00  0.00    +0.000 N 
ATOM     11  C   UNL     1      -8.113   2.775 123.812  0.00  0.00    +0.000 C 
ATOM     12  O   UNL     1      -8.650   3.742 124.348  0.00  0.00    +0.000 OA
ATOM     13  H   UNL     1      -6.357   2.115 122.859  0.00  0.00    +0.000 HD
BRANCH  11  14
ATOM     14  C   UNL     1      -8.887   1.373 123.694  0.00  0.00    +0.000 C 
BRANCH  14  15
ATOM     15  C   UNL     1      -8.049  -0.070 124.374  0.00  0.00    +0.000 C 
BRANCH  15  16
ATOM     16  C   UNL     1      -8.672  -0.925 126.013  0.00  0.00    +0.000 C 
ATOM     17  O   UNL     1      -9.755  -1.420 125.600  0.00  0.00    +0.000 OA
ATOM     18  N   UNL     1      -7.909  -1.154 127.667  0.00  0.00    +0.000 N 
ATOM     19  H   UNL     1      -7.397  -0.290 127.364  0.00  0.00    +0.000 HD
BRANCH  18  20
ATOM     20  C   UNL     1      -7.785  -1.689 129.635  0.00  0.00    +0.000 C 
ATOM     21  C   UNL     1      -6.773  -2.421 128.987  0.00  0.00    +0.000 C 
ATOM     22  C   UNL     1      -6.667  -1.437 130.198  0.00  0.00    +0.000 C 
ATOM     23  C   UNL     1      -5.962  -2.495 130.763  0.00  0.00    +0.000 C 
ATOM     24  N   UNL     1      -5.850  -1.473 132.061  0.00  0.00    +0.000 N 
ATOM     25  C   UNL     1      -6.796  -0.350 132.713  0.00  0.00    +0.000 C 
ATOM     26  O   UNL     1      -6.909  -0.170 133.936  0.00  0.00    +0.000 OA
ATOM     27  C   UNL     1      -6.313  -2.593 132.532  0.00  0.00    +0.000 A 
ATOM     28  C   UNL     1      -4.999  -3.666 132.885  0.00  0.00    +0.000 A 
ATOM     29  C   UNL     1      -4.906  -4.729 133.710  0.00  0.00    +0.000 A 
ATOM     30  C   UNL     1      -6.042  -4.493 134.334  0.00  0.00    +0.000 A 
ATOM     31  C   UNL     1      -7.268  -3.478 133.349  0.00  0.00    +0.000 A 
ATOM     32  C   UNL     1      -7.770  -2.539 131.801  0.00  0.00    +0.000 A 
BRANCH  25  33
ATOM     33  C   UNL     1      -7.513   0.676 131.804  0.00  0.00    +0.000 A 
ATOM     34  C   UNL     1      -7.003   1.660 130.861  0.00  0.00    +0.000 A 
ATOM     35  C   UNL     1      -7.516   2.982 130.858  0.00  0.00    +0.000 A 
ATOM     36  C   UNL     1      -8.776   3.164 131.336  0.00  0.00    +0.000 A 
ATOM     37  C   UNL     1      -9.423   2.006 131.764  0.00  0.00    +0.000 A 
ATOM     38  C   UNL     1      -8.798   0.838 132.165  0.00  0.00    +0.000 A 
BRANCH  36  39
ATOM     39  N   UNL     1      -9.400   4.424 131.257  0.00  0.00    +0.000 N 
ATOM     40  C   UNL     1     -10.600   4.592 130.587  0.00  0.00    +0.000 C 
ATOM     41  O   UNL     1     -11.243   3.689 130.064  0.00  0.00    +0.000 OA
ATOM     42  H   UNL     1      -8.952   5.226 131.725  0.00  0.00    +0.000 HD
BRANCH  40  43
ATOM     43  C   UNL     1     -11.179   5.950 130.501  0.00  0.00    +0.000 A 
ATOM     44  C   UNL     1     -12.069   6.416 131.464  0.00  0.00    +0.000 A 
ATOM     45  C   UNL     1     -12.853   7.537 131.202  0.00  0.00    +0.000 A 
ATOM     46  C   UNL     1     -12.564   8.339 130.114  0.00  0.00    +0.000 A 
ATOM     47  C   UNL     1     -11.467   8.032 129.317  0.00  0.00    +0.000 A 
ATOM     48  C   UNL     1     -10.833   6.788 129.431  0.00  0.00    +0.000 A 
ATOM     49  C   UNL     1      -9.854   6.344 128.384  0.00  0.00    +0.000 C 
ENDBRANCH  40  43
ENDBRANCH  36  39
ENDBRANCH  25  33
ENDBRANCH  18  20
ENDBRANCH  15  16
ENDBRANCH  14  15
ENDBRANCH  11  14
ENDBRANCH   9  10
ENDBRANCH   6   9
ENDBRANCH   3   4
ENDBRANCH   2   3
ENDBRANCH   1   2
BRANCH   1  50
ATOM     50  C   UNL     1      -3.657   4.398 130.070  0.00  0.00    +0.000 C 
BRANCH  50  51
ATOM     51  C   UNL     1      -3.699   4.538 131.574  0.00  0.00    +0.000 C 
BRANCH  51  52
ATOM     52  O   UNL     1      -2.567   3.889 132.139  0.00  0.00    +0.000 OA
BRANCH  52  53
ATOM     53  C   UNL     1      -2.981   3.097 133.251  0.00  0.00    +0.000 C 
BRANCH  53  54
ATOM     54  C   UNL     1      -3.345   1.709 132.775  0.00  0.00    +0.000 C 
BRANCH  54  55
ATOM     55  O   UNL     1      -3.817   0.936 133.875  0.00  0.00    +0.000 OA
BRANCH  55  56
ATOM     56  C   UNL     1      -3.183  -0.344 133.874  0.00  0.00    +0.000 C 
BRANCH  56  57
ATOM     57  C   UNL     1      -3.229  -0.929 135.277  0.00  0.00    +0.000 C 
BRANCH  57  58
ATOM     58  N   UNL     1      -2.821   0.071 136.300  0.00  0.00    +0.000 NA
ATOM     59  H   UNL     1      -1.952  -0.227 136.755  0.00  0.00    +0.000 HD
BRANCH  58  60
ATOM     60  S   UNL     1      -4.070   0.325 137.445  0.00  0.00    +0.000 S 
ATOM     61  O   UNL     1      -3.490   0.072 138.749  0.00  0.00    +0.000 OA
ATOM     62  O   UNL     1      -5.232  -0.424 137.013  0.00  0.00    +0.000 OA
BRANCH  60  66
ATOM     63  C   UNL     1      -4.791   4.843 137.049  0.00  0.00    +0.000 A 
ATOM     64  C   UNL     1      -3.922   4.308 138.025  0.00  0.00    +0.000 A 
ATOM     65  C   UNL     1      -3.659   2.939 138.077  0.00  0.00    +0.000 A 
ATOM     66  C   UNL     1      -4.462   2.071 137.346  0.00  0.00    +0.000 A 
ATOM     67  C   UNL     1      -5.501   2.596 136.551  0.00  0.00    +0.000 A 
ATOM     68  C   UNL     1      -5.572   3.983 136.279  0.00  0.00    +0.000 A 
BRANCH  63  73
ATOM     69  C   UNL     1      -7.426   8.896 138.925  0.00  0.00    +0.000 A 
ATOM     70  C   UNL     1      -7.478   7.506 139.067  0.00  0.00    +0.000 A 
ATOM     71  C   UNL     1      -6.599   6.670 138.418  0.00  0.00    +0.000 A 
ATOM     72  C   UNL     1      -5.644   7.205 137.578  0.00  0.00    +0.000 A 
ATOM     73  C   UNL     1      -4.784   6.290 136.840  0.00  0.00    +0.000 A 
ATOM     74  C   UNL     1      -3.888   6.845 136.016  0.00  0.00    +0.000 A 
ATOM     75  C   UNL     1      -2.914   6.044 135.299  0.00  0.00    +0.000 A 
ATOM     76  C   UNL     1      -1.906   6.553 134.605  0.00  0.00    +0.000 A 
ATOM     77  C   UNL     1      -1.782   8.003 134.470  0.00  0.00    +0.000 A 
ATOM     78  N   UNL     1      -0.864   8.523 133.715  0.00  0.00    +0.000 N 
ATOM     79  C   UNL     1      -2.796   8.747 135.232  0.00  0.00    +0.000 A 
ATOM     80  C   UNL     1      -3.761   8.258 135.970  0.00  0.00    +0.000 A 
ATOM     81  O   UNL     1      -4.599   9.139 136.631  0.00  0.00    +0.000 OA
ATOM     82  C   UNL     1      -5.547   8.582 137.431  0.00  0.00    +0.000 A 
ATOM     83  C   UNL     1      -6.436   9.423 138.087  0.00  0.00    +0.000 A 
BRANCH  78  84
ATOM     84  C   UNL     1      -0.684  10.001 133.480  0.00  0.00    +0.000 C 
ATOM     85  C   UNL     1       0.509  10.575 134.150  0.00  0.00    +0.000 C 
ENDBRANCH  78  84
BRANCH  78  86
ATOM     86  C   UNL     1       0.100   7.596 133.001  0.00  0.00    +0.000 C 
ATOM     87  C   UNL     1      -0.587   6.812 131.919  0.00  0.00    +0.000 C 
ENDBRANCH  78  86
BRANCH  69  88
ATOM     88  N   UNL     1      -8.335   9.716 139.605  0.00  0.00    +0.000 N 
BRANCH  88  89
ATOM     89  C   UNL     1      -9.736   9.695 139.159  0.00  0.00    +0.000 C 
ATOM     90  C   UNL     1      -9.967   9.280 137.733  0.00  0.00    +0.000 C 
ENDBRANCH  88  89
BRANCH  88  92
ATOM     91  C   UNL     1      -7.822   9.884 142.072  0.00  0.00    +0.000 C 
ATOM     92  C   UNL     1      -7.799  10.528 140.715  0.00  0.00    +0.000 C 
ENDBRANCH  88  92
ENDBRANCH  69  88
ENDBRANCH  63  73
BRANCH  68  93
ATOM     93  S   UNL     1      -6.739   4.632 134.919  0.00  0.00    +0.000 S 
ATOM     94  O   UNL     1      -5.817   5.330 134.040  0.00  0.00    +0.000 OA
ATOM     95  O   UNL     1      -7.315   3.384 134.422  0.00  0.00    +0.000 OA
ATOM     96  O   UNL     1      -7.727   5.528 135.512  0.00  0.00    +0.000 OA
ENDBRANCH  68  93
ENDBRANCH  60  66
ENDBRANCH  58  60
ENDBRANCH  57  58
ENDBRANCH  56  57
ENDBRANCH  55  56
ENDBRANCH  54  55
ENDBRANCH  53  54
ENDBRANCH  52  53
ENDBRANCH  51  52
ENDBRANCH  50  51
ENDBRANCH   1  50
TORSDOF 30
ENDMDL
MODEL 2
REMARK VINA RESULT:      -9.7      2.713     10.901
REMARK  Name = CHEMBL2172293
REMARK  35 active torsions:
REMARK  status: ('A' for Active; 'I' for Inactive)
REMARK    1  A    between atoms: C_1  and  C_2
REMARK    2  A    between atoms: C_2  and  N_3
REMARK    3  A    between atoms: N_3  and  C_4
REMARK    4  A    between atoms: N_3  and  C_6
REMARK    5  A    between atoms: C_4  and  C_5
REMARK    6  A    between atoms: C_10  and  C_11
REMARK    7  A    between atoms: C_14  and  S_15
REMARK    8  A    between atoms: S_15  and  N_18
REMARK    9  A    between atoms: N_18  and  C_19
REMARK   10  A    between atoms: C_19  and  C_20
REMARK   11  A    between atoms: C_20  and  O_21
REMARK   12  A    between atoms: O_21  and  C_22
REMARK   13  A    between atoms: C_22  and  C_23
REMARK   14  A    between atoms: C_23  and  O_24
REMARK   15  A    between atoms: O_24  and  C_25
REMARK   16  A    between atoms: C_25  and  C_26
REMARK   17  A    between atoms: C_26  and  O_27
REMARK   18  A    between atoms: O_27  and  C_28
REMARK   19  A    between atoms: C_28  and  C_29
REMARK   20  A    between atoms: C_29  and  N_30
REMARK   21  A    between atoms: C_32  and  C_33
REMARK   22  A    between atoms: C_33  and  N_34
REMARK   23  A    between atoms: C_35  and  C_37
REMARK   24  A    between atoms: C_37  and  C_38
REMARK   25  A    between atoms: C_38  and  C_39
REMARK   26  A    between atoms: N_41  and  C_42
REMARK   27  A    between atoms: C_47  and  C_49
REMARK   28  A    between atoms: C_52  and  N_53
REMARK   29  A    between atoms: C_54  and  C_56
REMARK   30  A    between atoms: C_61  and  C_62
REMARK   31  A    between atoms: C_74  and  S_75
REMARK   32  A    between atoms: N_83  and  C_84
REMARK   33  A    between atoms: N_83  and  C_86
REMARK   34  A    between atoms: C_84  and  C_85
REMARK   35  A    between atoms: C_86  and  C_87
REMARK                            x       y       z     vdW  Elec       q    Type
REMARK                         _______ _______ _______ _____ _____    ______ ____
ROOT
ATOM      1  O   UNL     1      -6.588   1.822 124.738  0.00  0.00    +0.000 OA
ENDROOT
BRANCH   1   2
ATOM      2  C   UNL     1      -6.644   3.060 125.427  0.00  0.00    +0.000 C 
BRANCH   2   3
ATOM      3  C   UNL     1      -6.794   2.842 126.924  0.00  0.00    +0.000 C 
BRANCH   3   4
ATOM      4  N   UNL     1      -7.697   3.824 127.488  0.00  0.00    +0.000 N 
ATOM      5  C   UNL     1      -8.097   3.905 128.785  0.00  0.00    +0.000 A 
ATOM      6  C   UNL     1      -8.913   5.001 128.863  0.00  0.00    +0.000 A 
ATOM      7  N   UNL     1      -8.993   5.551 127.601  0.00  0.00    +0.000 NA
ATOM      8  N   UNL     1      -8.243   4.819 126.769  0.00  0.00    +0.000 NA
BRANCH   6   9
ATOM      9  C   UNL     1      -9.611   5.535 130.077  0.00  0.00    +0.000 C 
BRANCH   9  10
ATOM     10  N   UNL     1      -9.523   4.595 131.239  0.00  0.00    +0.000 N 
ATOM     11  C   UNL     1      -9.527   5.044 132.564  0.00  0.00    +0.000 C 
ATOM     12  O   UNL     1      -9.604   6.248 132.799  0.00  0.00    +0.000 OA
ATOM     13  H   UNL     1      -9.461   3.611 131.026  0.00  0.00    +0.000 HD
BRANCH  11  14
ATOM     14  C   UNL     1      -9.426   3.984 133.766  0.00  0.00    +0.000 C 
BRANCH  14  15
ATOM     15  C   UNL     1      -7.776   3.646 134.407  0.00  0.00    +0.000 C 
BRANCH  15  16
ATOM     16  C   UNL     1      -6.803   4.975 135.452  0.00  0.00    +0.000 C 
ATOM     17  O   UNL     1      -5.677   4.910 134.890  0.00  0.00    +0.000 OA
ATOM     18  N   UNL     1      -7.319   6.151 136.764  0.00  0.00    +0.000 N 
ATOM     19  H   UNL     1      -8.057   5.417 136.897  0.00  0.00    +0.000 HD
BRANCH  18  20
ATOM     20  C   UNL     1      -7.113   7.563 138.226  0.00  0.00    +0.000 C 
ATOM     21  C   UNL     1      -7.550   6.403 138.891  0.00  0.00    +0.000 C 
ATOM     22  C   UNL     1      -6.279   7.276 139.147  0.00  0.00    +0.000 C 
ATOM     23  C   UNL     1      -6.737   7.233 140.460  0.00  0.00    +0.000 C 
ATOM     24  N   UNL     1      -5.402   8.170 140.752  0.00  0.00    +0.000 N 
ATOM     25  C   UNL     1      -4.601   9.297 139.936  0.00  0.00    +0.000 C 
ATOM     26  O   UNL     1      -4.106  10.307 140.462  0.00  0.00    +0.000 OA
ATOM     27  C   UNL     1      -6.404   8.808 141.279  0.00  0.00    +0.000 A 
ATOM     28  C   UNL     1      -6.701   8.210 142.878  0.00  0.00    +0.000 A 
ATOM     29  C   UNL     1      -7.324   8.762 143.940  0.00  0.00    +0.000 A 
ATOM     30  C   UNL     1      -7.372   9.976 143.431  0.00  0.00    +0.000 A 
ATOM     31  C   UNL     1      -7.288  10.034 141.562  0.00  0.00    +0.000 A 
ATOM     32  C   UNL     1      -7.162   9.192 139.887  0.00  0.00    +0.000 A 
BRANCH  25  33
ATOM     33  C   UNL     1      -4.282   9.085 138.437  0.00  0.00    +0.000 A 
ATOM     34  C   UNL     1      -3.429   8.125 137.753  0.00  0.00    +0.000 A 
ATOM     35  C   UNL     1      -2.550   8.553 136.726  0.00  0.00    +0.000 A 
ATOM     36  C   UNL     1      -2.877   9.691 136.058  0.00  0.00    +0.000 A 
ATOM     37  C   UNL     1      -4.064  10.298 136.462  0.00  0.00    +0.000 A 
ATOM     38  C   UNL     1      -4.666  10.140 137.698  0.00  0.00    +0.000 A 
BRANCH  36  39
ATOM     39  N   UNL     1      -2.120  10.116 134.949  0.00  0.00    +0.000 N 
ATOM     40  C   UNL     1      -1.172  11.117 135.065  0.00  0.00    +0.000 C 
ATOM     41  O   UNL     1      -0.865  11.674 136.113  0.00  0.00    +0.000 OA
ATOM     42  H   UNL     1      -2.274   9.652 134.041  0.00  0.00    +0.000 HD
BRANCH  40  43
ATOM     43  C   UNL     1      -0.444  11.548 133.852  0.00  0.00    +0.000 A 
ATOM     44  C   UNL     1       0.770  10.967 133.495  0.00  0.00    +0.000 A 
ATOM     45  C   UNL     1       1.595  11.596 132.565  0.00  0.00    +0.000 A 
ATOM     46  C   UNL     1       1.101  12.640 131.804  0.00  0.00    +0.000 A 
ATOM     47  C   UNL     1      -0.227  13.021 131.953  0.00  0.00    +0.000 A 
ATOM     48  C   UNL     1      -0.978  12.561 133.043  0.00  0.00    +0.000 A 
ATOM     49  C   UNL     1      -2.299  13.197 133.368  0.00  0.00    +0.000 C 
ENDBRANCH  40  43
ENDBRANCH  36  39
ENDBRANCH  25  33
ENDBRANCH  18  20
ENDBRANCH  15  16
ENDBRANCH  14  15
ENDBRANCH  11  14
ENDBRANCH   9  10
ENDBRANCH   6   9
ENDBRANCH   3   4
ENDBRANCH   2   3
ENDBRANCH   1   2
BRANCH   1  50
ATOM     50  C   UNL     1      -7.106   1.992 123.418  0.00  0.00    +0.000 C 
BRANCH  50  51
ATOM     51  C   UNL     1      -8.423   2.728 123.489  0.00  0.00    +0.000 C 
BRANCH  51  52
ATOM     52  O   UNL     1      -9.335   2.154 122.560  0.00  0.00    +0.000 OA
BRANCH  52  53
ATOM     53  C   UNL     1     -10.081   1.123 123.203  0.00  0.00    +0.000 C 
BRANCH  53  54
ATOM     54  C   UNL     1     -10.040  -0.131 122.360  0.00  0.00    +0.000 C 
BRANCH  54  55
ATOM     55  O   UNL     1      -9.597  -1.227 123.155  0.00  0.00    +0.000 OA
BRANCH  55  56
ATOM     56  C   UNL     1      -8.227  -1.512 122.864  0.00  0.00    +0.000 C 
BRANCH  56  57
ATOM     57  C   UNL     1      -7.591  -2.197 124.064  0.00  0.00    +0.000 C 
BRANCH  57  58
ATOM     58  N   UNL     1      -7.128  -1.209 125.075  0.00  0.00    +0.000 NA
ATOM     59  H   UNL     1      -6.180  -1.444 125.387  0.00  0.00    +0.000 HD
BRANCH  58  60
ATOM     60  S   UNL     1      -8.217  -1.123 126.395  0.00  0.00    +0.000 S 
ATOM     61  O   UNL     1      -8.777  -2.450 126.554  0.00  0.00    +0.000 OA
ATOM     62  O   UNL     1      -9.093   0.011 126.180  0.00  0.00    +0.000 OA
BRANCH  60  66
ATOM     63  C   UNL     1      -5.530   0.034 129.936  0.00  0.00    +0.000 A 
ATOM     64  C   UNL     1      -4.997  -0.442 128.718  0.00  0.00    +0.000 A 
ATOM     65  C   UNL     1      -5.827  -0.714 127.631  0.00  0.00    +0.000 A 
ATOM     66  C   UNL     1      -7.202  -0.779 127.832  0.00  0.00    +0.000 A 
ATOM     67  C   UNL     1      -7.722  -0.540 129.120  0.00  0.00    +0.000 A 
ATOM     68  C   UNL     1      -6.909   0.015 130.136  0.00  0.00    +0.000 A 
BRANCH  63  73
ATOM     69  C   UNL     1      -3.735   4.758 131.098  0.00  0.00    +0.000 A 
ATOM     70  C   UNL     1      -4.562   4.208 130.114  0.00  0.00    +0.000 A 
ATOM     71  C   UNL     1      -4.868   2.866 130.081  0.00  0.00    +0.000 A 
ATOM     72  C   UNL     1      -4.331   2.022 131.031  0.00  0.00    +0.000 A 
ATOM     73  C   UNL     1      -4.605   0.596 130.919  0.00  0.00    +0.000 A 
ATOM     74  C   UNL     1      -4.046  -0.195 131.842  0.00  0.00    +0.000 A 
ATOM     75  C   UNL     1      -4.321  -1.619 131.893  0.00  0.00    +0.000 A 
ATOM     76  C   UNL     1      -3.927  -2.412 132.880  0.00  0.00    +0.000 A 
ATOM     77  C   UNL     1      -3.102  -1.869 133.957  0.00  0.00    +0.000 A 
ATOM     78  N   UNL     1      -2.623  -2.645 134.880  0.00  0.00    +0.000 N 
ATOM     79  C   UNL     1      -2.877  -0.421 133.844  0.00  0.00    +0.000 A 
ATOM     80  C   UNL     1      -3.309   0.386 132.907  0.00  0.00    +0.000 A 
ATOM     81  O   UNL     1      -3.004   1.733 133.002  0.00  0.00    +0.000 OA
ATOM     82  C   UNL     1      -3.526   2.537 132.037  0.00  0.00    +0.000 A 
ATOM     83  C   UNL     1      -3.218   3.890 132.067  0.00  0.00    +0.000 A 
BRANCH  78  84
ATOM     84  C   UNL     1      -1.730  -2.186 136.005  0.00  0.00    +0.000 C 
ATOM     85  C   UNL     1      -2.467  -1.746 137.215  0.00  0.00    +0.000 C 
ENDBRANCH  78  84
BRANCH  78  86
ATOM     86  C   UNL     1      -2.963  -4.121 134.837  0.00  0.00    +0.000 C 
ATOM     87  C   UNL     1      -1.835  -4.962 135.365  0.00  0.00    +0.000 C 
ENDBRANCH  78  86
BRANCH  69  88
ATOM     88  N   UNL     1      -3.449   6.129 131.103  0.00  0.00    +0.000 N 
BRANCH  88  89
ATOM     89  C   UNL     1      -3.251   6.778 132.408  0.00  0.00    +0.000 C 
ATOM     90  C   UNL     1      -2.539   8.101 132.384  0.00  0.00    +0.000 C 
ENDBRANCH  88  89
BRANCH  88  92
ATOM     91  C   UNL     1      -2.117   6.543 128.997  0.00  0.00    +0.000 C 
ATOM     92  C   UNL     1      -3.368   6.798 129.789  0.00  0.00    +0.000 C 
ENDBRANCH  88  92
ENDBRANCH  69  88
ENDBRANCH  63  73
BRANCH  68  93
ATOM     93  S   UNL     1      -7.701   0.676 131.739  0.00  0.00    +0.000 S 
ATOM     94  O   UNL     1      -7.699   2.110 131.506  0.00  0.00    +0.000 OA
ATOM     95  O   UNL     1      -8.997   0.000 131.712  0.00  0.00    +0.000 OA
ATOM     96  O   UNL     1      -6.876   0.297 132.882  0.00  0.00    +0.000 OA
ENDBRANCH  68  93
ENDBRANCH  60  66
ENDBRANCH  58  60
ENDBRANCH  57  58
ENDBRANCH  56  57
ENDBRANCH  55  56
ENDBRANCH  54  55
ENDBRANCH  53  54
ENDBRANCH  52  53
ENDBRANCH  51  52
ENDBRANCH  50  51
ENDBRANCH   1  50
TORSDOF 30
ENDMDL
MODEL 3
REMARK VINA RESULT:      -9.6      2.732     11.391
REMARK  Name = CHEMBL2172293
REMARK  35 active torsions:
REMARK  status: ('A' for Active; 'I' for Inactive)
REMARK    1  A    between atoms: C_1  and  C_2
REMARK    2  A    between atoms: C_2  and  N_3
REMARK    3  A    between atoms: N_3  and  C_4
REMARK    4  A    between atoms: N_3  and  C_6
REMARK    5  A    between atoms: C_4  and  C_5
REMARK    6  A    between atoms: C_10  and  C_11
REMARK    7  A    between atoms: C_14  and  S_15
REMARK    8  A    between atoms: S_15  and  N_18
REMARK    9  A    between atoms: N_18  and  C_19
REMARK   10  A    between atoms: C_19  and  C_20
REMARK   11  A    between atoms: C_20  and  O_21
REMARK   12  A    between atoms: O_21  and  C_22
REMARK   13  A    between atoms: C_22  and  C_23
REMARK   14  A    between atoms: C_23  and  O_24
REMARK   15  A    between atoms: O_24  and  C_25
REMARK   16  A    between atoms: C_25  and  C_26
REMARK   17  A    between atoms: C_26  and  O_27
REMARK   18  A    between atoms: O_27  and  C_28
REMARK   19  A    between atoms: C_28  and  C_29
REMARK   20  A    between atoms: C_29  and  N_30
REMARK   21  A    between atoms: C_32  and  C_33
REMARK   22  A    between atoms: C_33  and  N_34
REMARK   23  A    between atoms: C_35  and  C_37
REMARK   24  A    between atoms: C_37  and  C_38
REMARK   25  A    between atoms: C_38  and  C_39
REMARK   26  A    between atoms: N_41  and  C_42
REMARK   27  A    between atoms: C_47  and  C_49
REMARK   28  A    between atoms: C_52  and  N_53
REMARK   29  A    between atoms: C_54  and  C_56
REMARK   30  A    between atoms: C_61  and  C_62
REMARK   31  A    between atoms: C_74  and  S_75
REMARK   32  A    between atoms: N_83  and  C_84
REMARK   33  A    between atoms: N_83  and  C_86
REMARK   34  A    between atoms: C_84  and  C_85
REMARK   35  A    between atoms: C_86  and  C_87
REMARK                            x       y       z     vdW  Elec       q    Type
REMARK                         _______ _______ _______ _____ _____    ______ ____
ROOT
ATOM      1  O   UNL     1      -8.991   5.723 127.101  0.00  0.00    +0.000 OA
ENDROOT
BRANCH   1   2
ATOM      2  C   UNL     1     -10.123   6.504 126.756  0.00  0.00    +0.000 C 
BRANCH   2   3
ATOM      3  C   UNL     1     -10.524   7.417 127.904  0.00  0.00    +0.000 C 
BRANCH   3   4
ATOM      4  N   UNL     1     -10.514   6.688 129.156  0.00  0.00    +0.000 N 
ATOM      5  C   UNL     1      -9.744   6.956 130.244  0.00  0.00    +0.000 A 
ATOM      6  C   UNL     1     -10.098   6.039 131.194  0.00  0.00    +0.000 A 
ATOM      7  N   UNL     1     -11.071   5.229 130.650  0.00  0.00    +0.000 NA
ATOM      8  N   UNL     1     -11.316   5.638 129.400  0.00  0.00    +0.000 NA
BRANCH   6   9
ATOM      9  C   UNL     1      -9.548   5.905 132.583  0.00  0.00    +0.000 C 
BRANCH   9  10
ATOM     10  N   UNL     1      -8.477   4.864 132.670  0.00  0.00    +0.000 N 
ATOM     11  C   UNL     1      -8.597   3.735 133.489  0.00  0.00    +0.000 C 
ATOM     12  O   UNL     1      -9.611   3.580 134.165  0.00  0.00    +0.000 OA
ATOM     13  H   UNL     1      -7.653   5.009 132.105  0.00  0.00    +0.000 HD
BRANCH  11  14
ATOM     14  C   UNL     1      -7.409   2.657 133.539  0.00  0.00    +0.000 C 
BRANCH  14  15
ATOM     15  C   UNL     1      -6.104   2.951 134.747  0.00  0.00    +0.000 C 
BRANCH  15  16
ATOM     16  C   UNL     1      -5.742   4.740 135.432  0.00  0.00    +0.000 C 
ATOM     17  O   UNL     1      -4.922   5.142 134.563  0.00  0.00    +0.000 OA
ATOM     18  N   UNL     1      -6.455   5.714 136.815  0.00  0.00    +0.000 N 
ATOM     19  H   UNL     1      -6.646   4.747 137.175  0.00  0.00    +0.000 HD
BRANCH  18  20
ATOM     20  C   UNL     1      -6.663   7.269 138.124  0.00  0.00    +0.000 C 
ATOM     21  C   UNL     1      -6.939   6.112 138.876  0.00  0.00    +0.000 C 
ATOM     22  C   UNL     1      -5.885   7.238 139.135  0.00  0.00    +0.000 C 
ATOM     23  C   UNL     1      -6.455   7.228 140.404  0.00  0.00    +0.000 C 
ATOM     24  N   UNL     1      -5.354   8.432 140.695  0.00  0.00    +0.000 N 
ATOM     25  C   UNL     1      -4.701   9.614 139.826  0.00  0.00    +0.000 C 
ATOM     26  O   UNL     1      -4.459  10.746 140.275  0.00  0.00    +0.000 OA
ATOM     27  C   UNL     1      -6.506   8.907 141.068  0.00  0.00    +0.000 A 
ATOM     28  C   UNL     1      -6.842   8.414 142.695  0.00  0.00    +0.000 A 
ATOM     29  C   UNL     1      -7.659   8.929 143.636  0.00  0.00    +0.000 A 
ATOM     30  C   UNL     1      -7.883  10.057 142.994  0.00  0.00    +0.000 A 
ATOM     31  C   UNL     1      -7.627   9.956 141.143  0.00  0.00    +0.000 A 
ATOM     32  C   UNL     1      -7.180   9.004 139.586  0.00  0.00    +0.000 A 
BRANCH  25  33
ATOM     33  C   UNL     1      -4.202   9.329 138.390  0.00  0.00    +0.000 A 
ATOM     34  C   UNL     1      -3.086   8.540 137.889  0.00  0.00    +0.000 A 
ATOM     35  C   UNL     1      -2.239   9.060 136.878  0.00  0.00    +0.000 A 
ATOM     36  C   UNL     1      -2.759  10.007 136.053  0.00  0.00    +0.000 A 
ATOM     37  C   UNL     1      -4.089  10.345 136.298  0.00  0.00    +0.000 A 
ATOM     38  C   UNL     1      -4.751  10.176 137.502  0.00  0.00    +0.000 A 
BRANCH  36  39
ATOM     39  N   UNL     1      -2.022  10.485 134.952  0.00  0.00    +0.000 N 
ATOM     40  C   UNL     1      -1.405  11.723 134.982  0.00  0.00    +0.000 C 
ATOM     41  O   UNL     1      -1.389  12.476 135.950  0.00  0.00    +0.000 OA
ATOM     42  H   UNL     1      -1.935   9.883 134.119  0.00  0.00    +0.000 HD
BRANCH  40  43
ATOM     43  C   UNL     1      -0.684  12.186 133.776  0.00  0.00    +0.000 A 
ATOM     44  C   UNL     1      -1.343  12.879 132.764  0.00  0.00    +0.000 A 
ATOM     45  C   UNL     1      -0.750  13.009 131.511  0.00  0.00    +0.000 A 
ATOM     46  C   UNL     1       0.587  12.693 131.346  0.00  0.00    +0.000 A 
ATOM     47  C   UNL     1       1.328  12.285 132.449  0.00  0.00    +0.000 A 
ATOM     48  C   UNL     1       0.687  11.923 133.641  0.00  0.00    +0.000 A 
ATOM     49  C   UNL     1       1.449  11.208 134.718  0.00  0.00    +0.000 C 
ENDBRANCH  40  43
ENDBRANCH  36  39
ENDBRANCH  25  33
ENDBRANCH  18  20
ENDBRANCH  15  16
ENDBRANCH  14  15
ENDBRANCH  11  14
ENDBRANCH   9  10
ENDBRANCH   6   9
ENDBRANCH   3   4
ENDBRANCH   2   3
ENDBRANCH   1   2
BRANCH   1  50
ATOM     50  C   UNL     1      -8.351   5.268 125.909  0.00  0.00    +0.000 C 
BRANCH  50  51
ATOM     51  C   UNL     1      -7.213   4.344 126.275  0.00  0.00    +0.000 C 
BRANCH  51  52
ATOM     52  O   UNL     1      -7.117   3.308 125.305  0.00  0.00    +0.000 OA
BRANCH  52  53
ATOM     53  C   UNL     1      -6.224   3.710 124.268  0.00  0.00    +0.000 C 
BRANCH  53  54
ATOM     54  C   UNL     1      -6.880   3.490 122.923  0.00  0.00    +0.000 C 
BRANCH  54  55
ATOM     55  O   UNL     1      -8.296   3.486 123.078  0.00  0.00    +0.000 OA
BRANCH  55  56
ATOM     56  C   UNL     1      -8.885   2.609 122.116  0.00  0.00    +0.000 C 
BRANCH  56  57
ATOM     57  C   UNL     1      -9.656   1.515 122.839  0.00  0.00    +0.000 C 
BRANCH  57  58
ATOM     58  N   UNL     1      -9.229   1.392 124.259  0.00  0.00    +0.000 NA
ATOM     59  H   UNL     1      -8.687   2.218 124.535  0.00  0.00    +0.000 HD
BRANCH  58  60
ATOM     60  S   UNL     1      -8.341  -0.051 124.512  0.00  0.00    +0.000 S 
ATOM     61  O   UNL     1      -7.236  -0.024 123.574  0.00  0.00    +0.000 OA
ATOM     62  O   UNL     1      -9.273  -1.158 124.498  0.00  0.00    +0.000 OA
BRANCH  60  66
ATOM     63  C   UNL     1      -6.387   0.509 128.630  0.00  0.00    +0.000 A 
ATOM     64  C   UNL     1      -5.796  -0.288 127.625  0.00  0.00    +0.000 A 
ATOM     65  C   UNL     1      -6.369  -0.382 126.357  0.00  0.00    +0.000 A 
ATOM     66  C   UNL     1      -7.663   0.088 126.166  0.00  0.00    +0.000 A 
ATOM     67  C   UNL     1      -8.353   0.671 127.248  0.00  0.00    +0.000 A 
ATOM     68  C   UNL     1      -7.668   1.023 128.436  0.00  0.00    +0.000 A 
BRANCH  63  73
ATOM     69  C   UNL     1      -3.357   4.425 130.171  0.00  0.00    +0.000 A 
ATOM     70  C   UNL     1      -4.059   4.090 129.009  0.00  0.00    +0.000 A 
ATOM     71  C   UNL     1      -4.808   2.940 128.912  0.00  0.00    +0.000 A 
ATOM     72  C   UNL     1      -4.860   2.069 129.981  0.00  0.00    +0.000 A 
ATOM     73  C   UNL     1      -5.592   0.821 129.818  0.00  0.00    +0.000 A 
ATOM     74  C   UNL     1      -5.599  -0.011 130.866  0.00  0.00    +0.000 A 
ATOM     75  C   UNL     1      -6.371  -1.239 130.859  0.00  0.00    +0.000 A 
ATOM     76  C   UNL     1      -6.541  -2.009 131.925  0.00  0.00    +0.000 A 
ATOM     77  C   UNL     1      -5.867  -1.671 133.176  0.00  0.00    +0.000 A 
ATOM     78  N   UNL     1      -5.940  -2.461 134.203  0.00  0.00    +0.000 N 
ATOM     79  C   UNL     1      -5.116  -0.409 133.109  0.00  0.00    +0.000 A 
ATOM     80  C   UNL     1      -4.986   0.392 132.081  0.00  0.00    +0.000 A 
ATOM     81  O   UNL     1      -4.250   1.554 132.237  0.00  0.00    +0.000 OA
ATOM     82  C   UNL     1      -4.196   2.380 131.159  0.00  0.00    +0.000 A 
ATOM     83  C   UNL     1      -3.440   3.541 131.253  0.00  0.00    +0.000 A 
BRANCH  78  84
ATOM     84  C   UNL     1      -5.245  -2.219 135.519  0.00  0.00    +0.000 C 
ATOM     85  C   UNL     1      -4.524  -3.405 136.044  0.00  0.00    +0.000 C 
ENDBRANCH  78  84
BRANCH  78  86
ATOM     86  C   UNL     1      -6.765  -3.726 134.089  0.00  0.00    +0.000 C 
ATOM     87  C   UNL     1      -8.221  -3.461 134.351  0.00  0.00    +0.000 C 
ENDBRANCH  78  86
BRANCH  69  88
ATOM     88  N   UNL     1      -2.608   5.606 130.235  0.00  0.00    +0.000 N 
BRANCH  88  89
ATOM     89  C   UNL     1      -2.173   6.206 128.963  0.00  0.00    +0.000 C 
ATOM     90  C   UNL     1      -2.959   7.397 128.495  0.00  0.00    +0.000 C 
ENDBRANCH  88  89
BRANCH  88  92
ATOM     91  C   UNL     1      -0.878   6.201 131.976  0.00  0.00    +0.000 C 
ATOM     92  C   UNL     1      -2.326   6.146 131.579  0.00  0.00    +0.000 C 
ENDBRANCH  88  92
ENDBRANCH  69  88
ENDBRANCH  63  73
BRANCH  68  93
ATOM     93  S   UNL     1      -8.513   2.136 129.732  0.00  0.00    +0.000 S 
ATOM     94  O   UNL     1      -9.631   2.677 128.980  0.00  0.00    +0.000 OA
ATOM     95  O   UNL     1      -8.824   1.163 130.778  0.00  0.00    +0.000 OA
ATOM     96  O   UNL     1      -7.580   3.172 130.165  0.00  0.00    +0.000 OA
ENDBRANCH  68  93
ENDBRANCH  60  66
ENDBRANCH  58  60
ENDBRANCH  57  58
ENDBRANCH  56  57
ENDBRANCH  55  56
ENDBRANCH  54  55
ENDBRANCH  53  54
ENDBRANCH  52  53
ENDBRANCH  51  52
ENDBRANCH  50  51
ENDBRANCH   1  50
TORSDOF 30
ENDMDL
MODEL 4
REMARK VINA RESULT:      -9.3      2.900     11.352
REMARK  Name = CHEMBL2172293
REMARK  35 active torsions:
REMARK  status: ('A' for Active; 'I' for Inactive)
REMARK    1  A    between atoms: C_1  and  C_2
REMARK    2  A    between atoms: C_2  and  N_3
REMARK    3  A    between atoms: N_3  and  C_4
REMARK    4  A    between atoms: N_3  and  C_6
REMARK    5  A    between atoms: C_4  and  C_5
REMARK    6  A    between atoms: C_10  and  C_11
REMARK    7  A    between atoms: C_14  and  S_15
REMARK    8  A    between atoms: S_15  and  N_18
REMARK    9  A    between atoms: N_18  and  C_19
REMARK   10  A    between atoms: C_19  and  C_20
REMARK   11  A    between atoms: C_20  and  O_21
REMARK   12  A    between atoms: O_21  and  C_22
REMARK   13  A    between atoms: C_22  and  C_23
REMARK   14  A    between atoms: C_23  and  O_24
REMARK   15  A    between atoms: O_24  and  C_25
REMARK   16  A    between atoms: C_25  and  C_26
REMARK   17  A    between atoms: C_26  and  O_27
REMARK   18  A    between atoms: O_27  and  C_28
REMARK   19  A    between atoms: C_28  and  C_29
REMARK   20  A    between atoms: C_29  and  N_30
REMARK   21  A    between atoms: C_32  and  C_33
REMARK   22  A    between atoms: C_33  and  N_34
REMARK   23  A    between atoms: C_35  and  C_37
REMARK   24  A    between atoms: C_37  and  C_38
REMARK   25  A    between atoms: C_38  and  C_39
REMARK   26  A    between atoms: N_41  and  C_42
REMARK   27  A    between atoms: C_47  and  C_49
REMARK   28  A    between atoms: C_52  and  N_53
REMARK   29  A    between atoms: C_54  and  C_56
REMARK   30  A    between atoms: C_61  and  C_62
REMARK   31  A    between atoms: C_74  and  S_75
REMARK   32  A    between atoms: N_83  and  C_84
REMARK   33  A    between atoms: N_83  and  C_86
REMARK   34  A    between atoms: C_84  and  C_85
REMARK   35  A    between atoms: C_86  and  C_87
REMARK                            x       y       z     vdW  Elec       q    Type
REMARK                         _______ _______ _______ _____ _____    ______ ____
ROOT
ATOM      1  O   UNL     1      -6.164   2.762 124.645  0.00  0.00    +0.000 OA
ENDROOT
BRANCH   1   2
ATOM      2  C   UNL     1      -6.942   3.743 125.311  0.00  0.00    +0.000 C 
BRANCH   2   3
ATOM      3  C   UNL     1      -6.868   3.563 126.818  0.00  0.00    +0.000 C 
BRANCH   3   4
ATOM      4  N   UNL     1      -7.871   4.376 127.474  0.00  0.00    +0.000 N 
ATOM      5  C   UNL     1      -8.206   4.345 128.791  0.00  0.00    +0.000 A 
ATOM      6  C   UNL     1      -9.167   5.303 128.962  0.00  0.00    +0.000 A 
ATOM      7  N   UNL     1      -9.396   5.886 127.734  0.00  0.00    +0.000 NA
ATOM      8  N   UNL     1      -8.595   5.308 126.831  0.00  0.00    +0.000 NA
BRANCH   6   9
ATOM      9  C   UNL     1      -9.866   5.678 130.234  0.00  0.00    +0.000 C 
BRANCH   9  10
ATOM     10  N   UNL     1      -9.673   4.653 131.308  0.00  0.00    +0.000 N 
ATOM     11  C   UNL     1      -9.497   5.005 132.651  0.00  0.00    +0.000 C 
ATOM     12  O   UNL     1      -9.498   6.190 132.976  0.00  0.00    +0.000 OA
ATOM     13  H   UNL     1      -9.677   3.686 131.022  0.00  0.00    +0.000 HD
BRANCH  11  14
ATOM     14  C   UNL     1      -9.291   3.857 133.755  0.00  0.00    +0.000 C 
BRANCH  14  15
ATOM     15  C   UNL     1      -7.592   3.489 134.229  0.00  0.00    +0.000 C 
BRANCH  15  16
ATOM     16  C   UNL     1      -6.671   4.537 135.591  0.00  0.00    +0.000 C 
ATOM     17  O   UNL     1      -5.519   4.032 135.510  0.00  0.00    +0.000 OA
ATOM     18  N   UNL     1      -7.182   5.970 136.619  0.00  0.00    +0.000 N 
ATOM     19  H   UNL     1      -8.125   5.545 136.443  0.00  0.00    +0.000 HD
BRANCH  18  20
ATOM     20  C   UNL     1      -7.044   7.403 138.069  0.00  0.00    +0.000 C 
ATOM     21  C   UNL     1      -7.442   6.233 138.741  0.00  0.00    +0.000 C 
ATOM     22  C   UNL     1      -6.207   7.156 139.001  0.00  0.00    +0.000 C 
ATOM     23  C   UNL     1      -6.676   7.108 140.310  0.00  0.00    +0.000 C 
ATOM     24  N   UNL     1      -5.381   8.098 140.604  0.00  0.00    +0.000 N 
ATOM     25  C   UNL     1      -4.616   9.248 139.784  0.00  0.00    +0.000 C 
ATOM     26  O   UNL     1      -4.165  10.281 140.305  0.00  0.00    +0.000 OA
ATOM     27  C   UNL     1      -6.412   8.703 141.117  0.00  0.00    +0.000 A 
ATOM     28  C   UNL     1      -6.700   8.109 142.718  0.00  0.00    +0.000 A 
ATOM     29  C   UNL     1      -7.353   8.646 143.769  0.00  0.00    +0.000 A 
ATOM     30  C   UNL     1      -7.443   9.852 143.248  0.00  0.00    +0.000 A 
ATOM     31  C   UNL     1      -7.344   9.896 141.380  0.00  0.00    +0.000 A 
ATOM     32  C   UNL     1      -7.170   9.045 139.714  0.00  0.00    +0.000 A 
BRANCH  25  33
ATOM     33  C   UNL     1      -4.276   9.034 138.291  0.00  0.00    +0.000 A 
ATOM     34  C   UNL     1      -3.447   8.047 137.616  0.00  0.00    +0.000 A 
ATOM     35  C   UNL     1      -2.530   8.447 136.611  0.00  0.00    +0.000 A 
ATOM     36  C   UNL     1      -2.800   9.602 135.945  0.00  0.00    +0.000 A 
ATOM     37  C   UNL     1      -3.971  10.252 136.330  0.00  0.00    +0.000 A 
ATOM     38  C   UNL     1      -4.604  10.109 137.553  0.00  0.00    +0.000 A 
BRANCH  36  39
ATOM     39  N   UNL     1      -2.005  10.005 134.854  0.00  0.00    +0.000 N 
ATOM     40  C   UNL     1      -1.194  11.124 134.929  0.00  0.00    +0.000 C 
ATOM     41  O   UNL     1      -1.047  11.818 135.929  0.00  0.00    +0.000 OA
ATOM     42  H   UNL     1      -2.025   9.437 133.994  0.00  0.00    +0.000 HD
BRANCH  40  43
ATOM     43  C   UNL     1      -0.419  11.520 133.733  0.00  0.00    +0.000 A 
ATOM     44  C   UNL     1       0.815  10.941 133.449  0.00  0.00    +0.000 A 
ATOM     45  C   UNL     1       1.672  11.545 132.533  0.00  0.00    +0.000 A 
ATOM     46  C   UNL     1       1.200  12.554 131.713  0.00  0.00    +0.000 A 
ATOM     47  C   UNL     1      -0.137  12.924 131.792  0.00  0.00    +0.000 A 
ATOM     48  C   UNL     1      -0.930  12.496 132.865  0.00  0.00    +0.000 A 
ATOM     49  C   UNL     1      -2.270  13.126 133.109  0.00  0.00    +0.000 C 
ENDBRANCH  40  43
ENDBRANCH  36  39
ENDBRANCH  25  33
ENDBRANCH  18  20
ENDBRANCH  15  16
ENDBRANCH  14  15
ENDBRANCH  11  14
ENDBRANCH   9  10
ENDBRANCH   6   9
ENDBRANCH   3   4
ENDBRANCH   2   3
ENDBRANCH   1   2
BRANCH   1  50
ATOM     50  C   UNL     1      -6.913   2.226 123.554  0.00  0.00    +0.000 C 
BRANCH  50  51
ATOM     51  C   UNL     1      -8.134   3.083 123.316  0.00  0.00    +0.000 C 
BRANCH  51  52
ATOM     52  O   UNL     1      -9.063   2.368 122.511  0.00  0.00    +0.000 OA
BRANCH  52  53
ATOM     53  C   UNL     1      -9.665   1.334 123.287  0.00  0.00    +0.000 C 
BRANCH  53  54
ATOM     54  C   UNL     1     -10.119   0.217 122.374  0.00  0.00    +0.000 C 
BRANCH  54  55
ATOM     55  O   UNL     1      -9.838  -1.041 122.983  0.00  0.00    +0.000 OA
BRANCH  55  56
ATOM     56  C   UNL     1      -8.564  -1.516 122.545  0.00  0.00    +0.000 C 
BRANCH  56  57
ATOM     57  C   UNL     1      -8.131  -2.678 123.424  0.00  0.00    +0.000 C 
BRANCH  57  58
ATOM     58  N   UNL     1      -7.469  -2.205 124.670  0.00  0.00    +0.000 NA
ATOM     59  H   UNL     1      -6.529  -2.609 124.742  0.00  0.00    +0.000 HD
BRANCH  58  60
ATOM     60  S   UNL     1      -8.415  -2.574 126.049  0.00  0.00    +0.000 S 
ATOM     61  O   UNL     1      -8.400  -4.017 126.185  0.00  0.00    +0.000 OA
ATOM     62  O   UNL     1      -9.677  -1.873 125.927  0.00  0.00    +0.000 OA
BRANCH  60  66
ATOM     63  C   UNL     1      -6.348  -0.935 129.808  0.00  0.00    +0.000 A 
ATOM     64  C   UNL     1      -7.538  -0.367 129.303  0.00  0.00    +0.000 A 
ATOM     65  C   UNL     1      -8.189  -0.929 128.205  0.00  0.00    +0.000 A 
ATOM     66  C   UNL     1      -7.523  -1.881 127.441  0.00  0.00    +0.000 A 
ATOM     67  C   UNL     1      -6.221  -2.274 127.811  0.00  0.00    +0.000 A 
ATOM     68  C   UNL     1      -5.691  -1.921 129.074  0.00  0.00    +0.000 A 
BRANCH  63  73
ATOM     69  C   UNL     1      -3.649   3.069 131.699  0.00  0.00    +0.000 A 
ATOM     70  C   UNL     1      -4.029   2.618 130.432  0.00  0.00    +0.000 A 
ATOM     71  C   UNL     1      -4.782   1.480 130.255  0.00  0.00    +0.000 A 
ATOM     72  C   UNL     1      -5.164   0.737 131.354  0.00  0.00    +0.000 A 
ATOM     73  C   UNL     1      -5.887  -0.506 131.128  0.00  0.00    +0.000 A 
ATOM     74  C   UNL     1      -6.217  -1.213 132.216  0.00  0.00    +0.000 A 
ATOM     75  C   UNL     1      -7.020  -2.418 132.127  0.00  0.00    +0.000 A 
ATOM     76  C   UNL     1      -7.510  -3.057 133.180  0.00  0.00    +0.000 A 
ATOM     77  C   UNL     1      -7.180  -2.592 134.525  0.00  0.00    +0.000 A 
ATOM     78  N   UNL     1      -7.566  -3.258 135.570  0.00  0.00    +0.000 N 
ATOM     79  C   UNL     1      -6.376  -1.361 134.535  0.00  0.00    +0.000 A 
ATOM     80  C   UNL     1      -5.934  -0.686 133.503  0.00  0.00    +0.000 A 
ATOM     81  O   UNL     1      -5.209   0.471 133.732  0.00  0.00    +0.000 OA
ATOM     82  C   UNL     1      -4.825   1.168 132.629  0.00  0.00    +0.000 A 
ATOM     83  C   UNL     1      -4.064   2.316 132.804  0.00  0.00    +0.000 A 
BRANCH  78  84
ATOM     84  C   UNL     1      -7.240  -2.882 136.993  0.00  0.00    +0.000 C 
ATOM     85  C   UNL     1      -8.425  -2.496 137.799  0.00  0.00    +0.000 C 
ENDBRANCH  78  84
BRANCH  78  86
ATOM     86  C   UNL     1      -8.394  -4.511 135.368  0.00  0.00    +0.000 C 
ATOM     87  C   UNL     1      -7.762  -5.702 136.030  0.00  0.00    +0.000 C 
ENDBRANCH  78  86
BRANCH  69  88
ATOM     88  N   UNL     1      -2.886   4.234 131.841  0.00  0.00    +0.000 N 
BRANCH  88  89
ATOM     89  C   UNL     1      -2.796   5.134 130.681  0.00  0.00    +0.000 C 
ATOM     90  C   UNL     1      -3.783   6.267 130.649  0.00  0.00    +0.000 C 
ENDBRANCH  88  89
BRANCH  88  92
ATOM     91  C   UNL     1      -2.827   5.548 133.997  0.00  0.00    +0.000 C 
ATOM     92  C   UNL     1      -2.242   4.454 133.151  0.00  0.00    +0.000 C 
ENDBRANCH  88  92
ENDBRANCH  69  88
ENDBRANCH  63  73
BRANCH  68  93
ATOM     93  S   UNL     1      -4.101  -2.757 129.712  0.00  0.00    +0.000 S 
ATOM     94  O   UNL     1      -3.678  -3.522 128.551  0.00  0.00    +0.000 OA
ATOM     95  O   UNL     1      -3.294  -1.592 130.070  0.00  0.00    +0.000 OA
ATOM     96  O   UNL     1      -4.423  -3.609 130.852  0.00  0.00    +0.000 OA
ENDBRANCH  68  93
ENDBRANCH  60  66
ENDBRANCH  58  60
ENDBRANCH  57  58
ENDBRANCH  56  57
ENDBRANCH  55  56
ENDBRANCH  54  55
ENDBRANCH  53  54
ENDBRANCH  52  53
ENDBRANCH  51  52
ENDBRANCH  50  51
ENDBRANCH   1  50
TORSDOF 30
ENDMDL
MODEL 5
REMARK VINA RESULT:      -9.3      2.580      8.561
REMARK  Name = CHEMBL2172293
REMARK  35 active torsions:
REMARK  status: ('A' for Active; 'I' for Inactive)
REMARK    1  A    between atoms: C_1  and  C_2
REMARK    2  A    between atoms: C_2  and  N_3
REMARK    3  A    between atoms: N_3  and  C_4
REMARK    4  A    between atoms: N_3  and  C_6
REMARK    5  A    between atoms: C_4  and  C_5
REMARK    6  A    between atoms: C_10  and  C_11
REMARK    7  A    between atoms: C_14  and  S_15
REMARK    8  A    between atoms: S_15  and  N_18
REMARK    9  A    between atoms: N_18  and  C_19
REMARK   10  A    between atoms: C_19  and  C_20
REMARK   11  A    between atoms: C_20  and  O_21
REMARK   12  A    between atoms: O_21  and  C_22
REMARK   13  A    between atoms: C_22  and  C_23
REMARK   14  A    between atoms: C_23  and  O_24
REMARK   15  A    between atoms: O_24  and  C_25
REMARK   16  A    between atoms: C_25  and  C_26
REMARK   17  A    between atoms: C_26  and  O_27
REMARK   18  A    between atoms: O_27  and  C_28
REMARK   19  A    between atoms: C_28  and  C_29
REMARK   20  A    between atoms: C_29  and  N_30
REMARK   21  A    between atoms: C_32  and  C_33
REMARK   22  A    between atoms: C_33  and  N_34
REMARK   23  A    between atoms: C_35  and  C_37
REMARK   24  A    between atoms: C_37  and  C_38
REMARK   25  A    between atoms: C_38  and  C_39
REMARK   26  A    between atoms: N_41  and  C_42
REMARK   27  A    between atoms: C_47  and  C_49
REMARK   28  A    between atoms: C_52  and  N_53
REMARK   29  A    between atoms: C_54  and  C_56
REMARK   30  A    between atoms: C_61  and  C_62
REMARK   31  A    between atoms: C_74  and  S_75
REMARK   32  A    between atoms: N_83  and  C_84
REMARK   33  A    between atoms: N_83  and  C_86
REMARK   34  A    between atoms: C_84  and  C_85
REMARK   35  A    between atoms: C_86  and  C_87
REMARK                            x       y       z     vdW  Elec       q    Type
REMARK                         _______ _______ _______ _____ _____    ______ ____
ROOT
ATOM      1  O   UNL     1       1.598  12.581 136.049  0.00  0.00    +0.000 OA
ENDROOT
BRANCH   1   2
ATOM      2  C   UNL     1       0.625  13.146 135.186  0.00  0.00    +0.000 C 
BRANCH   2   3
ATOM      3  C   UNL     1       0.794  12.633 133.765  0.00  0.00    +0.000 C 
BRANCH   3   4
ATOM      4  N   UNL     1      -0.261  11.697 133.437  0.00  0.00    +0.000 N 
ATOM      5  C   UNL     1      -0.140  10.348 133.320  0.00  0.00    +0.000 A 
ATOM      6  C   UNL     1      -1.393   9.878 133.037  0.00  0.00    +0.000 A 
ATOM      7  N   UNL     1      -2.242  10.962 132.981  0.00  0.00    +0.000 NA
ATOM      8  N   UNL     1      -1.535  12.070 133.228  0.00  0.00    +0.000 NA
BRANCH   6   9
ATOM      9  C   UNL     1      -1.806   8.453 132.820  0.00  0.00    +0.000 C 
BRANCH   9  10
ATOM     10  N   UNL     1      -2.956   8.336 131.869  0.00  0.00    +0.000 N 
ATOM     11  C   UNL     1      -2.956   7.426 130.805  0.00  0.00    +0.000 C 
ATOM     12  O   UNL     1      -1.986   6.692 130.632  0.00  0.00    +0.000 OA
ATOM     13  H   UNL     1      -3.744   8.946 132.029  0.00  0.00    +0.000 HD
BRANCH  11  14
ATOM     14  C   UNL     1      -4.221   7.353 129.819  0.00  0.00    +0.000 C 
BRANCH  14  15
ATOM     15  C   UNL     1      -5.466   6.106 130.195  0.00  0.00    +0.000 C 
BRANCH  15  16
ATOM     16  C   UNL     1      -4.963   4.274 130.637  0.00  0.00    +0.000 C 
ATOM     17  O   UNL     1      -4.376   4.470 131.735  0.00  0.00    +0.000 OA
ATOM     18  N   UNL     1      -5.332   2.656 129.852  0.00  0.00    +0.000 N 
ATOM     19  H   UNL     1      -5.426   3.276 129.010  0.00  0.00    +0.000 HD
BRANCH  18  20
ATOM     20  C   UNL     1      -5.233   0.640 129.536  0.00  0.00    +0.000 C 
ATOM     21  C   UNL     1      -5.572   0.786 130.894  0.00  0.00    +0.000 C 
ATOM     22  C   UNL     1      -6.313  -0.001 129.764  0.00  0.00    +0.000 C 
ATOM     23  C   UNL     1      -6.285  -1.022 130.708  0.00  0.00    +0.000 C 
ATOM     24  N   UNL     1      -7.060  -1.878 129.520  0.00  0.00    +0.000 N 
ATOM     25  C   UNL     1      -7.006  -1.904 127.915  0.00  0.00    +0.000 C 
ATOM     26  O   UNL     1      -7.095  -2.943 127.240  0.00  0.00    +0.000 OA
ATOM     27  C   UNL     1      -6.052  -2.614 129.886  0.00  0.00    +0.000 A 
ATOM     28  C   UNL     1      -6.492  -3.561 131.268  0.00  0.00    +0.000 A 
ATOM     29  C   UNL     1      -5.985  -4.707 131.767  0.00  0.00    +0.000 A 
ATOM     30  C   UNL     1      -5.251  -4.982 130.709  0.00  0.00    +0.000 A 
ATOM     31  C   UNL     1      -4.810  -3.492 129.666  0.00  0.00    +0.000 A 
ATOM     32  C   UNL     1      -4.870  -1.648 129.310  0.00  0.00    +0.000 A 
BRANCH  25  33
ATOM     33  C   UNL     1      -6.985  -0.577 127.122  0.00  0.00    +0.000 A 
ATOM     34  C   UNL     1      -7.995   0.453 126.926  0.00  0.00    +0.000 A 
ATOM     35  C   UNL     1      -8.232   0.986 125.634  0.00  0.00    +0.000 A 
ATOM     36  C   UNL     1      -7.211   0.928 124.738  0.00  0.00    +0.000 A 
ATOM     37  C   UNL     1      -6.033   0.355 125.213  0.00  0.00    +0.000 A 
ATOM     38  C   UNL     1      -5.941  -0.525 126.277  0.00  0.00    +0.000 A 
BRANCH  36  39
ATOM     39  N   UNL     1      -7.327   1.542 123.475  0.00  0.00    +0.000 N 
ATOM     40  C   UNL     1      -7.265   2.917 123.335  0.00  0.00    +0.000 C 
ATOM     41  O   UNL     1      -7.054   3.707 124.249  0.00  0.00    +0.000 OA
ATOM     42  H   UNL     1      -7.444   0.942 122.645  0.00  0.00    +0.000 HD
BRANCH  40  43
ATOM     43  C   UNL     1      -7.440   3.501 121.987  0.00  0.00    +0.000 A 
ATOM     44  C   UNL     1      -8.700   3.609 121.406  0.00  0.00    +0.000 A 
ATOM     45  C   UNL     1      -8.817   3.839 120.038  0.00  0.00    +0.000 A 
ATOM     46  C   UNL     1      -7.708   4.226 119.309  0.00  0.00    +0.000 A 
ATOM     47  C   UNL     1      -6.497   4.416 119.964  0.00  0.00    +0.000 A 
ATOM     48  C   UNL     1      -6.320   3.956 121.276  0.00  0.00    +0.000 A 
ATOM     49  C   UNL     1      -4.944   3.892 121.871  0.00  0.00    +0.000 C 
ENDBRANCH  40  43
ENDBRANCH  36  39
ENDBRANCH  25  33
ENDBRANCH  18  20
ENDBRANCH  15  16
ENDBRANCH  14  15
ENDBRANCH  11  14
ENDBRANCH   9  10
ENDBRANCH   6   9
ENDBRANCH   3   4
ENDBRANCH   2   3
ENDBRANCH   1   2
BRANCH   1  50
ATOM     50  C   UNL     1       1.049  11.431 136.692  0.00  0.00    +0.000 C 
BRANCH  50  51
ATOM     51  C   UNL     1      -0.357  11.739 137.151  0.00  0.00    +0.000 C 
BRANCH  51  52
ATOM     52  O   UNL     1      -1.241  10.735 136.670  0.00  0.00    +0.000 OA
BRANCH  52  53
ATOM     53  C   UNL     1      -2.574  11.241 136.659  0.00  0.00    +0.000 C 
BRANCH  53  54
ATOM     54  C   UNL     1      -2.639  12.511 137.477  0.00  0.00    +0.000 C 
BRANCH  54  55
ATOM     55  O   UNL     1      -3.750  12.451 138.366  0.00  0.00    +0.000 OA
BRANCH  55  56
ATOM     56  C   UNL     1      -3.679  11.259 139.150  0.00  0.00    +0.000 C 
BRANCH  56  57
ATOM     57  C   UNL     1      -5.060  10.930 139.692  0.00  0.00    +0.000 C 
BRANCH  57  58
ATOM     58  N   UNL     1      -6.036  10.689 138.595  0.00  0.00    +0.000 NA
ATOM     59  H   UNL     1      -6.465  11.575 138.307  0.00  0.00    +0.000 HD
BRANCH  58  60
ATOM     60  S   UNL     1      -7.221   9.545 139.063  0.00  0.00    +0.000 S 
ATOM     61  O   UNL     1      -8.493  10.050 138.586  0.00  0.00    +0.000 OA
ATOM     62  O   UNL     1      -7.038   9.262 140.472  0.00  0.00    +0.000 OA
BRANCH  60  66
ATOM     63  C   UNL     1      -6.472   5.815 136.491  0.00  0.00    +0.000 A 
ATOM     64  C   UNL     1      -7.592   5.920 137.345  0.00  0.00    +0.000 A 
ATOM     65  C   UNL     1      -7.839   7.093 138.058  0.00  0.00    +0.000 A 
ATOM     66  C   UNL     1      -6.840   8.056 138.141  0.00  0.00    +0.000 A 
ATOM     67  C   UNL     1      -5.614   7.836 137.481  0.00  0.00    +0.000 A 
ATOM     68  C   UNL     1      -5.481   6.794 136.532  0.00  0.00    +0.000 A 
BRANCH  63  73
ATOM     69  C   UNL     1      -4.247   1.134 136.314  0.00  0.00    +0.000 A 
ATOM     70  C   UNL     1      -4.228   2.227 137.185  0.00  0.00    +0.000 A 
ATOM     71  C   UNL     1      -4.964   3.366 136.948  0.00  0.00    +0.000 A 
ATOM     72  C   UNL     1      -5.733   3.454 135.806  0.00  0.00    +0.000 A 
ATOM     73  C   UNL     1      -6.433   4.704 135.541  0.00  0.00    +0.000 A 
ATOM     74  C   UNL     1      -7.147   4.762 134.411  0.00  0.00    +0.000 A 
ATOM     75  C   UNL     1      -7.963   5.916 134.084  0.00  0.00    +0.000 A 
ATOM     76  C   UNL     1      -8.812   5.955 133.067  0.00  0.00    +0.000 A 
ATOM     77  C   UNL     1      -8.902   4.816 132.157  0.00  0.00    +0.000 A 
ATOM     78  N   UNL     1      -9.652   4.869 131.100  0.00  0.00    +0.000 N 
ATOM     79  C   UNL     1      -8.057   3.681 132.559  0.00  0.00    +0.000 A 
ATOM     80  C   UNL     1      -7.258   3.606 133.595  0.00  0.00    +0.000 A 
ATOM     81  O   UNL     1      -6.564   2.428 133.810  0.00  0.00    +0.000 OA
ATOM     82  C   UNL     1      -5.795   2.380 134.930  0.00  0.00    +0.000 A 
ATOM     83  C   UNL     1      -5.050   1.233 135.171  0.00  0.00    +0.000 A 
BRANCH  78  84
ATOM     84  C   UNL     1      -9.777   3.763 130.082  0.00  0.00    +0.000 C 
ATOM     85  C   UNL     1      -8.637   3.686 129.136  0.00  0.00    +0.000 C 
ENDBRANCH  78  84
BRANCH  78  86
ATOM     86  C   UNL     1     -10.458   6.126 130.844  0.00  0.00    +0.000 C 
ATOM     87  C   UNL     1      -9.739   7.063 129.916  0.00  0.00    +0.000 C 
ENDBRANCH  78  86
BRANCH  69  88
ATOM     88  N   UNL     1      -3.488  -0.010 136.589  0.00  0.00    +0.000 N 
BRANCH  88  89
ATOM     89  C   UNL     1      -3.391  -1.032 135.535  0.00  0.00    +0.000 C 
ATOM     90  C   UNL     1      -2.125  -1.022 134.725  0.00  0.00    +0.000 C 
ENDBRANCH  88  89
BRANCH  88  92
ATOM     91  C   UNL     1      -3.456  -1.058 138.887  0.00  0.00    +0.000 C 
ATOM     92  C   UNL     1      -2.850  -0.083 137.918  0.00  0.00    +0.000 C 
ENDBRANCH  88  92
ENDBRANCH  69  88
ENDBRANCH  63  73
BRANCH  68  93
ATOM     93  S   UNL     1      -3.961   6.736 135.383  0.00  0.00    +0.000 S 
ATOM     94  O   UNL     1      -4.578   6.571 134.078  0.00  0.00    +0.000 OA
ATOM     95  O   UNL     1      -3.343   8.030 135.668  0.00  0.00    +0.000 OA
ATOM     96  O   UNL     1      -3.119   5.601 135.748  0.00  0.00    +0.000 OA
ENDBRANCH  68  93
ENDBRANCH  60  66
ENDBRANCH  58  60
ENDBRANCH  57  58
ENDBRANCH  56  57
ENDBRANCH  55  56
ENDBRANCH  54  55
ENDBRANCH  53  54
ENDBRANCH  52  53
ENDBRANCH  51  52
ENDBRANCH  50  51
ENDBRANCH   1  50
TORSDOF 30
ENDMDL
MODEL 6
REMARK VINA RESULT:      -9.3      2.699     10.857
REMARK  Name = CHEMBL2172293
REMARK  35 active torsions:
REMARK  status: ('A' for Active; 'I' for Inactive)
REMARK    1  A    between atoms: C_1  and  C_2
REMARK    2  A    between atoms: C_2  and  N_3
REMARK    3  A    between atoms: N_3  and  C_4
REMARK    4  A    between atoms: N_3  and  C_6
REMARK    5  A    between atoms: C_4  and  C_5
REMARK    6  A    between atoms: C_10  and  C_11
REMARK    7  A    between atoms: C_14  and  S_15
REMARK    8  A    between atoms: S_15  and  N_18
REMARK    9  A    between atoms: N_18  and  C_19
REMARK   10  A    between atoms: C_19  and  C_20
REMARK   11  A    between atoms: C_20  and  O_21
REMARK   12  A    between atoms: O_21  and  C_22
REMARK   13  A    between atoms: C_22  and  C_23
REMARK   14  A    between atoms: C_23  and  O_24
REMARK   15  A    between atoms: O_24  and  C_25
REMARK   16  A    between atoms: C_25  and  C_26
REMARK   17  A    between atoms: C_26  and  O_27
REMARK   18  A    between atoms: O_27  and  C_28
REMARK   19  A    between atoms: C_28  and  C_29
REMARK   20  A    between atoms: C_29  and  N_30
REMARK   21  A    between atoms: C_32  and  C_33
REMARK   22  A    between atoms: C_33  and  N_34
REMARK   23  A    between atoms: C_35  and  C_37
REMARK   24  A    between atoms: C_37  and  C_38
REMARK   25  A    between atoms: C_38  and  C_39
REMARK   26  A    between atoms: N_41  and  C_42
REMARK   27  A    between atoms: C_47  and  C_49
REMARK   28  A    between atoms: C_52  and  N_53
REMARK   29  A    between atoms: C_54  and  C_56
REMARK   30  A    between atoms: C_61  and  C_62
REMARK   31  A    between atoms: C_74  and  S_75
REMARK   32  A    between atoms: N_83  and  C_84
REMARK   33  A    between atoms: N_83  and  C_86
REMARK   34  A    between atoms: C_84  and  C_85
REMARK   35  A    between atoms: C_86  and  C_87
REMARK                            x       y       z     vdW  Elec       q    Type
REMARK                         _______ _______ _______ _____ _____    ______ ____
ROOT
ATOM      1  O   UNL     1      -6.259   2.892 124.552  0.00  0.00    +0.000 OA
ENDROOT
BRANCH   1   2
ATOM      2  C   UNL     1      -7.118   3.754 125.280  0.00  0.00    +0.000 C 
BRANCH   2   3
ATOM      3  C   UNL     1      -7.009   3.494 126.774  0.00  0.00    +0.000 C 
BRANCH   3   4
ATOM      4  N   UNL     1      -7.934   4.338 127.502  0.00  0.00    +0.000 N 
ATOM      5  C   UNL     1      -8.230   4.261 128.826  0.00  0.00    +0.000 A 
ATOM      6  C   UNL     1      -9.117   5.272 129.076  0.00  0.00    +0.000 A 
ATOM      7  N   UNL     1      -9.343   5.931 127.887  0.00  0.00    +0.000 NA
ATOM      8  N   UNL     1      -8.612   5.348 126.931  0.00  0.00    +0.000 NA
BRANCH   6   9
ATOM      9  C   UNL     1      -9.751   5.627 130.388  0.00  0.00    +0.000 C 
BRANCH   9  10
ATOM     10  N   UNL     1      -9.460   4.612 131.449  0.00  0.00    +0.000 N 
ATOM     11  C   UNL     1      -9.317   4.962 132.797  0.00  0.00    +0.000 C 
ATOM     12  O   UNL     1      -9.431   6.137 133.136  0.00  0.00    +0.000 OA
ATOM     13  H   UNL     1      -9.372   3.652 131.151  0.00  0.00    +0.000 HD
BRANCH  11  14
ATOM     14  C   UNL     1      -9.002   3.825 133.886  0.00  0.00    +0.000 C 
BRANCH  14  15
ATOM     15  C   UNL     1      -7.271   3.593 134.332  0.00  0.00    +0.000 C 
BRANCH  15  16
ATOM     16  C   UNL     1      -6.409   4.724 135.667  0.00  0.00    +0.000 C 
ATOM     17  O   UNL     1      -5.218   4.330 135.546  0.00  0.00    +0.000 OA
ATOM     18  N   UNL     1      -7.019   6.102 136.715  0.00  0.00    +0.000 N 
ATOM     19  H   UNL     1      -7.923   5.591 136.569  0.00  0.00    +0.000 HD
BRANCH  18  20
ATOM     20  C   UNL     1      -6.969   7.542 138.163  0.00  0.00    +0.000 C 
ATOM     21  C   UNL     1      -7.356   6.363 138.826  0.00  0.00    +0.000 C 
ATOM     22  C   UNL     1      -6.157   7.322 139.123  0.00  0.00    +0.000 C 
ATOM     23  C   UNL     1      -6.667   7.264 140.416  0.00  0.00    +0.000 C 
ATOM     24  N   UNL     1      -5.411   8.291 140.749  0.00  0.00    +0.000 N 
ATOM     25  C   UNL     1      -4.652   9.460 139.951  0.00  0.00    +0.000 C 
ATOM     26  O   UNL     1      -4.248  10.507 140.483  0.00  0.00    +0.000 OA
ATOM     27  C   UNL     1      -6.475   8.867 141.226  0.00  0.00    +0.000 A 
ATOM     28  C   UNL     1      -6.799   8.269 142.819  0.00  0.00    +0.000 A 
ATOM     29  C   UNL     1      -7.501   8.791 143.846  0.00  0.00    +0.000 A 
ATOM     30  C   UNL     1      -7.608   9.992 143.318  0.00  0.00    +0.000 A 
ATOM     31  C   UNL     1      -7.449  10.034 141.454  0.00  0.00    +0.000 A 
ATOM     32  C   UNL     1      -7.196   9.184 139.798  0.00  0.00    +0.000 A 
BRANCH  25  33
ATOM     33  C   UNL     1      -4.257   9.252 138.470  0.00  0.00    +0.000 A 
ATOM     34  C   UNL     1      -3.252   8.406 137.844  0.00  0.00    +0.000 A 
ATOM     35  C   UNL     1      -2.410   8.927 136.828  0.00  0.00    +0.000 A 
ATOM     36  C   UNL     1      -2.876   9.985 136.113  0.00  0.00    +0.000 A 
ATOM     37  C   UNL     1      -4.151  10.425 136.462  0.00  0.00    +0.000 A 
ATOM     38  C   UNL     1      -4.765  10.218 137.686  0.00  0.00    +0.000 A 
BRANCH  36  39
ATOM     39  N   UNL     1      -2.152  10.483 135.011  0.00  0.00    +0.000 N 
ATOM     40  C   UNL     1      -1.530  11.718 135.057  0.00  0.00    +0.000 C 
ATOM     41  O   UNL     1      -1.499  12.452 136.040  0.00  0.00    +0.000 OA
ATOM     42  H   UNL     1      -2.078   9.897 134.166  0.00  0.00    +0.000 HD
BRANCH  40  43
ATOM     43  C   UNL     1      -0.825  12.202 133.851  0.00  0.00    +0.000 A 
ATOM     44  C   UNL     1      -1.484  12.959 132.886  0.00  0.00    +0.000 A 
ATOM     45  C   UNL     1      -0.919  13.118 131.622  0.00  0.00    +0.000 A 
ATOM     46  C   UNL     1       0.399  12.761 131.409  0.00  0.00    +0.000 A 
ATOM     47  C   UNL     1       1.154  12.282 132.473  0.00  0.00    +0.000 A 
ATOM     48  C   UNL     1       0.531  11.896 133.668  0.00  0.00    +0.000 A 
ATOM     49  C   UNL     1       1.294  11.111 134.694  0.00  0.00    +0.000 C 
ENDBRANCH  40  43
ENDBRANCH  36  39
ENDBRANCH  25  33
ENDBRANCH  18  20
ENDBRANCH  15  16
ENDBRANCH  14  15
ENDBRANCH  11  14
ENDBRANCH   9  10
ENDBRANCH   6   9
ENDBRANCH   3   4
ENDBRANCH   2   3
ENDBRANCH   1   2
BRANCH   1  50
ATOM     50  C   UNL     1      -6.970   2.345 123.441  0.00  0.00    +0.000 C 
BRANCH  50  51
ATOM     51  C   UNL     1      -8.259   3.108 123.248  0.00  0.00    +0.000 C 
BRANCH  51  52
ATOM     52  O   UNL     1      -9.248   2.235 122.716  0.00  0.00    +0.000 OA
BRANCH  52  53
ATOM     53  C   UNL     1      -9.255   1.018 123.458  0.00  0.00    +0.000 C 
BRANCH  53  54
ATOM     54  C   UNL     1      -9.892  -0.076 122.629  0.00  0.00    +0.000 C 
BRANCH  54  55
ATOM     55  O   UNL     1      -9.392  -1.343 123.047  0.00  0.00    +0.000 OA
BRANCH  55  56
ATOM     56  C   UNL     1      -7.970  -1.289 123.160  0.00  0.00    +0.000 C 
BRANCH  56  57
ATOM     57  C   UNL     1      -7.500  -2.368 124.123  0.00  0.00    +0.000 C 
BRANCH  57  58
ATOM     58  N   UNL     1      -6.939  -1.782 125.371  0.00  0.00    +0.000 NA
ATOM     59  H   UNL     1      -6.106  -2.306 125.660  0.00  0.00    +0.000 HD
BRANCH  58  60
ATOM     60  S   UNL     1      -8.116  -1.742 126.615  0.00  0.00    +0.000 S 
ATOM     61  O   UNL     1      -8.598  -3.100 126.769  0.00  0.00    +0.000 OA
ATOM     62  O   UNL     1      -9.047  -0.674 126.317  0.00  0.00    +0.000 OA
BRANCH  60  66
ATOM     63  C   UNL     1      -5.729  -0.349 130.283  0.00  0.00    +0.000 A 
ATOM     64  C   UNL     1      -5.097  -0.893 129.143  0.00  0.00    +0.000 A 
ATOM     65  C   UNL     1      -5.836  -1.238 128.012  0.00  0.00    +0.000 A 
ATOM     66  C   UNL     1      -7.221  -1.303 128.105  0.00  0.00    +0.000 A 
ATOM     67  C   UNL     1      -7.845  -0.993 129.330  0.00  0.00    +0.000 A 
ATOM     68  C   UNL     1      -7.120  -0.369 130.373  0.00  0.00    +0.000 A 
BRANCH  63  73
ATOM     69  C   UNL     1      -2.985  -1.967 134.375  0.00  0.00    +0.000 A 
ATOM     70  C   UNL     1      -3.847  -2.554 133.443  0.00  0.00    +0.000 A 
ATOM     71  C   UNL     1      -4.432  -1.829 132.430  0.00  0.00    +0.000 A 
ATOM     72  C   UNL     1      -4.189  -0.475 132.332  0.00  0.00    +0.000 A 
ATOM     73  C   UNL     1      -4.889   0.279 131.302  0.00  0.00    +0.000 A 
ATOM     74  C   UNL     1      -4.648   1.595 131.254  0.00  0.00    +0.000 A 
ATOM     75  C   UNL     1      -5.211   2.436 130.215  0.00  0.00    +0.000 A 
ATOM     76  C   UNL     1      -4.873   3.703 130.027  0.00  0.00    +0.000 A 
ATOM     77  C   UNL     1      -3.937   4.345 130.947  0.00  0.00    +0.000 A 
ATOM     78  N   UNL     1      -3.666   5.610 130.843  0.00  0.00    +0.000 N 
ATOM     79  C   UNL     1      -3.400   3.429 131.964  0.00  0.00    +0.000 A 
ATOM     80  C   UNL     1      -3.680   2.159 132.126  0.00  0.00    +0.000 A 
ATOM     81  O   UNL     1      -3.040   1.465 133.137  0.00  0.00    +0.000 OA
ATOM     82  C   UNL     1      -3.320   0.137 133.225  0.00  0.00    +0.000 A 
ATOM     83  C   UNL     1      -2.731  -0.596 134.247  0.00  0.00    +0.000 A 
BRANCH  78  84
ATOM     84  C   UNL     1      -2.749   6.368 131.769  0.00  0.00    +0.000 C 
ATOM     85  C   UNL     1      -1.333   6.391 131.325  0.00  0.00    +0.000 C 
ENDBRANCH  78  84
BRANCH  78  86
ATOM     86  C   UNL     1      -4.316   6.402 129.727  0.00  0.00    +0.000 C 
ATOM     87  C   UNL     1      -4.339   7.873 130.034  0.00  0.00    +0.000 C 
ENDBRANCH  78  86
BRANCH  69  88
ATOM     88  N   UNL     1      -2.404  -2.736 135.390  0.00  0.00    +0.000 N 
BRANCH  88  89
ATOM     89  C   UNL     1      -1.247  -3.572 135.032  0.00  0.00    +0.000 C 
ATOM     90  C   UNL     1       0.075  -2.864 134.942  0.00  0.00    +0.000 C 
ENDBRANCH  88  89
BRANCH  88  92
ATOM     91  C   UNL     1      -3.925  -3.753 137.131  0.00  0.00    +0.000 C 
ATOM     92  C   UNL     1      -3.006  -2.633 136.734  0.00  0.00    +0.000 C 
ENDBRANCH  88  92
ENDBRANCH  69  88
ENDBRANCH  63  73
BRANCH  68  93
ATOM     93  S   UNL     1      -8.042   0.379 131.864  0.00  0.00    +0.000 S 
ATOM     94  O   UNL     1      -7.226  -0.071 132.978  0.00  0.00    +0.000 OA
ATOM     95  O   UNL     1      -7.994   1.804 131.539  0.00  0.00    +0.000 OA
ATOM     96  O   UNL     1      -9.398  -0.157 131.916  0.00  0.00    +0.000 OA
ENDBRANCH  68  93
ENDBRANCH  60  66
ENDBRANCH  58  60
ENDBRANCH  57  58
ENDBRANCH  56  57
ENDBRANCH  55  56
ENDBRANCH  54  55
ENDBRANCH  53  54
ENDBRANCH  52  53
ENDBRANCH  51  52
ENDBRANCH  50  51
ENDBRANCH   1  50
TORSDOF 30
ENDMDL
MODEL 7
REMARK VINA RESULT:      -9.2      3.063     11.775
REMARK  Name = CHEMBL2172293
REMARK  35 active torsions:
REMARK  status: ('A' for Active; 'I' for Inactive)
REMARK    1  A    between atoms: C_1  and  C_2
REMARK    2  A    between atoms: C_2  and  N_3
REMARK    3  A    between atoms: N_3  and  C_4
REMARK    4  A    between atoms: N_3  and  C_6
REMARK    5  A    between atoms: C_4  and  C_5
REMARK    6  A    between atoms: C_10  and  C_11
REMARK    7  A    between atoms: C_14  and  S_15
REMARK    8  A    between atoms: S_15  and  N_18
REMARK    9  A    between atoms: N_18  and  C_19
REMARK   10  A    between atoms: C_19  and  C_20
REMARK   11  A    between atoms: C_20  and  O_21
REMARK   12  A    between atoms: O_21  and  C_22
REMARK   13  A    between atoms: C_22  and  C_23
REMARK   14  A    between atoms: C_23  and  O_24
REMARK   15  A    between atoms: O_24  and  C_25
REMARK   16  A    between atoms: C_25  and  C_26
REMARK   17  A    between atoms: C_26  and  O_27
REMARK   18  A    between atoms: O_27  and  C_28
REMARK   19  A    between atoms: C_28  and  C_29
REMARK   20  A    between atoms: C_29  and  N_30
REMARK   21  A    between atoms: C_32  and  C_33
REMARK   22  A    between atoms: C_33  and  N_34
REMARK   23  A    between atoms: C_35  and  C_37
REMARK   24  A    between atoms: C_37  and  C_38
REMARK   25  A    between atoms: C_38  and  C_39
REMARK   26  A    between atoms: N_41  and  C_42
REMARK   27  A    between atoms: C_47  and  C_49
REMARK   28  A    between atoms: C_52  and  N_53
REMARK   29  A    between atoms: C_54  and  C_56
REMARK   30  A    between atoms: C_61  and  C_62
REMARK   31  A    between atoms: C_74  and  S_75
REMARK   32  A    between atoms: N_83  and  C_84
REMARK   33  A    between atoms: N_83  and  C_86
REMARK   34  A    between atoms: C_84  and  C_85
REMARK   35  A    between atoms: C_86  and  C_87
REMARK                            x       y       z     vdW  Elec       q    Type
REMARK                         _______ _______ _______ _____ _____    ______ ____
ROOT
ATOM      1  O   UNL     1      -2.223  -0.513 133.688  0.00  0.00    +0.000 OA
ENDROOT
BRANCH   1   2
ATOM      2  C   UNL     1      -3.321   0.375 133.806  0.00  0.00    +0.000 C 
BRANCH   2   3
ATOM      3  C   UNL     1      -3.879   0.364 135.220  0.00  0.00    +0.000 C 
BRANCH   3   4
ATOM      4  N   UNL     1      -4.417   1.665 135.561  0.00  0.00    +0.000 N 
ATOM      5  C   UNL     1      -3.750   2.687 136.159  0.00  0.00    +0.000 A 
ATOM      6  C   UNL     1      -4.640   3.721 136.248  0.00  0.00    +0.000 A 
ATOM      7  N   UNL     1      -5.833   3.292 135.707  0.00  0.00    +0.000 NA
ATOM      8  N   UNL     1      -5.682   2.030 135.290  0.00  0.00    +0.000 NA
BRANCH   6   9
ATOM      9  C   UNL     1      -4.400   5.085 136.824  0.00  0.00    +0.000 C 
BRANCH   9  10
ATOM     10  N   UNL     1      -5.657   5.895 136.902  0.00  0.00    +0.000 N 
ATOM     11  C   UNL     1      -6.424   5.973 138.070  0.00  0.00    +0.000 C 
ATOM     12  O   UNL     1      -6.067   5.361 139.074  0.00  0.00    +0.000 OA
ATOM     13  H   UNL     1      -5.932   6.391 136.067  0.00  0.00    +0.000 HD
BRANCH  11  14
ATOM     14  C   UNL     1      -7.764   6.857 138.086  0.00  0.00    +0.000 C 
BRANCH  14  15
ATOM     15  C   UNL     1      -7.564   8.617 138.422  0.00  0.00    +0.000 C 
BRANCH  15  16
ATOM     16  C   UNL     1      -5.811   9.468 138.358  0.00  0.00    +0.000 C 
ATOM     17  O   UNL     1      -5.552   9.522 139.590  0.00  0.00    +0.000 OA
ATOM     18  N   UNL     1      -4.702   9.935 136.971  0.00  0.00    +0.000 N 
ATOM     19  H   UNL     1      -5.622   9.966 136.467  0.00  0.00    +0.000 HD
BRANCH  18  20
ATOM     20  C   UNL     1      -3.084  10.765 136.040  0.00  0.00    +0.000 C 
ATOM     21  C   UNL     1      -2.891  11.014 137.411  0.00  0.00    +0.000 C 
ATOM     22  C   UNL     1      -1.951  10.292 136.391  0.00  0.00    +0.000 C 
ATOM     23  C   UNL     1      -1.007  11.167 136.917  0.00  0.00    +0.000 C 
ATOM     24  N   UNL     1       0.001  10.424 135.834  0.00  0.00    +0.000 N 
ATOM     25  C   UNL     1      -0.169   9.791 134.368  0.00  0.00    +0.000 C 
ATOM     26  O   UNL     1       0.686   9.888 133.472  0.00  0.00    +0.000 OA
ATOM     27  C   UNL     1       0.130  11.700 135.619  0.00  0.00    +0.000 A 
ATOM     28  C   UNL     1       1.302  12.361 136.709  0.00  0.00    +0.000 A 
ATOM     29  C   UNL     1       2.055  13.479 136.646  0.00  0.00    +0.000 A 
ATOM     30  C   UNL     1       1.792  13.726 135.380  0.00  0.00    +0.000 A 
ATOM     31  C   UNL     1       0.195  12.973 134.760  0.00  0.00    +0.000 A 
ATOM     32  C   UNL     1      -1.366  11.961 135.023  0.00  0.00    +0.000 A 
BRANCH  25  33
ATOM     33  C   UNL     1      -1.382   8.884 134.055  0.00  0.00    +0.000 A 
ATOM     34  C   UNL     1      -1.749   7.557 134.527  0.00  0.00    +0.000 A 
ATOM     35  C   UNL     1      -2.201   6.572 133.612  0.00  0.00    +0.000 A 
ATOM     36  C   UNL     1      -2.768   7.007 132.456  0.00  0.00    +0.000 A 
ATOM     37  C   UNL     1      -2.850   8.391 132.316  0.00  0.00    +0.000 A 
ATOM     38  C   UNL     1      -2.049   9.313 132.970  0.00  0.00    +0.000 A 
BRANCH  36  39
ATOM     39  N   UNL     1      -3.349   6.096 131.552  0.00  0.00    +0.000 N 
ATOM     40  C   UNL     1      -2.723   5.763 130.364  0.00  0.00    +0.000 C 
ATOM     41  O   UNL     1      -1.618   6.166 130.016  0.00  0.00    +0.000 OA
ATOM     42  H   UNL     1      -4.250   5.663 131.801  0.00  0.00    +0.000 HD
BRANCH  40  43
ATOM     43  C   UNL     1      -3.407   4.834 129.438  0.00  0.00    +0.000 A 
ATOM     44  C   UNL     1      -3.532   3.480 129.737  0.00  0.00    +0.000 A 
ATOM     45  C   UNL     1      -3.867   2.575 128.732  0.00  0.00    +0.000 A 
ATOM     46  C   UNL     1      -4.335   3.039 127.517  0.00  0.00    +0.000 A 
ATOM     47  C   UNL     1      -4.498   4.406 127.329  0.00  0.00    +0.000 A 
ATOM     48  C   UNL     1      -3.940   5.319 128.235  0.00  0.00    +0.000 A 
ATOM     49  C   UNL     1      -3.859   6.775 127.881  0.00  0.00    +0.000 C 
ENDBRANCH  40  43
ENDBRANCH  36  39
ENDBRANCH  25  33
ENDBRANCH  18  20
ENDBRANCH  15  16
ENDBRANCH  14  15
ENDBRANCH  11  14
ENDBRANCH   9  10
ENDBRANCH   6   9
ENDBRANCH   3   4
ENDBRANCH   2   3
ENDBRANCH   1   2
BRANCH   1  50
ATOM     50  C   UNL     1      -2.539  -1.745 134.337  0.00  0.00    +0.000 C 
BRANCH  50  51
ATOM     51  C   UNL     1      -1.372  -2.170 135.197  0.00  0.00    +0.000 C 
BRANCH  51  52
ATOM     52  O   UNL     1      -0.466  -2.939 134.415  0.00  0.00    +0.000 OA
BRANCH  52  53
ATOM     53  C   UNL     1       0.040  -4.018 135.199  0.00  0.00    +0.000 C 
BRANCH  53  54
ATOM     54  C   UNL     1      -1.100  -4.683 135.938  0.00  0.00    +0.000 C 
BRANCH  54  55
ATOM     55  O   UNL     1      -1.437  -5.908 135.293  0.00  0.00    +0.000 OA
BRANCH  55  56
ATOM     56  C   UNL     1      -2.537  -5.701 134.406  0.00  0.00    +0.000 C 
BRANCH  56  57
ATOM     57  C   UNL     1      -3.718  -5.152 135.191  0.00  0.00    +0.000 C 
BRANCH  57  58
ATOM     58  N   UNL     1      -4.997  -5.332 134.452  0.00  0.00    +0.000 NA
ATOM     59  H   UNL     1      -4.818  -5.359 133.443  0.00  0.00    +0.000 HD
BRANCH  58  60
ATOM     60  S   UNL     1      -6.120  -4.102 134.854  0.00  0.00    +0.000 S 
ATOM     61  O   UNL     1      -5.452  -3.229 135.799  0.00  0.00    +0.000 OA
ATOM     62  O   UNL     1      -7.369  -4.737 135.216  0.00  0.00    +0.000 OA
BRANCH  60  66
ATOM     63  C   UNL     1      -6.803  -1.468 131.154  0.00  0.00    +0.000 A 
ATOM     64  C   UNL     1      -7.853  -1.802 132.038  0.00  0.00    +0.000 A 
ATOM     65  C   UNL     1      -7.607  -2.539 133.196  0.00  0.00    +0.000 A 
ATOM     66  C   UNL     1      -6.380  -3.178 133.341  0.00  0.00    +0.000 A 
ATOM     67  C   UNL     1      -5.408  -3.042 132.329  0.00  0.00    +0.000 A 
ATOM     68  C   UNL     1      -5.555  -2.069 131.312  0.00  0.00    +0.000 A 
BRANCH  63  73
ATOM     69  C   UNL     1      -8.360  -1.416 126.209  0.00  0.00    +0.000 A 
ATOM     70  C   UNL     1      -8.048  -2.395 127.157  0.00  0.00    +0.000 A 
ATOM     71  C   UNL     1      -7.660  -2.075 128.438  0.00  0.00    +0.000 A 
ATOM     72  C   UNL     1      -7.549  -0.750 128.806  0.00  0.00    +0.000 A 
ATOM     73  C   UNL     1      -7.055  -0.444 130.141  0.00  0.00    +0.000 A 
ATOM     74  C   UNL     1      -6.935   0.851 130.453  0.00  0.00    +0.000 A 
ATOM     75  C   UNL     1      -6.545   1.282 131.782  0.00  0.00    +0.000 A 
ATOM     76  C   UNL     1      -6.572   2.544 132.187  0.00  0.00    +0.000 A 
ATOM     77  C   UNL     1      -6.940   3.598 131.243  0.00  0.00    +0.000 A 
ATOM     78  N   UNL     1      -6.879   4.847 131.587  0.00  0.00    +0.000 N 
ATOM     79  C   UNL     1      -7.335   3.084 129.923  0.00  0.00    +0.000 A 
ATOM     80  C   UNL     1      -7.369   1.835 129.527  0.00  0.00    +0.000 A 
ATOM     81  O   UNL     1      -7.799   1.562 128.240  0.00  0.00    +0.000 OA
ATOM     82  C   UNL     1      -7.873   0.248 127.898  0.00  0.00    +0.000 A 
ATOM     83  C   UNL     1      -8.264  -0.077 126.606  0.00  0.00    +0.000 A 
BRANCH  78  84
ATOM     84  C   UNL     1      -7.197   6.003 130.672  0.00  0.00    +0.000 C 
ATOM     85  C   UNL     1      -6.395   7.222 130.945  0.00  0.00    +0.000 C 
ENDBRANCH  78  84
BRANCH  78  86
ATOM     86  C   UNL     1      -6.449   5.192 132.998  0.00  0.00    +0.000 C 
ATOM     87  C   UNL     1      -7.616   5.626 133.840  0.00  0.00    +0.000 C 
ENDBRANCH  78  86
BRANCH  69  88
ATOM     88  N   UNL     1      -8.756  -1.779 124.915  0.00  0.00    +0.000 N 
BRANCH  88  89
ATOM     89  C   UNL     1      -9.267  -3.144 124.718  0.00  0.00    +0.000 C 
ATOM     90  C   UNL     1      -9.578  -3.532 123.300  0.00  0.00    +0.000 C 
ENDBRANCH  88  89
BRANCH  88  92
ATOM     91  C   UNL     1      -7.255  -0.584 123.272  0.00  0.00    +0.000 C 
ATOM     92  C   UNL     1      -8.626  -0.750 123.865  0.00  0.00    +0.000 C 
ENDBRANCH  88  92
ENDBRANCH  69  88
ENDBRANCH  63  73
BRANCH  68  93
ATOM     93  S   UNL     1      -4.082  -1.639 130.180  0.00  0.00    +0.000 S 
ATOM     94  O   UNL     1      -2.973  -2.257 130.885  0.00  0.00    +0.000 OA
ATOM     95  O   UNL     1      -4.502  -2.260 128.925  0.00  0.00    +0.000 OA
ATOM     96  O   UNL     1      -3.945  -0.188 130.090  0.00  0.00    +0.000 OA
ENDBRANCH  68  93
ENDBRANCH  60  66
ENDBRANCH  58  60
ENDBRANCH  57  58
ENDBRANCH  56  57
ENDBRANCH  55  56
ENDBRANCH  54  55
ENDBRANCH  53  54
ENDBRANCH  52  53
ENDBRANCH  51  52
ENDBRANCH  50  51
ENDBRANCH   1  50
TORSDOF 30
ENDMDL
MODEL 8
REMARK VINA RESULT:      -9.2      2.833     10.878
REMARK  Name = CHEMBL2172293
REMARK  35 active torsions:
REMARK  status: ('A' for Active; 'I' for Inactive)
REMARK    1  A    between atoms: C_1  and  C_2
REMARK    2  A    between atoms: C_2  and  N_3
REMARK    3  A    between atoms: N_3  and  C_4
REMARK    4  A    between atoms: N_3  and  C_6
REMARK    5  A    between atoms: C_4  and  C_5
REMARK    6  A    between atoms: C_10  and  C_11
REMARK    7  A    between atoms: C_14  and  S_15
REMARK    8  A    between atoms: S_15  and  N_18
REMARK    9  A    between atoms: N_18  and  C_19
REMARK   10  A    between atoms: C_19  and  C_20
REMARK   11  A    between atoms: C_20  and  O_21
REMARK   12  A    between atoms: O_21  and  C_22
REMARK   13  A    between atoms: C_22  and  C_23
REMARK   14  A    between atoms: C_23  and  O_24
REMARK   15  A    between atoms: O_24  and  C_25
REMARK   16  A    between atoms: C_25  and  C_26
REMARK   17  A    between atoms: C_26  and  O_27
REMARK   18  A    between atoms: O_27  and  C_28
REMARK   19  A    between atoms: C_28  and  C_29
REMARK   20  A    between atoms: C_29  and  N_30
REMARK   21  A    between atoms: C_32  and  C_33
REMARK   22  A    between atoms: C_33  and  N_34
REMARK   23  A    between atoms: C_35  and  C_37
REMARK   24  A    between atoms: C_37  and  C_38
REMARK   25  A    between atoms: C_38  and  C_39
REMARK   26  A    between atoms: N_41  and  C_42
REMARK   27  A    between atoms: C_47  and  C_49
REMARK   28  A    between atoms: C_52  and  N_53
REMARK   29  A    between atoms: C_54  and  C_56
REMARK   30  A    between atoms: C_61  and  C_62
REMARK   31  A    between atoms: C_74  and  S_75
REMARK   32  A    between atoms: N_83  and  C_84
REMARK   33  A    between atoms: N_83  and  C_86
REMARK   34  A    between atoms: C_84  and  C_85
REMARK   35  A    between atoms: C_86  and  C_87
REMARK                            x       y       z     vdW  Elec       q    Type
REMARK                         _______ _______ _______ _____ _____    ______ ____
ROOT
ATOM      1  O   UNL     1      -6.243   2.655 124.551  0.00  0.00    +0.000 OA
ENDROOT
BRANCH   1   2
ATOM      2  C   UNL     1      -6.774   3.757 125.268  0.00  0.00    +0.000 C 
BRANCH   2   3
ATOM      3  C   UNL     1      -6.801   3.471 126.761  0.00  0.00    +0.000 C 
BRANCH   3   4
ATOM      4  N   UNL     1      -7.793   4.298 127.416  0.00  0.00    +0.000 N 
ATOM      5  C   UNL     1      -8.100   4.301 128.740  0.00  0.00    +0.000 A 
ATOM      6  C   UNL     1      -9.061   5.261 128.906  0.00  0.00    +0.000 A 
ATOM      7  N   UNL     1      -9.318   5.811 127.668  0.00  0.00    +0.000 NA
ATOM      8  N   UNL     1      -8.534   5.211 126.764  0.00  0.00    +0.000 NA
BRANCH   6   9
ATOM      9  C   UNL     1      -9.735   5.667 130.182  0.00  0.00    +0.000 C 
BRANCH   9  10
ATOM     10  N   UNL     1      -9.579   4.636 131.256  0.00  0.00    +0.000 N 
ATOM     11  C   UNL     1      -9.392   4.981 132.600  0.00  0.00    +0.000 C 
ATOM     12  O   UNL     1      -9.351   6.166 132.924  0.00  0.00    +0.000 OA
ATOM     13  H   UNL     1      -9.617   3.669 130.970  0.00  0.00    +0.000 HD
BRANCH  11  14
ATOM     14  C   UNL     1      -9.228   3.826 133.704  0.00  0.00    +0.000 C 
BRANCH  14  15
ATOM     15  C   UNL     1      -7.547   3.446 134.229  0.00  0.00    +0.000 C 
BRANCH  15  16
ATOM     16  C   UNL     1      -6.637   4.525 135.575  0.00  0.00    +0.000 C 
ATOM     17  O   UNL     1      -5.474   4.047 135.485  0.00  0.00    +0.000 OA
ATOM     18  N   UNL     1      -7.172   5.952 136.599  0.00  0.00    +0.000 N 
ATOM     19  H   UNL     1      -8.106   5.504 136.435  0.00  0.00    +0.000 HD
BRANCH  18  20
ATOM     20  C   UNL     1      -7.054   7.397 138.038  0.00  0.00    +0.000 C 
ATOM     21  C   UNL     1      -7.451   6.231 138.716  0.00  0.00    +0.000 C 
ATOM     22  C   UNL     1      -6.224   7.163 138.978  0.00  0.00    +0.000 C 
ATOM     23  C   UNL     1      -6.703   7.123 140.284  0.00  0.00    +0.000 C 
ATOM     24  N   UNL     1      -5.415   8.122 140.581  0.00  0.00    +0.000 N 
ATOM     25  C   UNL     1      -4.650   9.269 139.758  0.00  0.00    +0.000 C 
ATOM     26  O   UNL     1      -4.208  10.309 140.274  0.00  0.00    +0.000 OA
ATOM     27  C   UNL     1      -6.454   8.725 141.080  0.00  0.00    +0.000 A 
ATOM     28  C   UNL     1      -6.752   8.143 142.684  0.00  0.00    +0.000 A 
ATOM     29  C   UNL     1      -7.417   8.685 143.725  0.00  0.00    +0.000 A 
ATOM     30  C   UNL     1      -7.509   9.887 143.193  0.00  0.00    +0.000 A 
ATOM     31  C   UNL     1      -7.394   9.916 141.325  0.00  0.00    +0.000 A 
ATOM     32  C   UNL     1      -7.202   9.052 139.668  0.00  0.00    +0.000 A 
BRANCH  25  33
ATOM     33  C   UNL     1      -4.296   9.044 138.269  0.00  0.00    +0.000 A 
ATOM     34  C   UNL     1      -3.443   8.066 137.611  0.00  0.00    +0.000 A 
ATOM     35  C   UNL     1      -2.529   8.472 136.607  0.00  0.00    +0.000 A 
ATOM     36  C   UNL     1      -2.816   9.614 135.926  0.00  0.00    +0.000 A 
ATOM     37  C   UNL     1      -4.002  10.246 136.296  0.00  0.00    +0.000 A 
ATOM     38  C   UNL     1      -4.640  10.104 137.517  0.00  0.00    +0.000 A 
BRANCH  36  39
ATOM     39  N   UNL     1      -2.023  10.020 134.835  0.00  0.00    +0.000 N 
ATOM     40  C   UNL     1      -1.181  11.115 134.926  0.00  0.00    +0.000 C 
ATOM     41  O   UNL     1      -1.005  11.783 135.939  0.00  0.00    +0.000 OA
ATOM     42  H   UNL     1      -2.066   9.472 133.964  0.00  0.00    +0.000 HD
BRANCH  40  43
ATOM     43  C   UNL     1      -0.409  11.517 133.730  0.00  0.00    +0.000 A 
ATOM     44  C   UNL     1       0.813  10.923 133.428  0.00  0.00    +0.000 A 
ATOM     45  C   UNL     1       1.673  11.527 132.514  0.00  0.00    +0.000 A 
ATOM     46  C   UNL     1       1.212  12.556 131.714  0.00  0.00    +0.000 A 
ATOM     47  C   UNL     1      -0.118  12.946 131.808  0.00  0.00    +0.000 A 
ATOM     48  C   UNL     1      -0.910  12.514 132.881  0.00  0.00    +0.000 A 
ATOM     49  C   UNL     1      -2.238  13.162 133.144  0.00  0.00    +0.000 C 
ENDBRANCH  40  43
ENDBRANCH  36  39
ENDBRANCH  25  33
ENDBRANCH  18  20
ENDBRANCH  15  16
ENDBRANCH  14  15
ENDBRANCH  11  14
ENDBRANCH   9  10
ENDBRANCH   6   9
ENDBRANCH   3   4
ENDBRANCH   2   3
ENDBRANCH   1   2
BRANCH   1  50
ATOM     50  C   UNL     1      -6.878   2.571 123.275  0.00  0.00    +0.000 C 
BRANCH  50  51
ATOM     51  C   UNL     1      -8.259   3.177 123.364  0.00  0.00    +0.000 C 
BRANCH  51  52
ATOM     52  O   UNL     1      -9.181   2.356 122.657  0.00  0.00    +0.000 OA
BRANCH  52  53
ATOM     53  C   UNL     1      -9.192   1.052 123.233  0.00  0.00    +0.000 C 
BRANCH  53  54
ATOM     54  C   UNL     1     -10.137   0.164 122.455  0.00  0.00    +0.000 C 
BRANCH  54  55
ATOM     55  O   UNL     1      -9.855  -1.203 122.743  0.00  0.00    +0.000 OA
BRANCH  55  56
ATOM     56  C   UNL     1      -8.443  -1.419 122.724  0.00  0.00    +0.000 C 
BRANCH  56  57
ATOM     57  C   UNL     1      -8.112  -2.651 123.552  0.00  0.00    +0.000 C 
BRANCH  57  58
ATOM     58  N   UNL     1      -7.427  -2.288 124.822  0.00  0.00    +0.000 NA
ATOM     59  H   UNL     1      -6.576  -2.849 124.934  0.00  0.00    +0.000 HD
BRANCH  58  60
ATOM     60  S   UNL     1      -8.478  -2.472 126.163  0.00  0.00    +0.000 S 
ATOM     61  O   UNL     1      -8.547  -3.893 126.439  0.00  0.00    +0.000 OA
ATOM     62  O   UNL     1      -9.690  -1.730 125.886  0.00  0.00    +0.000 OA
BRANCH  60  66
ATOM     63  C   UNL     1      -6.554  -0.584 129.881  0.00  0.00    +0.000 A 
ATOM     64  C   UNL     1      -7.746  -0.077 129.317  0.00  0.00    +0.000 A 
ATOM     65  C   UNL     1      -8.353  -0.713 128.235  0.00  0.00    +0.000 A 
ATOM     66  C   UNL     1      -7.641  -1.684 127.538  0.00  0.00    +0.000 A 
ATOM     67  C   UNL     1      -6.339  -2.020 127.959  0.00  0.00    +0.000 A 
ATOM     68  C   UNL     1      -5.851  -1.587 129.215  0.00  0.00    +0.000 A 
BRANCH  63  73
ATOM     69  C   UNL     1      -6.855  -2.224 134.791  0.00  0.00    +0.000 A 
ATOM     70  C   UNL     1      -7.314  -2.672 133.548  0.00  0.00    +0.000 A 
ATOM     71  C   UNL     1      -7.050  -1.991 132.382  0.00  0.00    +0.000 A 
ATOM     72  C   UNL     1      -6.329  -0.815 132.427  0.00  0.00    +0.000 A 
ATOM     73  C   UNL     1      -6.139  -0.075 131.188  0.00  0.00    +0.000 A 
ATOM     74  C   UNL     1      -5.459   1.074 131.275  0.00  0.00    +0.000 A 
ATOM     75  C   UNL     1      -5.123   1.852 130.097  0.00  0.00    +0.000 A 
ATOM     76  C   UNL     1      -4.315   2.902 130.112  0.00  0.00    +0.000 A 
ATOM     77  C   UNL     1      -3.771   3.377 131.383  0.00  0.00    +0.000 A 
ATOM     78  N   UNL     1      -3.058   4.460 131.436  0.00  0.00    +0.000 N 
ATOM     79  C   UNL     1      -4.144   2.532 132.527  0.00  0.00    +0.000 A 
ATOM     80  C   UNL     1      -4.894   1.458 132.518  0.00  0.00    +0.000 A 
ATOM     81  O   UNL     1      -5.102   0.788 133.712  0.00  0.00    +0.000 OA
ATOM     82  C   UNL     1      -5.838  -0.353 133.640  0.00  0.00    +0.000 A 
ATOM     83  C   UNL     1      -6.106  -1.041 134.815  0.00  0.00    +0.000 A 
BRANCH  78  84
ATOM     84  C   UNL     1      -2.491   5.050 132.702  0.00  0.00    +0.000 C 
ATOM     85  C   UNL     1      -3.418   5.974 133.401  0.00  0.00    +0.000 C 
ENDBRANCH  78  84
BRANCH  78  86
ATOM     86  C   UNL     1      -2.773   5.205 130.148  0.00  0.00    +0.000 C 
ATOM     87  C   UNL     1      -1.813   6.340 130.368  0.00  0.00    +0.000 C 
ENDBRANCH  78  86
BRANCH  69  88
ATOM     88  N   UNL     1      -7.139  -2.945 135.957  0.00  0.00    +0.000 N 
BRANCH  88  89
ATOM     89  C   UNL     1      -8.373  -3.745 135.978  0.00  0.00    +0.000 C 
ATOM     90  C   UNL     1      -8.192  -5.236 135.931  0.00  0.00    +0.000 C 
ENDBRANCH  88  89
BRANCH  88  92
ATOM     91  C   UNL     1      -6.746  -2.629 138.431  0.00  0.00    +0.000 C 
ATOM     92  C   UNL     1      -6.166  -2.838 137.062  0.00  0.00    +0.000 C 
ENDBRANCH  88  92
ENDBRANCH  69  88
ENDBRANCH  63  73
BRANCH  68  93
ATOM     93  S   UNL     1      -4.256  -2.344 129.934  0.00  0.00    +0.000 S 
ATOM     94  O   UNL     1      -4.782  -3.265 130.926  0.00  0.00    +0.000 OA
ATOM     95  O   UNL     1      -3.657  -2.928 128.735  0.00  0.00    +0.000 OA
ATOM     96  O   UNL     1      -3.443  -1.288 130.531  0.00  0.00    +0.000 OA
ENDBRANCH  68  93
ENDBRANCH  60  66
ENDBRANCH  58  60
ENDBRANCH  57  58
ENDBRANCH  56  57
ENDBRANCH  55  56
ENDBRANCH  54  55
ENDBRANCH  53  54
ENDBRANCH  52  53
ENDBRANCH  51  52
ENDBRANCH  50  51
ENDBRANCH   1  50
TORSDOF 30
ENDMDL
MODEL 9
REMARK VINA RESULT:      -9.2      2.736     10.860
REMARK  Name = CHEMBL2172293
REMARK  35 active torsions:
REMARK  status: ('A' for Active; 'I' for Inactive)
REMARK    1  A    between atoms: C_1  and  C_2
REMARK    2  A    between atoms: C_2  and  N_3
REMARK    3  A    between atoms: N_3  and  C_4
REMARK    4  A    between atoms: N_3  and  C_6
REMARK    5  A    between atoms: C_4  and  C_5
REMARK    6  A    between atoms: C_10  and  C_11
REMARK    7  A    between atoms: C_14  and  S_15
REMARK    8  A    between atoms: S_15  and  N_18
REMARK    9  A    between atoms: N_18  and  C_19
REMARK   10  A    between atoms: C_19  and  C_20
REMARK   11  A    between atoms: C_20  and  O_21
REMARK   12  A    between atoms: O_21  and  C_22
REMARK   13  A    between atoms: C_22  and  C_23
REMARK   14  A    between atoms: C_23  and  O_24
REMARK   15  A    between atoms: O_24  and  C_25
REMARK   16  A    between atoms: C_25  and  C_26
REMARK   17  A    between atoms: C_26  and  O_27
REMARK   18  A    between atoms: O_27  and  C_28
REMARK   19  A    between atoms: C_28  and  C_29
REMARK   20  A    between atoms: C_29  and  N_30
REMARK   21  A    between atoms: C_32  and  C_33
REMARK   22  A    between atoms: C_33  and  N_34
REMARK   23  A    between atoms: C_35  and  C_37
REMARK   24  A    between atoms: C_37  and  C_38
REMARK   25  A    between atoms: C_38  and  C_39
REMARK   26  A    between atoms: N_41  and  C_42
REMARK   27  A    between atoms: C_47  and  C_49
REMARK   28  A    between atoms: C_52  and  N_53
REMARK   29  A    between atoms: C_54  and  C_56
REMARK   30  A    between atoms: C_61  and  C_62
REMARK   31  A    between atoms: C_74  and  S_75
REMARK   32  A    between atoms: N_83  and  C_84
REMARK   33  A    between atoms: N_83  and  C_86
REMARK   34  A    between atoms: C_84  and  C_85
REMARK   35  A    between atoms: C_86  and  C_87
REMARK                            x       y       z     vdW  Elec       q    Type
REMARK                         _______ _______ _______ _____ _____    ______ ____
ROOT
ATOM      1  O   UNL     1      -9.368   6.067 126.859  0.00  0.00    +0.000 OA
ENDROOT
BRANCH   1   2
ATOM      2  C   UNL     1     -10.251   6.956 126.195  0.00  0.00    +0.000 C 
BRANCH   2   3
ATOM      3  C   UNL     1     -10.812   7.987 127.161  0.00  0.00    +0.000 C 
BRANCH   3   4
ATOM      4  N   UNL     1     -11.323   7.339 128.351  0.00  0.00    +0.000 N 
ATOM      5  C   UNL     1     -10.825   7.451 129.611  0.00  0.00    +0.000 A 
ATOM      6  C   UNL     1     -11.642   6.699 130.410  0.00  0.00    +0.000 A 
ATOM      7  N   UNL     1     -12.612   6.140 129.606  0.00  0.00    +0.000 NA
ATOM      8  N   UNL     1     -12.404   6.541 128.346  0.00  0.00    +0.000 NA
BRANCH   6   9
ATOM      9  C   UNL     1     -11.534   6.494 131.891  0.00  0.00    +0.000 C 
BRANCH   9  10
ATOM     10  N   UNL     1     -10.191   5.967 132.292  0.00  0.00    +0.000 N 
ATOM     11  C   UNL     1      -9.723   4.717 131.871  0.00  0.00    +0.000 C 
ATOM     12  O   UNL     1     -10.427   4.016 131.146  0.00  0.00    +0.000 OA
ATOM     13  H   UNL     1      -9.628   6.558 132.885  0.00  0.00    +0.000 HD
BRANCH  11  14
ATOM     14  C   UNL     1      -8.274   4.209 132.339  0.00  0.00    +0.000 C 
BRANCH  14  15
ATOM     15  C   UNL     1      -8.099   3.764 134.077  0.00  0.00    +0.000 C 
BRANCH  15  16
ATOM     16  C   UNL     1      -7.042   4.855 135.300  0.00  0.00    +0.000 C 
ATOM     17  O   UNL     1      -5.881   4.548 134.916  0.00  0.00    +0.000 OA
ATOM     18  N   UNL     1      -7.495   6.116 136.555  0.00  0.00    +0.000 N 
ATOM     19  H   UNL     1      -8.384   5.558 136.550  0.00  0.00    +0.000 HD
BRANCH  18  20
ATOM     20  C   UNL     1      -7.226   7.454 138.075  0.00  0.00    +0.000 C 
ATOM     21  C   UNL     1      -7.670   6.273 138.696  0.00  0.00    +0.000 C 
ATOM     22  C   UNL     1      -6.375   7.107 138.962  0.00  0.00    +0.000 C 
ATOM     23  C   UNL     1      -6.803   7.012 140.282  0.00  0.00    +0.000 C 
ATOM     24  N   UNL     1      -5.442   7.908 140.583  0.00  0.00    +0.000 N 
ATOM     25  C   UNL     1      -4.638   9.057 139.801  0.00  0.00    +0.000 C 
ATOM     26  O   UNL     1      -4.110  10.031 140.361  0.00  0.00    +0.000 OA
ATOM     27  C   UNL     1      -6.418   8.540 141.165  0.00  0.00    +0.000 A 
ATOM     28  C   UNL     1      -6.689   7.873 142.741  0.00  0.00    +0.000 A 
ATOM     29  C   UNL     1      -7.274   8.387 143.843  0.00  0.00    +0.000 A 
ATOM     30  C   UNL     1      -7.310   9.624 143.392  0.00  0.00    +0.000 A 
ATOM     31  C   UNL     1      -7.270   9.768 141.527  0.00  0.00    +0.000 A 
ATOM     32  C   UNL     1      -7.201   9.004 139.811  0.00  0.00    +0.000 A 
BRANCH  25  33
ATOM     33  C   UNL     1      -4.360   8.909 138.287  0.00  0.00    +0.000 A 
ATOM     34  C   UNL     1      -3.577   7.940 137.534  0.00  0.00    +0.000 A 
ATOM     35  C   UNL     1      -2.693   8.372 136.513  0.00  0.00    +0.000 A 
ATOM     36  C   UNL     1      -2.964   9.562 135.914  0.00  0.00    +0.000 A 
ATOM     37  C   UNL     1      -4.106  10.214 136.376  0.00  0.00    +0.000 A 
ATOM     38  C   UNL     1      -4.694  10.024 137.614  0.00  0.00    +0.000 A 
BRANCH  36  39
ATOM     39  N   UNL     1      -2.204  10.003 134.813  0.00  0.00    +0.000 N 
ATOM     40  C   UNL     1      -1.348  11.086 134.917  0.00  0.00    +0.000 C 
ATOM     41  O   UNL     1      -1.130  11.711 135.949  0.00  0.00    +0.000 OA
ATOM     42  H   UNL     1      -2.284   9.490 133.923  0.00  0.00    +0.000 HD
BRANCH  40  43
ATOM     43  C   UNL     1      -0.613  11.526 133.711  0.00  0.00    +0.000 A 
ATOM     44  C   UNL     1       0.606  10.954 133.361  0.00  0.00    +0.000 A 
ATOM     45  C   UNL     1       1.435  11.591 132.440  0.00  0.00    +0.000 A 
ATOM     46  C   UNL     1       0.941  12.635 131.679  0.00  0.00    +0.000 A 
ATOM     47  C   UNL     1      -0.391  13.007 131.820  0.00  0.00    +0.000 A 
ATOM     48  C   UNL     1      -1.148  12.539 132.902  0.00  0.00    +0.000 A 
ATOM     49  C   UNL     1      -2.475  13.165 133.218  0.00  0.00    +0.000 C 
ENDBRANCH  40  43
ENDBRANCH  36  39
ENDBRANCH  25  33
ENDBRANCH  18  20
ENDBRANCH  15  16
ENDBRANCH  14  15
ENDBRANCH  11  14
ENDBRANCH   9  10
ENDBRANCH   6   9
ENDBRANCH   3   4
ENDBRANCH   2   3
ENDBRANCH   1   2
BRANCH   1  50
ATOM     50  C   UNL     1      -8.580   5.373 125.892  0.00  0.00    +0.000 C 
BRANCH  50  51
ATOM     51  C   UNL     1      -7.887   4.206 126.556  0.00  0.00    +0.000 C 
BRANCH  51  52
ATOM     52  O   UNL     1      -8.508   2.994 126.145  0.00  0.00    +0.000 OA
BRANCH  52  53
ATOM     53  C   UNL     1      -8.293   2.800 124.749  0.00  0.00    +0.000 C 
BRANCH  53  54
ATOM     54  C   UNL     1      -9.450   2.024 124.162  0.00  0.00    +0.000 C 
BRANCH  54  55
ATOM     55  O   UNL     1      -8.954   1.002 123.303  0.00  0.00    +0.000 OA
BRANCH  55  56
ATOM     56  C   UNL     1      -8.054   0.159 124.025  0.00  0.00    +0.000 C 
BRANCH  56  57
ATOM     57  C   UNL     1      -8.830  -0.992 124.645  0.00  0.00    +0.000 C 
BRANCH  57  58
ATOM     58  N   UNL     1      -8.750  -0.968 126.131  0.00  0.00    +0.000 NA
ATOM     59  H   UNL     1      -8.260  -0.122 126.442  0.00  0.00    +0.000 HD
BRANCH  58  60
ATOM     60  S   UNL     1      -7.995  -2.384 126.730  0.00  0.00    +0.000 S 
ATOM     61  O   UNL     1      -7.099  -2.845 125.688  0.00  0.00    +0.000 OA
ATOM     62  O   UNL     1      -9.029  -3.263 127.235  0.00  0.00    +0.000 OA
BRANCH  60  66
ATOM     63  C   UNL     1      -5.408  -0.714 130.137  0.00  0.00    +0.000 A 
ATOM     64  C   UNL     1      -4.853  -1.095 128.895  0.00  0.00    +0.000 A 
ATOM     65  C   UNL     1      -5.668  -1.527 127.850  0.00  0.00    +0.000 A 
ATOM     66  C   UNL     1      -6.996  -1.844 128.116  0.00  0.00    +0.000 A 
ATOM     67  C   UNL     1      -7.491  -1.693 129.427  0.00  0.00    +0.000 A 
ATOM     68  C   UNL     1      -6.749  -0.986 130.403  0.00  0.00    +0.000 A 
BRANCH  63  73
ATOM     69  C   UNL     1      -4.367   4.271 131.115  0.00  0.00    +0.000 A 
ATOM     70  C   UNL     1      -5.121   3.564 130.173  0.00  0.00    +0.000 A 
ATOM     71  C   UNL     1      -5.207   2.191 130.186  0.00  0.00    +0.000 A 
ATOM     72  C   UNL     1      -4.515   1.473 131.140  0.00  0.00    +0.000 A 
ATOM     73  C   UNL     1      -4.559   0.019 131.075  0.00  0.00    +0.000 A 
ATOM     74  C   UNL     1      -3.854  -0.643 132.000  0.00  0.00    +0.000 A 
ATOM     75  C   UNL     1      -3.895  -2.090 132.097  0.00  0.00    +0.000 A 
ATOM     76  C   UNL     1      -3.351  -2.778 133.091  0.00  0.00    +0.000 A 
ATOM     77  C   UNL     1      -2.595  -2.077 134.126  0.00  0.00    +0.000 A 
ATOM     78  N   UNL     1      -1.971  -2.736 135.053  0.00  0.00    +0.000 N 
ATOM     79  C   UNL     1      -2.609  -0.615 133.968  0.00  0.00    +0.000 A 
ATOM     80  C   UNL     1      -3.191   0.082 133.024  0.00  0.00    +0.000 A 
ATOM     81  O   UNL     1      -3.104   1.463 133.073  0.00  0.00    +0.000 OA
ATOM     82  C   UNL     1      -3.776   2.142 132.105  0.00  0.00    +0.000 A 
ATOM     83  C   UNL     1      -3.689   3.528 132.089  0.00  0.00    +0.000 A 
BRANCH  78  84
ATOM     84  C   UNL     1      -1.133  -2.106 136.136  0.00  0.00    +0.000 C 
ATOM     85  C   UNL     1       0.200  -2.736 136.308  0.00  0.00    +0.000 C 
ENDBRANCH  78  84
BRANCH  78  86
ATOM     86  C   UNL     1      -2.069  -4.248 135.060  0.00  0.00    +0.000 C 
ATOM     87  C   UNL     1      -2.846  -4.746 136.247  0.00  0.00    +0.000 C 
ENDBRANCH  78  86
BRANCH  69  88
ATOM     88  N   UNL     1      -4.305   5.669 131.074  0.00  0.00    +0.000 N 
BRANCH  88  89
ATOM     89  C   UNL     1      -3.246   6.279 130.256  0.00  0.00    +0.000 C 
ATOM     90  C   UNL     1      -2.676   5.416 129.166  0.00  0.00    +0.000 C 
ENDBRANCH  88  89
BRANCH  88  92
ATOM     91  C   UNL     1      -6.454   6.995 131.074  0.00  0.00    +0.000 C 
ATOM     92  C   UNL     1      -5.317   6.405 131.858  0.00  0.00    +0.000 C 
ENDBRANCH  88  92
ENDBRANCH  69  88
ENDBRANCH  63  73
BRANCH  68  93
ATOM     93  S   UNL     1      -7.574  -0.468 132.041  0.00  0.00    +0.000 S 
ATOM     94  O   UNL     1      -8.976  -0.411 131.666  0.00  0.00    +0.000 OA
ATOM     95  O   UNL     1      -7.165  -1.561 132.921  0.00  0.00    +0.000 OA
ATOM     96  O   UNL     1      -7.057   0.832 132.456  0.00  0.00    +0.000 OA
ENDBRANCH  68  93
ENDBRANCH  60  66
ENDBRANCH  58  60
ENDBRANCH  57  58
ENDBRANCH  56  57
ENDBRANCH  55  56
ENDBRANCH  54  55
ENDBRANCH  53  54
ENDBRANCH  52  53
ENDBRANCH  51  52
ENDBRANCH  50  51
ENDBRANCH   1  50
TORSDOF 30
ENDMDL
