MODEL 1
REMARK VINA RESULT:      -9.5      0.000      0.000
REMARK  Name = CHEMBL1779419
REMARK  12 active torsions:
REMARK  status: ('A' for Active; 'I' for Inactive)
REMARK    1  A    between atoms: C_1  and  N_2
REMARK    2  A    between atoms: N_2  and  C_3
REMARK    3  A    between atoms: C_3  and  C_4
REMARK    4  A    between atoms: C_7  and  O_8
REMARK    5  A    between atoms: O_8  and  C_9
REMARK    6  A    between atoms: C_10  and  C_11
REMARK    7  A    between atoms: C_11  and  N_12
REMARK    8  A    between atoms: C_16  and  C_17
REMARK    9  A    between atoms: N_24  and  S_25
REMARK   10  A    between atoms: S_25  and  C_28
REMARK   11  A    between atoms: C_31  and  O_32
REMARK   12  A    between atoms: O_32  and  C_33
REMARK                            x       y       z     vdW  Elec       q    Type
REMARK                         _______ _______ _______ _____ _____    ______ ____
ROOT
ATOM      1  C   UNL     1      -6.060   4.392 130.488  0.00  0.00    +0.000 C 
ATOM      2  C   UNL     1      -6.046   4.715 129.034  0.00  0.00    +0.000 C 
ATOM      3  O   UNL     1      -5.079   5.418 128.650  0.00  0.00    +0.000 OA
ATOM      4  N   UNL     1      -6.610   3.372 128.203  0.00  0.00    +0.000 N 
ATOM      5  C   UNL     1      -5.363   2.844 128.352  0.00  0.00    +0.000 A 
ATOM      6  C   UNL     1      -5.073   2.700 126.949  0.00  0.00    +0.000 A 
ATOM      7  C   UNL     1      -3.856   2.713 126.420  0.00  0.00    +0.000 A 
ATOM      8  C   UNL     1      -2.930   2.916 127.410  0.00  0.00    +0.000 A 
ATOM      9 CL   UNL     1      -1.329   2.858 126.706  0.00  0.00    +0.000 Cl
ATOM     10  C   UNL     1      -3.301   3.198 128.972  0.00  0.00    +0.000 A 
ATOM     11  C   UNL     1      -4.707   3.209 129.616  0.00  0.00    +0.000 A 
ENDROOT
BRANCH   1  16
ATOM     12  C   UNL     1     -10.106   6.173 130.091  0.00  0.00    +0.000 A 
ATOM     13  C   UNL     1     -10.780   4.967 130.039  0.00  0.00    +0.000 A 
ATOM     14  C   UNL     1     -10.070   3.869 130.491  0.00  0.00    +0.000 A 
ATOM     15  C   UNL     1      -8.642   3.961 130.673  0.00  0.00    +0.000 A 
ATOM     16  C   UNL     1      -7.842   4.933 130.325  0.00  0.00    +0.000 A 
ATOM     17  C   UNL     1      -8.674   6.131 130.352  0.00  0.00    +0.000 A 
BRANCH  15  18
ATOM     18  O   UNL     1      -7.820   3.300 131.519  0.00  0.00    +0.000 OA
ATOM     19  C   UNL     1      -7.286   2.125 132.621  0.00  0.00    +0.000 C 
ENDBRANCH  15  18
BRANCH  12  20
ATOM     20  C   UNL     1     -10.836   7.486 129.805  0.00  0.00    +0.000 C 
BRANCH  20  22
ATOM     21  C   UNL     1     -10.788   7.916 127.416  0.00  0.00    +0.000 C 
ATOM     22  N   UNL     1     -10.237   8.278 128.713  0.00  0.00    +0.000 NA
ATOM     23  H   UNL     1     -10.454   9.261 128.863  0.00  0.00    +0.000 HD
ENDBRANCH  20  22
ENDBRANCH  12  20
ENDBRANCH   1  16
BRANCH   1  24
ATOM     24  N   UNL     1      -6.273   4.975 132.009  0.00  0.00    +0.000 NA
ATOM     25  C   UNL     1      -5.961   6.459 132.039  0.00  0.00    +0.000 C 
ATOM     26  C   UNL     1      -4.644   6.243 131.455  0.00  0.00    +0.000 C 
ATOM     27  C   UNL     1      -4.183   5.015 132.331  0.00  0.00    +0.000 C 
ATOM     28  C   UNL     1      -5.405   4.376 133.001  0.00  0.00    +0.000 C 
BRANCH  28  29
ATOM     29  C   UNL     1      -5.485   4.771 134.491  0.00  0.00    +0.000 A 
ATOM     30  N   UNL     1      -6.548   4.766 135.281  0.00  0.00    +0.000 NA
ATOM     31  C   UNL     1      -6.212   5.584 136.330  0.00  0.00    +0.000 A 
ATOM     32  C   UNL     1      -4.926   6.033 136.182  0.00  0.00    +0.000 A 
ATOM     33  O   UNL     1      -4.437   5.519 135.011  0.00  0.00    +0.000 OA
ENDBRANCH  28  29
ENDBRANCH   1  24
BRANCH   4  34
ATOM     34  S   UNL     1      -7.886   1.574 128.356  0.00  0.00    +0.000 S 
ATOM     35  O   UNL     1      -7.520   1.034 129.594  0.00  0.00    +0.000 OA
ATOM     36  O   UNL     1      -9.309   1.955 128.063  0.00  0.00    +0.000 OA
BRANCH  34  37
ATOM     37  C   UNL     1      -7.401   0.033 126.679  0.00  0.00    +0.000 A 
ATOM     38  C   UNL     1      -7.563  -1.625 126.788  0.00  0.00    +0.000 A 
ATOM     39  C   UNL     1      -7.834  -2.579 125.864  0.00  0.00    +0.000 A 
ATOM     40  C   UNL     1      -7.817  -2.002 124.665  0.00  0.00    +0.000 A 
ATOM     41  C   UNL     1      -7.582  -0.548 124.482  0.00  0.00    +0.000 A 
ATOM     42  C   UNL     1      -7.469   0.494 125.459  0.00  0.00    +0.000 A 
BRANCH  40  43
ATOM     43  O   UNL     1      -8.031  -2.941 123.697  0.00  0.00    +0.000 OA
ATOM     44  C   UNL     1      -9.398  -3.191 123.537  0.00  0.00    +0.000 C 
ENDBRANCH  40  43
ENDBRANCH  34  37
ENDBRANCH   4  34
TORSDOF 9
ENDMDL
MODEL 2
REMARK VINA RESULT:      -9.0      3.414      7.254
REMARK  Name = CHEMBL1779419
REMARK  12 active torsions:
REMARK  status: ('A' for Active; 'I' for Inactive)
REMARK    1  A    between atoms: C_1  and  N_2
REMARK    2  A    between atoms: N_2  and  C_3
REMARK    3  A    between atoms: C_3  and  C_4
REMARK    4  A    between atoms: C_7  and  O_8
REMARK    5  A    between atoms: O_8  and  C_9
REMARK    6  A    between atoms: C_10  and  C_11
REMARK    7  A    between atoms: C_11  and  N_12
REMARK    8  A    between atoms: C_16  and  C_17
REMARK    9  A    between atoms: N_24  and  S_25
REMARK   10  A    between atoms: S_25  and  C_28
REMARK   11  A    between atoms: C_31  and  O_32
REMARK   12  A    between atoms: O_32  and  C_33
REMARK                            x       y       z     vdW  Elec       q    Type
REMARK                         _______ _______ _______ _____ _____    ______ ____
ROOT
ATOM      1  C   UNL     1      -6.995   1.999 130.992  0.00  0.00    +0.000 C 
ATOM      2  C   UNL     1      -6.561   3.294 130.400  0.00  0.00    +0.000 C 
ATOM      3  O   UNL     1      -5.560   3.231 129.645  0.00  0.00    +0.000 OA
ATOM      4  N   UNL     1      -7.937   4.187 130.050  0.00  0.00    +0.000 N 
ATOM      5  C   UNL     1      -8.057   3.428 128.925  0.00  0.00    +0.000 A 
ATOM      6  C   UNL     1      -7.983   4.514 127.982  0.00  0.00    +0.000 A 
ATOM      7  C   UNL     1      -7.543   4.407 126.735  0.00  0.00    +0.000 A 
ATOM      8  C   UNL     1      -7.145   3.117 126.500  0.00  0.00    +0.000 A 
ATOM      9 CL   UNL     1      -6.637   2.978 124.831  0.00  0.00    +0.000 Cl
ATOM     10  C   UNL     1      -7.128   1.940 127.628  0.00  0.00    +0.000 A 
ATOM     11  C   UNL     1      -7.614   2.037 129.093  0.00  0.00    +0.000 A 
ENDROOT
BRANCH   1  16
ATOM     12  C   UNL     1      -6.550   4.369 134.717  0.00  0.00    +0.000 A 
ATOM     13  C   UNL     1      -7.890   4.688 134.836  0.00  0.00    +0.000 A 
ATOM     14  C   UNL     1      -8.755   3.904 134.093  0.00  0.00    +0.000 A 
ATOM     15  C   UNL     1      -8.241   3.061 133.043  0.00  0.00    +0.000 A 
ATOM     16  C   UNL     1      -7.029   3.021 132.556  0.00  0.00    +0.000 A 
ATOM     17  C   UNL     1      -6.170   3.450 133.655  0.00  0.00    +0.000 A 
BRANCH  15  18
ATOM     18  O   UNL     1      -8.710   1.897 132.541  0.00  0.00    +0.000 OA
ATOM     19  C   UNL     1      -9.821   0.733 131.999  0.00  0.00    +0.000 C 
ENDBRANCH  15  18
BRANCH  12  20
ATOM     20  C   UNL     1      -5.511   5.027 135.625  0.00  0.00    +0.000 C 
BRANCH  20  22
ATOM     21  C   UNL     1      -4.000   3.542 136.810  0.00  0.00    +0.000 C 
ATOM     22  N   UNL     1      -4.198   4.353 135.619  0.00  0.00    +0.000 NA
ATOM     23  H   UNL     1      -4.156   3.723 134.820  0.00  0.00    +0.000 HD
ENDBRANCH  20  22
ENDBRANCH  12  20
ENDBRANCH   1  16
BRANCH   1  24
ATOM     24  N   UNL     1      -6.640   0.806 132.065  0.00  0.00    +0.000 NA
ATOM     25  C   UNL     1      -5.136   0.641 132.171  0.00  0.00    +0.000 C 
ATOM     26  C   UNL     1      -5.005   0.468 130.730  0.00  0.00    +0.000 C 
ATOM     27  C   UNL     1      -6.198  -0.537 130.492  0.00  0.00    +0.000 C 
ATOM     28  C   UNL     1      -7.148  -0.497 131.694  0.00  0.00    +0.000 C 
BRANCH  28  29
ATOM     29  C   UNL     1      -6.945  -1.732 132.597  0.00  0.00    +0.000 A 
ATOM     30  N   UNL     1      -6.187  -2.795 132.370  0.00  0.00    +0.000 NA
ATOM     31  C   UNL     1      -6.669  -3.760 133.217  0.00  0.00    +0.000 A 
ATOM     32  C   UNL     1      -7.683  -3.248 133.983  0.00  0.00    +0.000 A 
ATOM     33  O   UNL     1      -7.874  -1.945 133.607  0.00  0.00    +0.000 OA
ENDBRANCH  28  29
ENDBRANCH   1  24
BRANCH   4  34
ATOM     34  S   UNL     1     -10.052   4.513 130.606  0.00  0.00    +0.000 S 
ATOM     35  O   UNL     1     -10.655   3.295 130.276  0.00  0.00    +0.000 OA
ATOM     36  O   UNL     1     -10.114   5.059 132.003  0.00  0.00    +0.000 OA
BRANCH  34  37
ATOM     37  C   UNL     1     -11.019   6.211 129.338  0.00  0.00    +0.000 A 
ATOM     38  C   UNL     1     -12.646   6.395 129.016  0.00  0.00    +0.000 A 
ATOM     39  C   UNL     1     -13.415   7.488 128.788  0.00  0.00    +0.000 A 
ATOM     40  C   UNL     1     -12.606   8.540 128.689  0.00  0.00    +0.000 A 
ATOM     41  C   UNL     1     -11.136   8.438 128.866  0.00  0.00    +0.000 A 
ATOM     42  C   UNL     1     -10.337   7.324 129.280  0.00  0.00    +0.000 A 
BRANCH  40  43
ATOM     43  O   UNL     1     -13.336   9.659 128.402  0.00  0.00    +0.000 OA
ATOM     44  C   UNL     1     -13.420  10.499 129.517  0.00  0.00    +0.000 C 
ENDBRANCH  40  43
ENDBRANCH  34  37
ENDBRANCH   4  34
TORSDOF 9
ENDMDL
MODEL 3
REMARK VINA RESULT:      -9.0      3.361      7.900
REMARK  Name = CHEMBL1779419
REMARK  12 active torsions:
REMARK  status: ('A' for Active; 'I' for Inactive)
REMARK    1  A    between atoms: C_1  and  N_2
REMARK    2  A    between atoms: N_2  and  C_3
REMARK    3  A    between atoms: C_3  and  C_4
REMARK    4  A    between atoms: C_7  and  O_8
REMARK    5  A    between atoms: O_8  and  C_9
REMARK    6  A    between atoms: C_10  and  C_11
REMARK    7  A    between atoms: C_11  and  N_12
REMARK    8  A    between atoms: C_16  and  C_17
REMARK    9  A    between atoms: N_24  and  S_25
REMARK   10  A    between atoms: S_25  and  C_28
REMARK   11  A    between atoms: C_31  and  O_32
REMARK   12  A    between atoms: O_32  and  C_33
REMARK                            x       y       z     vdW  Elec       q    Type
REMARK                         _______ _______ _______ _____ _____    ______ ____
ROOT
ATOM      1  C   UNL     1      -4.444   4.083 129.759  0.00  0.00    +0.000 C 
ATOM      2  C   UNL     1      -3.653   4.082 131.020  0.00  0.00    +0.000 C 
ATOM      3  O   UNL     1      -2.512   4.601 130.938  0.00  0.00    +0.000 OA
ATOM      4  N   UNL     1      -4.711   4.350 132.293  0.00  0.00    +0.000 N 
ATOM      5  C   UNL     1      -4.656   5.672 131.967  0.00  0.00    +0.000 A 
ATOM      6  C   UNL     1      -4.147   6.136 133.231  0.00  0.00    +0.000 A 
ATOM      7  C   UNL     1      -3.416   7.229 133.401  0.00  0.00    +0.000 A 
ATOM      8  C   UNL     1      -3.197   7.825 132.186  0.00  0.00    +0.000 A 
ATOM      9 CL   UNL     1      -2.295   9.304 132.436  0.00  0.00    +0.000 Cl
ATOM     10  C   UNL     1      -3.684   7.207 130.758  0.00  0.00    +0.000 A 
ATOM     11  C   UNL     1      -4.519   5.926 130.526  0.00  0.00    +0.000 A 
ENDROOT
BRANCH   1  16
ATOM     12  C   UNL     1      -4.595  -0.246 130.726  0.00  0.00    +0.000 A 
ATOM     13  C   UNL     1      -5.876  -0.224 131.245  0.00  0.00    +0.000 A 
ATOM     14  C   UNL     1      -6.634   0.885 130.912  0.00  0.00    +0.000 A 
ATOM     15  C   UNL     1      -5.995   2.051 130.353  0.00  0.00    +0.000 A 
ATOM     16  C   UNL     1      -4.718   2.296 130.234  0.00  0.00    +0.000 A 
ATOM     17  C   UNL     1      -4.093   0.981 130.126  0.00  0.00    +0.000 A 
BRANCH  15  18
ATOM     18  O   UNL     1      -6.473   2.998 129.515  0.00  0.00    +0.000 OA
ATOM     19  C   UNL     1      -7.580   3.868 128.567  0.00  0.00    +0.000 C 
ENDBRANCH  15  18
BRANCH  12  20
ATOM     20  C   UNL     1      -3.724  -1.495 130.857  0.00  0.00    +0.000 C 
BRANCH  20  22
ATOM     21  C   UNL     1      -3.559  -3.354 129.305  0.00  0.00    +0.000 C 
ATOM     22  N   UNL     1      -3.173  -1.978 129.576  0.00  0.00    +0.000 NA
ATOM     23  H   UNL     1      -3.552  -1.410 128.821  0.00  0.00    +0.000 HD
ENDBRANCH  20  22
ENDBRANCH  12  20
ENDBRANCH   1  16
BRANCH   1  24
ATOM     24  N   UNL     1      -4.599   3.455 128.248  0.00  0.00    +0.000 NA
ATOM     25  C   UNL     1      -3.236   3.051 127.718  0.00  0.00    +0.000 C 
ATOM     26  C   UNL     1      -2.692   4.379 127.967  0.00  0.00    +0.000 C 
ATOM     27  C   UNL     1      -3.875   5.245 127.385  0.00  0.00    +0.000 C 
ATOM     28  C   UNL     1      -5.136   4.380 127.273  0.00  0.00    +0.000 C 
BRANCH  28  29
ATOM     29  C   UNL     1      -5.386   3.958 125.809  0.00  0.00    +0.000 A 
ATOM     30  N   UNL     1      -5.395   4.723 124.728  0.00  0.00    +0.000 NA
ATOM     31  C   UNL     1      -6.071   3.993 123.784  0.00  0.00    +0.000 A 
ATOM     32  C   UNL     1      -6.418   2.771 124.296  0.00  0.00    +0.000 A 
ATOM     33  O   UNL     1      -5.983   2.723 125.594  0.00  0.00    +0.000 OA
ENDBRANCH  28  29
ENDBRANCH   1  24
BRANCH   4  34
ATOM     34  S   UNL     1      -6.808   4.133 132.957  0.00  0.00    +0.000 S 
ATOM     35  O   UNL     1      -7.007   2.749 132.923  0.00  0.00    +0.000 OA
ATOM     36  O   UNL     1      -7.007   4.917 134.222  0.00  0.00    +0.000 OA
BRANCH  34  37
ATOM     37  C   UNL     1      -8.287   5.151 131.473  0.00  0.00    +0.000 A 
ATOM     38  C   UNL     1      -9.869   4.701 131.196  0.00  0.00    +0.000 A 
ATOM     39  C   UNL     1     -10.968   5.404 130.826  0.00  0.00    +0.000 A 
ATOM     40  C   UNL     1     -10.578   6.639 130.524  0.00  0.00    +0.000 A 
ATOM     41  C   UNL     1      -9.169   7.087 130.652  0.00  0.00    +0.000 A 
ATOM     42  C   UNL     1      -8.036   6.405 131.207  0.00  0.00    +0.000 A 
BRANCH  40  43
ATOM     43  O   UNL     1     -11.649   7.370 130.091  0.00  0.00    +0.000 OA
ATOM     44  C   UNL     1     -12.542   6.568 129.373  0.00  0.00    +0.000 C 
ENDBRANCH  40  43
ENDBRANCH  34  37
ENDBRANCH   4  34
TORSDOF 9
ENDMDL
MODEL 4
REMARK VINA RESULT:      -8.8      3.300      6.174
REMARK  Name = CHEMBL1779419
REMARK  12 active torsions:
REMARK  status: ('A' for Active; 'I' for Inactive)
REMARK    1  A    between atoms: C_1  and  N_2
REMARK    2  A    between atoms: N_2  and  C_3
REMARK    3  A    between atoms: C_3  and  C_4
REMARK    4  A    between atoms: C_7  and  O_8
REMARK    5  A    between atoms: O_8  and  C_9
REMARK    6  A    between atoms: C_10  and  C_11
REMARK    7  A    between atoms: C_11  and  N_12
REMARK    8  A    between atoms: C_16  and  C_17
REMARK    9  A    between atoms: N_24  and  S_25
REMARK   10  A    between atoms: S_25  and  C_28
REMARK   11  A    between atoms: C_31  and  O_32
REMARK   12  A    between atoms: O_32  and  C_33
REMARK                            x       y       z     vdW  Elec       q    Type
REMARK                         _______ _______ _______ _____ _____    ______ ____
ROOT
ATOM      1  C   UNL     1      -7.681   3.938 132.037  0.00  0.00    +0.000 C 
ATOM      2  C   UNL     1      -6.229   3.808 132.340  0.00  0.00    +0.000 C 
ATOM      3  O   UNL     1      -5.669   4.857 132.744  0.00  0.00    +0.000 OA
ATOM      4  N   UNL     1      -5.978   2.296 133.020  0.00  0.00    +0.000 N 
ATOM      5  C   UNL     1      -6.429   2.826 134.191  0.00  0.00    +0.000 A 
ATOM      6  C   UNL     1      -5.236   2.578 134.958  0.00  0.00    +0.000 A 
ATOM      7  C   UNL     1      -4.847   3.290 136.008  0.00  0.00    +0.000 A 
ATOM      8  C   UNL     1      -5.737   4.309 136.224  0.00  0.00    +0.000 A 
ATOM      9 CL   UNL     1      -5.249   5.192 137.654  0.00  0.00    +0.000 Cl
ATOM     10  C   UNL     1      -7.012   4.636 135.262  0.00  0.00    +0.000 A 
ATOM     11  C   UNL     1      -7.480   3.839 134.022  0.00  0.00    +0.000 A 
ENDROOT
BRANCH   1  16
ATOM     12  C   UNL     1      -6.261   2.284 128.171  0.00  0.00    +0.000 A 
ATOM     13  C   UNL     1      -6.675   0.988 128.418  0.00  0.00    +0.000 A 
ATOM     14  C   UNL     1      -7.602   0.844 129.435  0.00  0.00    +0.000 A 
ATOM     15  C   UNL     1      -7.836   1.930 130.355  0.00  0.00    +0.000 A 
ATOM     16  C   UNL     1      -7.170   3.047 130.475  0.00  0.00    +0.000 A 
ATOM     17  C   UNL     1      -6.622   3.302 129.147  0.00  0.00    +0.000 A 
BRANCH  15  18
ATOM     18  O   UNL     1      -8.942   2.263 131.058  0.00  0.00    +0.000 OA
ATOM     19  C   UNL     1     -10.414   2.084 131.882  0.00  0.00    +0.000 C 
ENDBRANCH  15  18
BRANCH  12  20
ATOM     20  C   UNL     1      -5.391   2.604 126.956  0.00  0.00    +0.000 C 
BRANCH  20  22
ATOM     21  C   UNL     1      -2.996   2.995 127.006  0.00  0.00    +0.000 C 
ATOM     22  N   UNL     1      -4.049   1.991 127.003  0.00  0.00    +0.000 NA
ATOM     23  H   UNL     1      -3.958   1.464 127.869  0.00  0.00    +0.000 HD
ENDBRANCH  20  22
ENDBRANCH  12  20
ENDBRANCH   1  16
BRANCH   1  24
ATOM     24  N   UNL     1      -8.808   4.569 131.021  0.00  0.00    +0.000 NA
ATOM     25  C   UNL     1      -8.263   5.823 130.364  0.00  0.00    +0.000 C 
ATOM     26  C   UNL     1      -7.943   6.419 131.654  0.00  0.00    +0.000 C 
ATOM     27  C   UNL     1      -9.281   6.084 132.420  0.00  0.00    +0.000 C 
ATOM     28  C   UNL     1     -10.034   4.976 131.675  0.00  0.00    +0.000 C 
BRANCH  28  29
ATOM     29  C   UNL     1     -11.221   5.558 130.878  0.00  0.00    +0.000 A 
ATOM     30  N   UNL     1     -11.616   5.244 129.653  0.00  0.00    +0.000 NA
ATOM     31  C   UNL     1     -12.394   6.298 129.251  0.00  0.00    +0.000 A 
ATOM     32  C   UNL     1     -12.500   7.216 130.262  0.00  0.00    +0.000 A 
ATOM     33  O   UNL     1     -11.760   6.758 131.320  0.00  0.00    +0.000 OA
ENDBRANCH  28  29
ENDBRANCH   1  24
BRANCH   4  34
ATOM     34  S   UNL     1      -6.752   0.229 133.129  0.00  0.00    +0.000 S 
ATOM     35  O   UNL     1      -6.363  -0.186 134.407  0.00  0.00    +0.000 OA
ATOM     36  O   UNL     1      -8.196   0.221 132.715  0.00  0.00    +0.000 OA
BRANCH  34  37
ATOM     37  C   UNL     1      -5.746  -1.148 131.542  0.00  0.00    +0.000 A 
ATOM     38  C   UNL     1      -6.513  -2.304 130.614  0.00  0.00    +0.000 A 
ATOM     39  C   UNL     1      -6.264  -2.791 129.373  0.00  0.00    +0.000 A 
ATOM     40  C   UNL     1      -5.101  -2.291 128.965  0.00  0.00    +0.000 A 
ATOM     41  C   UNL     1      -4.313  -1.333 129.779  0.00  0.00    +0.000 A 
ATOM     42  C   UNL     1      -4.650  -0.678 131.009  0.00  0.00    +0.000 A 
BRANCH  40  43
ATOM     43  O   UNL     1      -4.783  -2.801 127.738  0.00  0.00    +0.000 OA
ATOM     44  C   UNL     1      -5.571  -2.223 126.738  0.00  0.00    +0.000 C 
ENDBRANCH  40  43
ENDBRANCH  34  37
ENDBRANCH   4  34
TORSDOF 9
ENDMDL
MODEL 5
REMARK VINA RESULT:      -8.8      2.980      7.834
REMARK  Name = CHEMBL1779419
REMARK  12 active torsions:
REMARK  status: ('A' for Active; 'I' for Inactive)
REMARK    1  A    between atoms: C_1  and  N_2
REMARK    2  A    between atoms: N_2  and  C_3
REMARK    3  A    between atoms: C_3  and  C_4
REMARK    4  A    between atoms: C_7  and  O_8
REMARK    5  A    between atoms: O_8  and  C_9
REMARK    6  A    between atoms: C_10  and  C_11
REMARK    7  A    between atoms: C_11  and  N_12
REMARK    8  A    between atoms: C_16  and  C_17
REMARK    9  A    between atoms: N_24  and  S_25
REMARK   10  A    between atoms: S_25  and  C_28
REMARK   11  A    between atoms: C_31  and  O_32
REMARK   12  A    between atoms: O_32  and  C_33
REMARK                            x       y       z     vdW  Elec       q    Type
REMARK                         _______ _______ _______ _____ _____    ______ ____
ROOT
ATOM      1  C   UNL     1      -6.369   3.275 130.034  0.00  0.00    +0.000 C 
ATOM      2  C   UNL     1      -5.491   3.193 131.234  0.00  0.00    +0.000 C 
ATOM      3  O   UNL     1      -4.275   3.430 131.026  0.00  0.00    +0.000 OA
ATOM      4  N   UNL     1      -6.349   3.797 132.542  0.00  0.00    +0.000 N 
ATOM      5  C   UNL     1      -6.030   5.041 132.086  0.00  0.00    +0.000 A 
ATOM      6  C   UNL     1      -5.324   5.475 133.263  0.00  0.00    +0.000 A 
ATOM      7  C   UNL     1      -4.356   6.383 133.277  0.00  0.00    +0.000 A 
ATOM      8  C   UNL     1      -4.117   6.814 131.998  0.00  0.00    +0.000 A 
ATOM      9 CL   UNL     1      -2.891   8.062 132.042  0.00  0.00    +0.000 Cl
ATOM     10  C   UNL     1      -4.851   6.212 130.672  0.00  0.00    +0.000 A 
ATOM     11  C   UNL     1      -5.966   5.142 130.621  0.00  0.00    +0.000 A 
ENDROOT
BRANCH   1  16
ATOM     12  C   UNL     1      -7.402  -0.817 131.407  0.00  0.00    +0.000 A 
ATOM     13  C   UNL     1      -8.570  -0.452 132.052  0.00  0.00    +0.000 A 
ATOM     14  C   UNL     1      -9.083   0.783 131.699  0.00  0.00    +0.000 A 
ATOM     15  C   UNL     1      -8.265   1.722 130.972  0.00  0.00    +0.000 A 
ATOM     16  C   UNL     1      -6.990   1.642 130.697  0.00  0.00    +0.000 A 
ATOM     17  C   UNL     1      -6.706   0.211 130.647  0.00  0.00    +0.000 A 
BRANCH  15  18
ATOM     18  O   UNL     1      -8.609   2.700 130.104  0.00  0.00    +0.000 OA
ATOM     19  C   UNL     1      -9.560   3.871 129.326  0.00  0.00    +0.000 C 
ENDBRANCH  15  18
BRANCH  12  20
ATOM     20  C   UNL     1      -6.837  -2.229 131.561  0.00  0.00    +0.000 C 
BRANCH  20  22
ATOM     21  C   UNL     1      -7.966  -3.156 129.623  0.00  0.00    +0.000 C 
ATOM     22  N   UNL     1      -6.687  -2.955 130.285  0.00  0.00    +0.000 NA
ATOM     23  H   UNL     1      -6.111  -2.399 129.656  0.00  0.00    +0.000 HD
ENDBRANCH  20  22
ENDBRANCH  12  20
ENDBRANCH   1  16
BRANCH   1  24
ATOM     24  N   UNL     1      -6.790   2.581 128.605  0.00  0.00    +0.000 NA
ATOM     25  C   UNL     1      -5.607   1.821 128.036  0.00  0.00    +0.000 C 
ATOM     26  C   UNL     1      -4.750   2.996 128.118  0.00  0.00    +0.000 C 
ATOM     27  C   UNL     1      -5.743   4.070 127.526  0.00  0.00    +0.000 C 
ATOM     28  C   UNL     1      -7.175   3.525 127.578  0.00  0.00    +0.000 C 
BRANCH  28  29
ATOM     29  C   UNL     1      -7.637   3.057 126.181  0.00  0.00    +0.000 A 
ATOM     30  N   UNL     1      -7.314   3.564 125.001  0.00  0.00    +0.000 NA
ATOM     31  C   UNL     1      -8.281   3.107 124.143  0.00  0.00    +0.000 A 
ATOM     32  C   UNL     1      -9.150   2.284 124.811  0.00  0.00    +0.000 A 
ATOM     33  O   UNL     1      -8.752   2.232 126.120  0.00  0.00    +0.000 OA
ENDBRANCH  28  29
ENDBRANCH   1  24
BRANCH   4  34
ATOM     34  S   UNL     1      -8.376   4.120 133.362  0.00  0.00    +0.000 S 
ATOM     35  O   UNL     1      -9.033   2.923 133.056  0.00  0.00    +0.000 OA
ATOM     36  O   UNL     1      -8.262   4.605 134.778  0.00  0.00    +0.000 OA
BRANCH  34  37
ATOM     37  C   UNL     1      -9.464   5.880 132.292  0.00  0.00    +0.000 A 
ATOM     38  C   UNL     1      -8.851   6.802 131.044  0.00  0.00    +0.000 A 
ATOM     39  C   UNL     1      -9.444   7.449 130.010  0.00  0.00    +0.000 A 
ATOM     40  C   UNL     1     -10.760   7.389 130.192  0.00  0.00    +0.000 A 
ATOM     41  C   UNL     1     -11.376   6.669 131.335  0.00  0.00    +0.000 A 
ATOM     42  C   UNL     1     -10.769   5.837 132.331  0.00  0.00    +0.000 A 
BRANCH  40  43
ATOM     43  O   UNL     1     -11.397   8.079 129.200  0.00  0.00    +0.000 OA
ATOM     44  C   UNL     1     -10.519   8.369 128.151  0.00  0.00    +0.000 C 
ENDBRANCH  40  43
ENDBRANCH  34  37
ENDBRANCH   4  34
TORSDOF 9
ENDMDL
MODEL 6
REMARK VINA RESULT:      -8.8      3.642      5.759
REMARK  Name = CHEMBL1779419
REMARK  12 active torsions:
REMARK  status: ('A' for Active; 'I' for Inactive)
REMARK    1  A    between atoms: C_1  and  N_2
REMARK    2  A    between atoms: N_2  and  C_3
REMARK    3  A    between atoms: C_3  and  C_4
REMARK    4  A    between atoms: C_7  and  O_8
REMARK    5  A    between atoms: O_8  and  C_9
REMARK    6  A    between atoms: C_10  and  C_11
REMARK    7  A    between atoms: C_11  and  N_12
REMARK    8  A    between atoms: C_16  and  C_17
REMARK    9  A    between atoms: N_24  and  S_25
REMARK   10  A    between atoms: S_25  and  C_28
REMARK   11  A    between atoms: C_31  and  O_32
REMARK   12  A    between atoms: O_32  and  C_33
REMARK                            x       y       z     vdW  Elec       q    Type
REMARK                         _______ _______ _______ _____ _____    ______ ____
ROOT
ATOM      1  C   UNL     1      -6.667   2.290 128.459  0.00  0.00    +0.000 C 
ATOM      2  C   UNL     1      -7.803   1.359 128.210  0.00  0.00    +0.000 C 
ATOM      3  O   UNL     1      -8.035   1.106 127.002  0.00  0.00    +0.000 OA
ATOM      4  N   UNL     1      -7.792   0.198 129.420  0.00  0.00    +0.000 N 
ATOM      5  C   UNL     1      -6.804  -0.423 128.718  0.00  0.00    +0.000 A 
ATOM      6  C   UNL     1      -7.498  -1.669 128.518  0.00  0.00    +0.000 A 
ATOM      7  C   UNL     1      -7.294  -2.498 127.503  0.00  0.00    +0.000 A 
ATOM      8  C   UNL     1      -6.346  -1.968 126.665  0.00  0.00    +0.000 A 
ATOM      9 CL   UNL     1      -6.035  -3.106 125.373  0.00  0.00    +0.000 Cl
ATOM     10  C   UNL     1      -5.668  -0.498 126.856  0.00  0.00    +0.000 A 
ATOM     11  C   UNL     1      -5.901   0.499 128.015  0.00  0.00    +0.000 A 
ENDROOT
BRANCH   1  16
ATOM     12  C   UNL     1      -9.846   4.424 130.703  0.00  0.00    +0.000 A 
ATOM     13  C   UNL     1      -9.489   3.931 131.945  0.00  0.00    +0.000 A 
ATOM     14  C   UNL     1      -8.218   3.391 132.027  0.00  0.00    +0.000 A 
ATOM     15  C   UNL     1      -7.489   3.081 130.822  0.00  0.00    +0.000 A 
ATOM     16  C   UNL     1      -7.917   3.099 129.588  0.00  0.00    +0.000 A 
ATOM     17  C   UNL     1      -8.985   4.095 129.577  0.00  0.00    +0.000 A 
BRANCH  15  18
ATOM     18  O   UNL     1      -6.158   3.045 130.585  0.00  0.00    +0.000 OA
ATOM     19  C   UNL     1      -4.489   3.011 130.895  0.00  0.00    +0.000 C 
ENDBRANCH  15  18
BRANCH  12  20
ATOM     20  C   UNL     1     -11.141   5.216 130.524  0.00  0.00    +0.000 C 
BRANCH  20  22
ATOM     21  C   UNL     1     -12.467   7.042 131.418  0.00  0.00    +0.000 C 
ATOM     22  N   UNL     1     -11.574   5.938 131.736  0.00  0.00    +0.000 NA
ATOM     23  H   UNL     1     -12.095   5.297 132.332  0.00  0.00    +0.000 HD
ENDBRANCH  20  22
ENDBRANCH  12  20
ENDBRANCH   1  16
BRANCH   1  24
ATOM     24  N   UNL     1      -6.126   3.837 128.345  0.00  0.00    +0.000 NA
ATOM     25  C   UNL     1      -6.703   4.493 127.105  0.00  0.00    +0.000 C 
ATOM     26  C   UNL     1      -6.211   3.422 126.250  0.00  0.00    +0.000 C 
ATOM     27  C   UNL     1      -4.751   3.289 126.833  0.00  0.00    +0.000 C 
ATOM     28  C   UNL     1      -4.689   3.954 128.213  0.00  0.00    +0.000 C 
BRANCH  28  29
ATOM     29  C   UNL     1      -3.994   5.330 128.129  0.00  0.00    +0.000 A 
ATOM     30  N   UNL     1      -2.768   5.602 127.708  0.00  0.00    +0.000 NA
ATOM     31  C   UNL     1      -2.484   6.841 128.223  0.00  0.00    +0.000 A 
ATOM     32  C   UNL     1      -3.567   7.323 128.909  0.00  0.00    +0.000 A 
ATOM     33  O   UNL     1      -4.552   6.373 128.857  0.00  0.00    +0.000 OA
ENDBRANCH  28  29
ENDBRANCH   1  24
BRANCH   4  34
ATOM     34  S   UNL     1      -7.191  -0.209 131.508  0.00  0.00    +0.000 S 
ATOM     35  O   UNL     1      -5.977   0.477 131.625  0.00  0.00    +0.000 OA
ATOM     36  O   UNL     1      -8.345   0.090 132.420  0.00  0.00    +0.000 OA
BRANCH  34  37
ATOM     37  C   UNL     1      -6.819  -2.481 131.865  0.00  0.00    +0.000 A 
ATOM     38  C   UNL     1      -5.796  -3.461 130.983  0.00  0.00    +0.000 A 
ATOM     39  C   UNL     1      -5.079  -4.564 131.312  0.00  0.00    +0.000 A 
ATOM     40  C   UNL     1      -5.430  -4.926 132.543  0.00  0.00    +0.000 A 
ATOM     41  C   UNL     1      -6.409  -4.158 133.353  0.00  0.00    +0.000 A 
ATOM     42  C   UNL     1      -7.037  -2.898 133.083  0.00  0.00    +0.000 A 
BRANCH  40  43
ATOM     43  O   UNL     1      -4.771  -6.069 132.895  0.00  0.00    +0.000 OA
ATOM     44  C   UNL     1      -4.128  -5.916 134.128  0.00  0.00    +0.000 C 
ENDBRANCH  40  43
ENDBRANCH  34  37
ENDBRANCH   4  34
TORSDOF 9
ENDMDL
MODEL 7
REMARK VINA RESULT:      -8.7      3.304      5.809
REMARK  Name = CHEMBL1779419
REMARK  12 active torsions:
REMARK  status: ('A' for Active; 'I' for Inactive)
REMARK    1  A    between atoms: C_1  and  N_2
REMARK    2  A    between atoms: N_2  and  C_3
REMARK    3  A    between atoms: C_3  and  C_4
REMARK    4  A    between atoms: C_7  and  O_8
REMARK    5  A    between atoms: O_8  and  C_9
REMARK    6  A    between atoms: C_10  and  C_11
REMARK    7  A    between atoms: C_11  and  N_12
REMARK    8  A    between atoms: C_16  and  C_17
REMARK    9  A    between atoms: N_24  and  S_25
REMARK   10  A    between atoms: S_25  and  C_28
REMARK   11  A    between atoms: C_31  and  O_32
REMARK   12  A    between atoms: O_32  and  C_33
REMARK                            x       y       z     vdW  Elec       q    Type
REMARK                         _______ _______ _______ _____ _____    ______ ____
ROOT
ATOM      1  C   UNL     1      -6.261   1.758 128.162  0.00  0.00    +0.000 C 
ATOM      2  C   UNL     1      -7.421   1.130 127.472  0.00  0.00    +0.000 C 
ATOM      3  O   UNL     1      -7.447   1.276 126.225  0.00  0.00    +0.000 OA
ATOM      4  N   UNL     1      -7.762  -0.316 128.248  0.00  0.00    +0.000 N 
ATOM      5  C   UNL     1      -6.730  -0.857 127.542  0.00  0.00    +0.000 A 
ATOM      6  C   UNL     1      -7.502  -1.866 126.864  0.00  0.00    +0.000 A 
ATOM      7  C   UNL     1      -7.198  -2.390 125.684  0.00  0.00    +0.000 A 
ATOM      8  C   UNL     1      -6.059  -1.798 125.202  0.00  0.00    +0.000 A 
ATOM      9 CL   UNL     1      -5.632  -2.551 123.681  0.00  0.00    +0.000 Cl
ATOM     10  C   UNL     1      -5.278  -0.571 125.939  0.00  0.00    +0.000 A 
ATOM     11  C   UNL     1      -5.618   0.073 127.303  0.00  0.00    +0.000 A 
ENDROOT
BRANCH   1  16
ATOM     12  C   UNL     1      -9.589   3.603 130.446  0.00  0.00    +0.000 A 
ATOM     13  C   UNL     1      -9.457   2.790 131.557  0.00  0.00    +0.000 A 
ATOM     14  C   UNL     1      -8.253   2.118 131.662  0.00  0.00    +0.000 A 
ATOM     15  C   UNL     1      -7.373   2.035 130.523  0.00  0.00    +0.000 A 
ATOM     16  C   UNL     1      -7.608   2.395 129.290  0.00  0.00    +0.000 A 
ATOM     17  C   UNL     1      -8.592   3.469 129.394  0.00  0.00    +0.000 A 
BRANCH  15  18
ATOM     18  O   UNL     1      -6.028   1.919 130.458  0.00  0.00    +0.000 OA
ATOM     19  C   UNL     1      -4.418   1.777 130.979  0.00  0.00    +0.000 C 
ENDBRANCH  15  18
BRANCH  12  20
ATOM     20  C   UNL     1     -10.786   4.544 130.309  0.00  0.00    +0.000 C 
BRANCH  20  22
ATOM     21  C   UNL     1     -11.905   6.468 131.276  0.00  0.00    +0.000 C 
ATOM     22  N   UNL     1     -11.117   5.276 131.547  0.00  0.00    +0.000 NA
ATOM     23  H   UNL     1     -11.684   4.675 132.142  0.00  0.00    +0.000 HD
ENDBRANCH  20  22
ENDBRANCH  12  20
ENDBRANCH   1  16
BRANCH   1  24
ATOM     24  N   UNL     1      -5.547   3.166 128.616  0.00  0.00    +0.000 NA
ATOM     25  C   UNL     1      -6.025   4.296 127.724  0.00  0.00    +0.000 C 
ATOM     26  C   UNL     1      -5.643   3.572 126.520  0.00  0.00    +0.000 C 
ATOM     27  C   UNL     1      -4.218   3.071 126.974  0.00  0.00    +0.000 C 
ATOM     28  C   UNL     1      -4.104   3.165 128.499  0.00  0.00    +0.000 C 
BRANCH  28  29
ATOM     29  C   UNL     1      -3.258   4.387 128.914  0.00  0.00    +0.000 A 
ATOM     30  N   UNL     1      -3.292   5.056 130.057  0.00  0.00    +0.000 NA
ATOM     31  C   UNL     1      -2.703   6.262 129.779  0.00  0.00    +0.000 A 
ATOM     32  C   UNL     1      -2.274   6.287 128.478  0.00  0.00    +0.000 A 
ATOM     33  O   UNL     1      -2.614   5.090 127.904  0.00  0.00    +0.000 OA
ENDBRANCH  28  29
ENDBRANCH   1  24
BRANCH   4  34
ATOM     34  S   UNL     1      -7.612  -1.397 130.171  0.00  0.00    +0.000 S 
ATOM     35  O   UNL     1      -8.512  -0.707 130.990  0.00  0.00    +0.000 OA
ATOM     36  O   UNL     1      -7.761  -2.870 129.920  0.00  0.00    +0.000 OA
BRANCH  34  37
ATOM     37  C   UNL     1      -5.474  -1.235 131.081  0.00  0.00    +0.000 A 
ATOM     38  C   UNL     1      -5.101  -1.125 132.704  0.00  0.00    +0.000 A 
ATOM     39  C   UNL     1      -4.025  -1.530 133.423  0.00  0.00    +0.000 A 
ATOM     40  C   UNL     1      -3.100  -1.955 132.567  0.00  0.00    +0.000 A 
ATOM     41  C   UNL     1      -3.323  -1.990 131.101  0.00  0.00    +0.000 A 
ATOM     42  C   UNL     1      -4.515  -1.732 130.347  0.00  0.00    +0.000 A 
BRANCH  40  43
ATOM     43  O   UNL     1      -1.973  -2.321 133.248  0.00  0.00    +0.000 OA
ATOM     44  C   UNL     1      -1.416  -1.226 133.916  0.00  0.00    +0.000 C 
ENDBRANCH  40  43
ENDBRANCH  34  37
ENDBRANCH   4  34
TORSDOF 9
ENDMDL
MODEL 8
REMARK VINA RESULT:      -8.7      2.171      2.646
REMARK  Name = CHEMBL1779419
REMARK  12 active torsions:
REMARK  status: ('A' for Active; 'I' for Inactive)
REMARK    1  A    between atoms: C_1  and  N_2
REMARK    2  A    between atoms: N_2  and  C_3
REMARK    3  A    between atoms: C_3  and  C_4
REMARK    4  A    between atoms: C_7  and  O_8
REMARK    5  A    between atoms: O_8  and  C_9
REMARK    6  A    between atoms: C_10  and  C_11
REMARK    7  A    between atoms: C_11  and  N_12
REMARK    8  A    between atoms: C_16  and  C_17
REMARK    9  A    between atoms: N_24  and  S_25
REMARK   10  A    between atoms: S_25  and  C_28
REMARK   11  A    between atoms: C_31  and  O_32
REMARK   12  A    between atoms: O_32  and  C_33
REMARK                            x       y       z     vdW  Elec       q    Type
REMARK                         _______ _______ _______ _____ _____    ______ ____
ROOT
ATOM      1  C   UNL     1      -6.154   4.296 130.538  0.00  0.00    +0.000 C 
ATOM      2  C   UNL     1      -6.183   4.714 129.109  0.00  0.00    +0.000 C 
ATOM      3  O   UNL     1      -5.238   5.458 128.749  0.00  0.00    +0.000 OA
ATOM      4  N   UNL     1      -6.747   3.419 128.205  0.00  0.00    +0.000 N 
ATOM      5  C   UNL     1      -5.489   2.904 128.288  0.00  0.00    +0.000 A 
ATOM      6  C   UNL     1      -5.233   2.858 126.872  0.00  0.00    +0.000 A 
ATOM      7  C   UNL     1      -4.031   2.927 126.314  0.00  0.00    +0.000 A 
ATOM      8  C   UNL     1      -3.083   3.081 127.292  0.00  0.00    +0.000 A 
ATOM      9 CL   UNL     1      -1.500   3.097 126.546  0.00  0.00    +0.000 Cl
ATOM     10  C   UNL     1      -3.417   3.253 128.878  0.00  0.00    +0.000 A 
ATOM     11  C   UNL     1      -4.806   3.197 129.556  0.00  0.00    +0.000 A 
ENDROOT
BRANCH   1  16
ATOM     12  C   UNL     1     -10.236   6.028 130.356  0.00  0.00    +0.000 A 
ATOM     13  C   UNL     1     -10.893   4.816 130.258  0.00  0.00    +0.000 A 
ATOM     14  C   UNL     1     -10.153   3.707 130.629  0.00  0.00    +0.000 A 
ATOM     15  C   UNL     1      -8.723   3.812 130.774  0.00  0.00    +0.000 A 
ATOM     16  C   UNL     1      -7.948   4.815 130.457  0.00  0.00    +0.000 A 
ATOM     17  C   UNL     1      -8.797   5.996 130.573  0.00  0.00    +0.000 A 
BRANCH  15  18
ATOM     18  O   UNL     1      -7.866   3.120 131.559  0.00  0.00    +0.000 OA
ATOM     19  C   UNL     1      -7.299   1.931 132.629  0.00  0.00    +0.000 C 
ENDBRANCH  15  18
BRANCH  12  20
ATOM     20  C   UNL     1     -10.994   7.342 130.163  0.00  0.00    +0.000 C 
BRANCH  20  22
ATOM     21  C   UNL     1     -10.614   8.372 127.998  0.00  0.00    +0.000 C 
ATOM     22  N   UNL     1     -11.506   7.541 128.792  0.00  0.00    +0.000 NA
ATOM     23  H   UNL     1     -11.561   6.637 128.327  0.00  0.00    +0.000 HD
ENDBRANCH  20  22
ENDBRANCH  12  20
ENDBRANCH   1  16
BRANCH   1  24
ATOM     24  N   UNL     1      -6.336   4.774 132.100  0.00  0.00    +0.000 NA
ATOM     25  C   UNL     1      -6.068   6.262 132.216  0.00  0.00    +0.000 C 
ATOM     26  C   UNL     1      -4.764   6.127 131.581  0.00  0.00    +0.000 C 
ATOM     27  C   UNL     1      -4.239   4.860 132.362  0.00  0.00    +0.000 C 
ATOM     28  C   UNL     1      -5.419   4.141 133.024  0.00  0.00    +0.000 C 
BRANCH  28  29
ATOM     29  C   UNL     1      -5.464   4.438 134.539  0.00  0.00    +0.000 A 
ATOM     30  N   UNL     1      -6.517   4.428 135.343  0.00  0.00    +0.000 NA
ATOM     31  C   UNL     1      -6.132   5.157 136.438  0.00  0.00    +0.000 A 
ATOM     32  C   UNL     1      -4.829   5.557 136.302  0.00  0.00    +0.000 A 
ATOM     33  O   UNL     1      -4.377   5.101 135.092  0.00  0.00    +0.000 OA
ENDBRANCH  28  29
ENDBRANCH   1  24
BRANCH   4  34
ATOM     34  S   UNL     1      -7.991   1.592 128.272  0.00  0.00    +0.000 S 
ATOM     35  O   UNL     1      -9.235   2.075 128.690  0.00  0.00    +0.000 OA
ATOM     36  O   UNL     1      -7.840   0.848 126.977  0.00  0.00    +0.000 OA
BRANCH  34  37
ATOM     37  C   UNL     1      -7.195   0.071 129.846  0.00  0.00    +0.000 A 
ATOM     38  C   UNL     1      -8.055  -1.194 130.514  0.00  0.00    +0.000 A 
ATOM     39  C   UNL     1      -7.676  -2.408 130.986  0.00  0.00    +0.000 A 
ATOM     40  C   UNL     1      -6.346  -2.443 130.998  0.00  0.00    +0.000 A 
ATOM     41  C   UNL     1      -5.512  -1.315 130.510  0.00  0.00    +0.000 A 
ATOM     42  C   UNL     1      -5.901  -0.105 129.850  0.00  0.00    +0.000 A 
BRANCH  40  43
ATOM     43  O   UNL     1      -5.919  -3.631 131.520  0.00  0.00    +0.000 OA
ATOM     44  C   UNL     1      -5.739  -4.583 130.511  0.00  0.00    +0.000 C 
ENDBRANCH  40  43
ENDBRANCH  34  37
ENDBRANCH   4  34
TORSDOF 9
ENDMDL
MODEL 9
REMARK VINA RESULT:      -8.7      3.184      5.859
REMARK  Name = CHEMBL1779419
REMARK  12 active torsions:
REMARK  status: ('A' for Active; 'I' for Inactive)
REMARK    1  A    between atoms: C_1  and  N_2
REMARK    2  A    between atoms: N_2  and  C_3
REMARK    3  A    between atoms: C_3  and  C_4
REMARK    4  A    between atoms: C_7  and  O_8
REMARK    5  A    between atoms: O_8  and  C_9
REMARK    6  A    between atoms: C_10  and  C_11
REMARK    7  A    between atoms: C_11  and  N_12
REMARK    8  A    between atoms: C_16  and  C_17
REMARK    9  A    between atoms: N_24  and  S_25
REMARK   10  A    between atoms: S_25  and  C_28
REMARK   11  A    between atoms: C_31  and  O_32
REMARK   12  A    between atoms: O_32  and  C_33
REMARK                            x       y       z     vdW  Elec       q    Type
REMARK                         _______ _______ _______ _____ _____    ______ ____
ROOT
ATOM      1  C   UNL     1      -7.253   1.684 131.167  0.00  0.00    +0.000 C 
ATOM      2  C   UNL     1      -6.208   0.932 131.916  0.00  0.00    +0.000 C 
ATOM      3  O   UNL     1      -6.444   0.758 133.137  0.00  0.00    +0.000 OA
ATOM      4  N   UNL     1      -5.607  -0.260 130.903  0.00  0.00    +0.000 N 
ATOM      5  C   UNL     1      -6.712  -0.989 131.220  0.00  0.00    +0.000 A 
ATOM      6  C   UNL     1      -6.015  -2.117 131.782  0.00  0.00    +0.000 A 
ATOM      7  C   UNL     1      -6.506  -2.930 132.708  0.00  0.00    +0.000 A 
ATOM      8  C   UNL     1      -7.761  -2.510 133.064  0.00  0.00    +0.000 A 
ATOM      9 CL   UNL     1      -8.423  -3.634 134.230  0.00  0.00    +0.000 Cl
ATOM     10  C   UNL     1      -8.474  -1.157 132.497  0.00  0.00    +0.000 A 
ATOM     11  C   UNL     1      -7.920  -0.180 131.435  0.00  0.00    +0.000 A 
ENDROOT
BRANCH   1  16
ATOM     12  C   UNL     1      -3.709   4.155 130.152  0.00  0.00    +0.000 A 
ATOM     13  C   UNL     1      -3.507   3.595 128.904  0.00  0.00    +0.000 A 
ATOM     14  C   UNL     1      -4.583   2.897 128.384  0.00  0.00    +0.000 A 
ATOM     15  C   UNL     1      -5.680   2.523 129.242  0.00  0.00    +0.000 A 
ATOM     16  C   UNL     1      -5.762   2.621 130.542  0.00  0.00    +0.000 A 
ATOM     17  C   UNL     1      -4.895   3.744 130.888  0.00  0.00    +0.000 A 
BRANCH  15  18
ATOM     18  O   UNL     1      -6.987   2.324 128.960  0.00  0.00    +0.000 OA
ATOM     19  C   UNL     1      -8.384   1.985 128.057  0.00  0.00    +0.000 C 
ENDBRANCH  15  18
BRANCH  12  20
ATOM     20  C   UNL     1      -2.676   5.108 130.754  0.00  0.00    +0.000 C 
BRANCH  20  22
ATOM     21  C   UNL     1      -3.461   7.211 129.831  0.00  0.00    +0.000 C 
ATOM     22  N   UNL     1      -2.357   6.265 129.895  0.00  0.00    +0.000 NA
ATOM     23  H   UNL     1      -1.564   6.762 130.294  0.00  0.00    +0.000 HD
ENDBRANCH  20  22
ENDBRANCH  12  20
ENDBRANCH   1  16
BRANCH   1  24
ATOM     24  N   UNL     1      -7.971   3.143 130.926  0.00  0.00    +0.000 NA
ATOM     25  C   UNL     1      -7.976   3.932 132.221  0.00  0.00    +0.000 C 
ATOM     26  C   UNL     1      -8.626   2.844 132.939  0.00  0.00    +0.000 C 
ATOM     27  C   UNL     1      -9.738   2.478 131.881  0.00  0.00    +0.000 C 
ATOM     28  C   UNL     1      -9.356   3.061 130.515  0.00  0.00    +0.000 C 
BRANCH  28  29
ATOM     29  C   UNL     1     -10.184   4.328 130.208  0.00  0.00    +0.000 A 
ATOM     30  N   UNL     1      -9.898   5.306 129.363  0.00  0.00    +0.000 NA
ATOM     31  C   UNL     1     -10.681   6.358 129.761  0.00  0.00    +0.000 A 
ATOM     32  C   UNL     1     -11.471   5.983 130.815  0.00  0.00    +0.000 A 
ATOM     33  O   UNL     1     -11.174   4.680 131.116  0.00  0.00    +0.000 OA
ENDBRANCH  28  29
ENDBRANCH   1  24
BRANCH   4  34
ATOM     34  S   UNL     1      -5.283  -0.823 128.789  0.00  0.00    +0.000 S 
ATOM     35  O   UNL     1      -4.811   0.364 128.217  0.00  0.00    +0.000 OA
ATOM     36  O   UNL     1      -4.477  -2.088 128.735  0.00  0.00    +0.000 OA
BRANCH  34  37
ATOM     37  C   UNL     1      -7.278  -1.428 127.749  0.00  0.00    +0.000 A 
ATOM     38  C   UNL     1      -7.827  -0.872 126.274  0.00  0.00    +0.000 A 
ATOM     39  C   UNL     1      -8.606  -1.435 125.318  0.00  0.00    +0.000 A 
ATOM     40  C   UNL     1      -9.076  -2.583 125.800  0.00  0.00    +0.000 A 
ATOM     41  C   UNL     1      -8.709  -3.095 127.144  0.00  0.00    +0.000 A 
ATOM     42  C   UNL     1      -7.752  -2.597 128.087  0.00  0.00    +0.000 A 
BRANCH  40  43
ATOM     43  O   UNL     1      -9.914  -3.159 124.888  0.00  0.00    +0.000 OA
ATOM     44  C   UNL     1      -9.334  -3.171 123.615  0.00  0.00    +0.000 C 
ENDBRANCH  40  43
ENDBRANCH  34  37
ENDBRANCH   4  34
TORSDOF 9
ENDMDL
