MODEL 1
REMARK VINA RESULT:     -10.5      0.000      0.000
REMARK  Name = CHEMBL66985
REMARK  12 active torsions:
REMARK  status: ('A' for Active; 'I' for Inactive)
REMARK    1  A    between atoms: C_1  and  C_2
REMARK    2  A    between atoms: C_2  and  C_3
REMARK    3  A    between atoms: C_4  and  C_5
REMARK    4  A    between atoms: C_5  and  N_6
REMARK    5  A    between atoms: C_9  and  O_10
REMARK    6  A    between atoms: O_10  and  C_11
REMARK    7  A    between atoms: C_13  and  O_14
REMARK    8  A    between atoms: O_14  and  C_15
REMARK    9  A    between atoms: C_16  and  C_17
REMARK   10  A    between atoms: C_22  and  N_23
REMARK   11  A    between atoms: C_41  and  C_42
REMARK   12  A    between atoms: C_44  and  C_45
REMARK                            x       y       z     vdW  Elec       q    Type
REMARK                         _______ _______ _______ _____ _____    ______ ____
ROOT
ATOM      1  C   UNL     1      -3.759  -0.918 131.704  0.00  0.00    +0.000 A 
ATOM      2  C   UNL     1      -4.250  -0.006 130.770  0.00  0.00    +0.000 A 
ATOM      3  C   UNL     1      -4.739   1.251 131.143  0.00  0.00    +0.000 A 
ATOM      4  C   UNL     1      -5.035   1.481 132.509  0.00  0.00    +0.000 A 
ATOM      5  C   UNL     1      -4.899   0.394 133.382  0.00  0.00    +0.000 A 
ATOM      6  C   UNL     1      -4.199  -0.751 133.005  0.00  0.00    +0.000 A 
ATOM      7  F   UNL     1      -3.931  -1.687 133.928  0.00  0.00    +0.000 F 
ENDROOT
BRANCH   4   8
ATOM      8  C   UNL     1      -5.553   2.815 133.036  0.00  0.00    +0.000 C 
ATOM      9  O   UNL     1      -4.864   3.419 133.860  0.00  0.00    +0.000 OA
ATOM     10  N   UNL     1      -6.784   3.385 132.549  0.00  0.00    +0.000 N 
ATOM     11  C   UNL     1      -6.795   4.694 131.893  0.00  0.00    +0.000 C 
ATOM     12  C   UNL     1      -7.952   5.655 132.342  0.00  0.00    +0.000 C 
ATOM     13  C   UNL     1      -9.717   5.175 131.929  0.00  0.00    +0.000 C 
ATOM     14  C   UNL     1      -9.317   3.664 132.922  0.00  0.00    +0.000 C 
ATOM     15  C   UNL     1      -8.095   2.727 132.507  0.00  0.00    +0.000 C 
BRANCH  13  16
ATOM     16  N   UNL     1     -10.688   5.631 130.411  0.00  0.00    +0.000 N 
ATOM     17  C   UNL     1     -11.307   6.493 131.387  0.00  0.00    +0.000 C 
ATOM     18  O   UNL     1     -11.788   6.250 132.509  0.00  0.00    +0.000 OA
ATOM     19  O   UNL     1     -11.072   7.737 131.027  0.00  0.00    +0.000 OA
ATOM     20  C   UNL     1     -12.162   7.871 130.194  0.00  0.00    +0.000 C 
ATOM     21  C   UNL     1     -11.617   7.329 128.915  0.00  0.00    +0.000 A 
ATOM     22  C   UNL     1     -10.713   7.218 127.775  0.00  0.00    +0.000 A 
ATOM     23  C   UNL     1     -11.214   7.452 126.456  0.00  0.00    +0.000 A 
ATOM     24  C   UNL     1     -12.546   7.470 126.477  0.00  0.00    +0.000 A 
ATOM     25  C   UNL     1     -12.951   6.673 127.773  0.00  0.00    +0.000 A 
ATOM     26  C   UNL     1     -12.104   6.170 129.155  0.00  0.00    +0.000 A 
ENDBRANCH  13  16
ENDBRANCH   4   8
BRANCH   3  27
ATOM     27  O   UNL     1      -4.922   2.241 130.209  0.00  0.00    +0.000 OA
ATOM     28  C   UNL     1      -3.793   2.964 129.708  0.00  0.00    +0.000 C 
ENDBRANCH   3  27
BRANCH   1  29
ATOM     29  O   UNL     1      -3.023  -2.044 131.430  0.00  0.00    +0.000 OA
BRANCH  29  33
ATOM     30  N   UNL     1      -6.020  -2.795 129.036  0.00  0.00    +0.000 NA
ATOM     31  C   UNL     1      -4.650  -2.579 128.478  0.00  0.00    +0.000 C 
ATOM     32  C   UNL     1      -3.581  -3.364 129.261  0.00  0.00    +0.000 C 
ATOM     33  C   UNL     1      -3.597  -3.236 130.805  0.00  0.00    +0.000 C 
ATOM     34  C   UNL     1      -5.077  -3.504 131.295  0.00  0.00    +0.000 C 
ATOM     35  C   UNL     1      -6.225  -2.804 130.523  0.00  0.00    +0.000 C 
BRANCH  30  36
ATOM     36  C   UNL     1      -6.933  -1.811 128.435  0.00  0.00    +0.000 C 
BRANCH  36  38
ATOM     37  C   UNL     1      -7.245  -1.498 125.941  0.00  0.00    +0.000 A 
ATOM     38  C   UNL     1      -7.612  -2.191 127.109  0.00  0.00    +0.000 A 
ATOM     39  C   UNL     1      -8.593  -3.189 126.927  0.00  0.00    +0.000 A 
ATOM     40  C   UNL     1      -9.253  -4.089 127.868  0.00  0.00    +0.000 C 
ATOM     41  C   UNL     1      -9.189  -3.476 125.736  0.00  0.00    +0.000 A 
ATOM     42  C   UNL     1      -8.787  -2.816 124.629  0.00  0.00    +0.000 A 
ATOM     43  C   UNL     1      -9.438  -3.168 123.356  0.00  0.00    +0.000 C 
ATOM     44  N   UNL     1      -7.803  -1.847 124.693  0.00  0.00    +0.000 N 
ATOM     45  O   UNL     1      -7.430  -1.279 123.617  0.00  0.00    +0.000 OA
BRANCH  37  47
ATOM     46  C   UNL     1      -7.134   0.960 126.151  0.00  0.00    +0.000 C 
ATOM     47  C   UNL     1      -6.324  -0.311 125.936  0.00  0.00    +0.000 C 
ENDBRANCH  37  47
ENDBRANCH  36  38
ENDBRANCH  30  36
ENDBRANCH  29  33
ENDBRANCH   1  29
TORSDOF 8
ENDMDL
MODEL 2
REMARK VINA RESULT:     -10.5      3.552      7.622
REMARK  Name = CHEMBL66985
REMARK  12 active torsions:
REMARK  status: ('A' for Active; 'I' for Inactive)
REMARK    1  A    between atoms: C_1  and  C_2
REMARK    2  A    between atoms: C_2  and  C_3
REMARK    3  A    between atoms: C_4  and  C_5
REMARK    4  A    between atoms: C_5  and  N_6
REMARK    5  A    between atoms: C_9  and  O_10
REMARK    6  A    between atoms: O_10  and  C_11
REMARK    7  A    between atoms: C_13  and  O_14
REMARK    8  A    between atoms: O_14  and  C_15
REMARK    9  A    between atoms: C_16  and  C_17
REMARK   10  A    between atoms: C_22  and  N_23
REMARK   11  A    between atoms: C_41  and  C_42
REMARK   12  A    between atoms: C_44  and  C_45
REMARK                            x       y       z     vdW  Elec       q    Type
REMARK                         _______ _______ _______ _____ _____    ______ ____
ROOT
ATOM      1  C   UNL     1      -3.432   5.479 132.728  0.00  0.00    +0.000 A 
ATOM      2  C   UNL     1      -4.409   6.370 132.283  0.00  0.00    +0.000 A 
ATOM      3  C   UNL     1      -4.775   6.459 130.935  0.00  0.00    +0.000 A 
ATOM      4  C   UNL     1      -3.928   5.870 129.965  0.00  0.00    +0.000 A 
ATOM      5  C   UNL     1      -2.727   5.311 130.424  0.00  0.00    +0.000 A 
ATOM      6  C   UNL     1      -2.525   5.047 131.778  0.00  0.00    +0.000 A 
ATOM      7  F   UNL     1      -1.446   4.343 132.152  0.00  0.00    +0.000 F 
ENDROOT
BRANCH   4   8
ATOM      8  C   UNL     1      -4.233   5.887 128.471  0.00  0.00    +0.000 C 
ATOM      9  O   UNL     1      -3.813   6.835 127.805  0.00  0.00    +0.000 OA
ATOM     10  N   UNL     1      -4.943   4.803 127.840  0.00  0.00    +0.000 N 
ATOM     11  C   UNL     1      -4.323   4.028 126.764  0.00  0.00    +0.000 C 
ATOM     12  C   UNL     1      -5.251   3.736 125.532  0.00  0.00    +0.000 C 
ATOM     13  C   UNL     1      -6.741   2.626 125.786  0.00  0.00    +0.000 C 
ATOM     14  C   UNL     1      -7.219   3.907 127.036  0.00  0.00    +0.000 C 
ATOM     15  C   UNL     1      -6.242   4.255 128.246  0.00  0.00    +0.000 C 
BRANCH  13  16
ATOM     16  N   UNL     1      -6.827   0.782 125.575  0.00  0.00    +0.000 N 
ATOM     17  C   UNL     1      -7.779   1.205 124.577  0.00  0.00    +0.000 C 
ATOM     18  O   UNL     1      -8.756   1.972 124.649  0.00  0.00    +0.000 OA
ATOM     19  O   UNL     1      -7.315   0.837 123.401  0.00  0.00    +0.000 OA
ATOM     20  C   UNL     1      -7.857  -0.429 123.404  0.00  0.00    +0.000 C 
ATOM     21  C   UNL     1      -6.802  -1.194 124.132  0.00  0.00    +0.000 A 
ATOM     22  C   UNL     1      -5.471  -1.723 124.410  0.00  0.00    +0.000 A 
ATOM     23  C   UNL     1      -5.257  -3.136 124.385  0.00  0.00    +0.000 A 
ATOM     24  C   UNL     1      -6.430  -3.768 124.373  0.00  0.00    +0.000 A 
ATOM     25  C   UNL     1      -7.463  -2.739 124.964  0.00  0.00    +0.000 A 
ATOM     26  C   UNL     1      -7.423  -1.065 125.244  0.00  0.00    +0.000 A 
ENDBRANCH  13  16
ENDBRANCH   4   8
BRANCH   3  27
ATOM     27  O   UNL     1      -5.932   7.098 130.561  0.00  0.00    +0.000 OA
ATOM     28  C   UNL     1      -7.160   6.798 131.232  0.00  0.00    +0.000 C 
ENDBRANCH   3  27
BRANCH   1  29
ATOM     29  O   UNL     1      -3.192   5.123 134.032  0.00  0.00    +0.000 OA
BRANCH  29  33
ATOM     30  N   UNL     1      -5.744   2.359 132.970  0.00  0.00    +0.000 NA
ATOM     31  C   UNL     1      -4.280   2.152 132.752  0.00  0.00    +0.000 C 
ATOM     32  C   UNL     1      -3.455   2.537 133.994  0.00  0.00    +0.000 C 
ATOM     33  C   UNL     1      -3.748   3.914 134.642  0.00  0.00    +0.000 C 
ATOM     34  C   UNL     1      -5.311   4.025 134.850  0.00  0.00    +0.000 C 
ATOM     35  C   UNL     1      -6.224   3.597 133.672  0.00  0.00    +0.000 C 
BRANCH  30  36
ATOM     36  C   UNL     1      -6.433   2.249 131.675  0.00  0.00    +0.000 C 
BRANCH  36  38
ATOM     37  C   UNL     1      -7.080  -0.135 131.118  0.00  0.00    +0.000 A 
ATOM     38  C   UNL     1      -6.228   0.956 130.870  0.00  0.00    +0.000 A 
ATOM     39  C   UNL     1      -5.248   0.735 129.878  0.00  0.00    +0.000 A 
ATOM     40  C   UNL     1      -4.178   1.582 129.361  0.00  0.00    +0.000 C 
ATOM     41  C   UNL     1      -5.083  -0.439 129.206  0.00  0.00    +0.000 A 
ATOM     42  C   UNL     1      -5.942  -1.453 129.444  0.00  0.00    +0.000 A 
ATOM     43  C   UNL     1      -5.747  -2.699 128.682  0.00  0.00    +0.000 C 
ATOM     44  N   UNL     1      -6.962  -1.324 130.368  0.00  0.00    +0.000 N 
ATOM     45  O   UNL     1      -7.770  -2.294 130.530  0.00  0.00    +0.000 OA
BRANCH  37  47
ATOM     46  C   UNL     1      -9.351   0.579 131.774  0.00  0.00    +0.000 C 
ATOM     47  C   UNL     1      -8.097  -0.158 132.224  0.00  0.00    +0.000 C 
ENDBRANCH  37  47
ENDBRANCH  36  38
ENDBRANCH  30  36
ENDBRANCH  29  33
ENDBRANCH   1  29
TORSDOF 8
ENDMDL
MODEL 3
REMARK VINA RESULT:     -10.4      3.607      7.513
REMARK  Name = CHEMBL66985
REMARK  12 active torsions:
REMARK  status: ('A' for Active; 'I' for Inactive)
REMARK    1  A    between atoms: C_1  and  C_2
REMARK    2  A    between atoms: C_2  and  C_3
REMARK    3  A    between atoms: C_4  and  C_5
REMARK    4  A    between atoms: C_5  and  N_6
REMARK    5  A    between atoms: C_9  and  O_10
REMARK    6  A    between atoms: O_10  and  C_11
REMARK    7  A    between atoms: C_13  and  O_14
REMARK    8  A    between atoms: O_14  and  C_15
REMARK    9  A    between atoms: C_16  and  C_17
REMARK   10  A    between atoms: C_22  and  N_23
REMARK   11  A    between atoms: C_41  and  C_42
REMARK   12  A    between atoms: C_44  and  C_45
REMARK                            x       y       z     vdW  Elec       q    Type
REMARK                         _______ _______ _______ _____ _____    ______ ____
ROOT
ATOM      1  C   UNL     1      -3.460   5.500 132.813  0.00  0.00    +0.000 A 
ATOM      2  C   UNL     1      -4.387   6.401 132.289  0.00  0.00    +0.000 A 
ATOM      3  C   UNL     1      -4.646   6.488 130.916  0.00  0.00    +0.000 A 
ATOM      4  C   UNL     1      -3.734   5.882 130.018  0.00  0.00    +0.000 A 
ATOM      5  C   UNL     1      -2.579   5.310 130.572  0.00  0.00    +0.000 A 
ATOM      6  C   UNL     1      -2.487   5.051 131.939  0.00  0.00    +0.000 A 
ATOM      7  F   UNL     1      -1.450   4.335 132.399  0.00  0.00    +0.000 F 
ENDROOT
BRANCH   4   8
ATOM      8  C   UNL     1      -3.921   5.894 128.505  0.00  0.00    +0.000 C 
ATOM      9  O   UNL     1      -3.384   6.799 127.863  0.00  0.00    +0.000 OA
ATOM     10  N   UNL     1      -4.657   4.853 127.833  0.00  0.00    +0.000 N 
ATOM     11  C   UNL     1      -4.014   4.017 126.818  0.00  0.00    +0.000 C 
ATOM     12  C   UNL     1      -4.863   3.770 125.522  0.00  0.00    +0.000 C 
ATOM     13  C   UNL     1      -6.445   2.775 125.673  0.00  0.00    +0.000 C 
ATOM     14  C   UNL     1      -6.924   4.108 126.865  0.00  0.00    +0.000 C 
ATOM     15  C   UNL     1      -6.019   4.406 128.144  0.00  0.00    +0.000 C 
BRANCH  13  16
ATOM     16  N   UNL     1      -6.648   0.938 125.477  0.00  0.00    +0.000 N 
ATOM     17  C   UNL     1      -7.514   1.410 124.424  0.00  0.00    +0.000 C 
ATOM     18  O   UNL     1      -8.437   2.244 124.434  0.00  0.00    +0.000 OA
ATOM     19  O   UNL     1      -7.014   0.994 123.280  0.00  0.00    +0.000 OA
ATOM     20  C   UNL     1      -7.642  -0.232 123.267  0.00  0.00    +0.000 C 
ATOM     21  C   UNL     1      -6.684  -1.057 124.060  0.00  0.00    +0.000 A 
ATOM     22  C   UNL     1      -5.409  -1.672 124.415  0.00  0.00    +0.000 A 
ATOM     23  C   UNL     1      -5.294  -3.097 124.417  0.00  0.00    +0.000 A 
ATOM     24  C   UNL     1      -6.506  -3.647 124.348  0.00  0.00    +0.000 A 
ATOM     25  C   UNL     1      -7.494  -2.539 124.871  0.00  0.00    +0.000 A 
ATOM     26  C   UNL     1      -7.352  -0.869 125.134  0.00  0.00    +0.000 A 
ENDBRANCH  13  16
ENDBRANCH   4   8
BRANCH   3  27
ATOM     27  O   UNL     1      -5.761   7.139 130.450  0.00  0.00    +0.000 OA
ATOM     28  C   UNL     1      -7.017   6.965 131.114  0.00  0.00    +0.000 C 
ENDBRANCH   3  27
BRANCH   1  29
ATOM     29  O   UNL     1      -3.326   5.149 134.134  0.00  0.00    +0.000 OA
BRANCH  29  33
ATOM     30  N   UNL     1      -5.694   2.322 132.835  0.00  0.00    +0.000 NA
ATOM     31  C   UNL     1      -4.214   2.113 132.851  0.00  0.00    +0.000 C 
ATOM     32  C   UNL     1      -3.585   2.562 134.183  0.00  0.00    +0.000 C 
ATOM     33  C   UNL     1      -3.970   3.967 134.711  0.00  0.00    +0.000 C 
ATOM     34  C   UNL     1      -5.547   4.079 134.676  0.00  0.00    +0.000 C 
ATOM     35  C   UNL     1      -6.272   3.589 133.396  0.00  0.00    +0.000 C 
BRANCH  30  36
ATOM     36  C   UNL     1      -6.179   2.145 131.458  0.00  0.00    +0.000 C 
BRANCH  36  38
ATOM     37  C   UNL     1      -5.791  -0.109 130.369  0.00  0.00    +0.000 A 
ATOM     38  C   UNL     1      -6.673   0.747 131.054  0.00  0.00    +0.000 A 
ATOM     39  C   UNL     1      -7.954   0.209 131.302  0.00  0.00    +0.000 A 
ATOM     40  C   UNL     1      -9.140   0.771 131.941  0.00  0.00    +0.000 C 
ATOM     41  C   UNL     1      -8.361  -1.029 130.903  0.00  0.00    +0.000 A 
ATOM     42  C   UNL     1      -7.476  -1.837 130.279  0.00  0.00    +0.000 A 
ATOM     43  C   UNL     1      -7.945  -3.175 129.882  0.00  0.00    +0.000 C 
ATOM     44  N   UNL     1      -6.183  -1.419 130.025  0.00  0.00    +0.000 N 
ATOM     45  O   UNL     1      -5.374  -2.229 129.469  0.00  0.00    +0.000 OA
BRANCH  37  47
ATOM     46  C   UNL     1      -4.571   1.040 128.555  0.00  0.00    +0.000 C 
ATOM     47  C   UNL     1      -4.432   0.315 129.887  0.00  0.00    +0.000 C 
ENDBRANCH  37  47
ENDBRANCH  36  38
ENDBRANCH  30  36
ENDBRANCH  29  33
ENDBRANCH   1  29
TORSDOF 8
ENDMDL
MODEL 4
REMARK VINA RESULT:     -10.4      3.841      7.718
REMARK  Name = CHEMBL66985
REMARK  12 active torsions:
REMARK  status: ('A' for Active; 'I' for Inactive)
REMARK    1  A    between atoms: C_1  and  C_2
REMARK    2  A    between atoms: C_2  and  C_3
REMARK    3  A    between atoms: C_4  and  C_5
REMARK    4  A    between atoms: C_5  and  N_6
REMARK    5  A    between atoms: C_9  and  O_10
REMARK    6  A    between atoms: O_10  and  C_11
REMARK    7  A    between atoms: C_13  and  O_14
REMARK    8  A    between atoms: O_14  and  C_15
REMARK    9  A    between atoms: C_16  and  C_17
REMARK   10  A    between atoms: C_22  and  N_23
REMARK   11  A    between atoms: C_41  and  C_42
REMARK   12  A    between atoms: C_44  and  C_45
REMARK                            x       y       z     vdW  Elec       q    Type
REMARK                         _______ _______ _______ _____ _____    ______ ____
ROOT
ATOM      1  C   UNL     1      -3.730   5.752 132.780  0.00  0.00    +0.000 A 
ATOM      2  C   UNL     1      -4.073   6.885 132.043  0.00  0.00    +0.000 A 
ATOM      3  C   UNL     1      -4.057   6.895 130.643  0.00  0.00    +0.000 A 
ATOM      4  C   UNL     1      -3.382   5.848 129.969  0.00  0.00    +0.000 A 
ATOM      5  C   UNL     1      -2.697   4.917 130.762  0.00  0.00    +0.000 A 
ATOM      6  C   UNL     1      -2.936   4.823 132.132  0.00  0.00    +0.000 A 
ATOM      7  F   UNL     1      -2.403   3.801 132.819  0.00  0.00    +0.000 F 
ENDROOT
BRANCH   4   8
ATOM      8  C   UNL     1      -3.315   5.743 128.449  0.00  0.00    +0.000 C 
ATOM      9  O   UNL     1      -2.525   6.478 127.853  0.00  0.00    +0.000 OA
ATOM     10  N   UNL     1      -4.107   4.778 127.730  0.00  0.00    +0.000 N 
ATOM     11  C   UNL     1      -3.468   3.752 126.904  0.00  0.00    +0.000 C 
ATOM     12  C   UNL     1      -4.126   3.523 125.497  0.00  0.00    +0.000 C 
ATOM     13  C   UNL     1      -5.864   2.824 125.432  0.00  0.00    +0.000 C 
ATOM     14  C   UNL     1      -6.282   4.329 126.427  0.00  0.00    +0.000 C 
ATOM     15  C   UNL     1      -5.560   4.597 127.823  0.00  0.00    +0.000 C 
BRANCH  13  16
ATOM     16  N   UNL     1      -6.361   1.036 125.328  0.00  0.00    +0.000 N 
ATOM     17  C   UNL     1      -7.225   1.606 124.324  0.00  0.00    +0.000 C 
ATOM     18  O   UNL     1      -8.006   2.574 124.368  0.00  0.00    +0.000 OA
ATOM     19  O   UNL     1      -6.888   1.084 123.164  0.00  0.00    +0.000 OA
ATOM     20  C   UNL     1      -7.696  -0.029 123.249  0.00  0.00    +0.000 C 
ATOM     21  C   UNL     1      -6.815  -0.969 124.002  0.00  0.00    +0.000 A 
ATOM     22  C   UNL     1      -5.625  -1.765 124.287  0.00  0.00    +0.000 A 
ATOM     23  C   UNL     1      -5.730  -3.190 124.339  0.00  0.00    +0.000 A 
ATOM     24  C   UNL     1      -7.013  -3.546 124.384  0.00  0.00    +0.000 A 
ATOM     25  C   UNL     1      -7.775  -2.283 124.932  0.00  0.00    +0.000 A 
ATOM     26  C   UNL     1      -7.358  -0.648 125.115  0.00  0.00    +0.000 A 
ENDBRANCH  13  16
ENDBRANCH   4   8
BRANCH   3  27
ATOM     27  O   UNL     1      -4.686   7.892 129.939  0.00  0.00    +0.000 OA
ATOM     28  C   UNL     1      -4.015   9.135 129.711  0.00  0.00    +0.000 C 
ENDBRANCH   3  27
BRANCH   1  29
ATOM     29  O   UNL     1      -3.965   5.551 134.118  0.00  0.00    +0.000 OA
BRANCH  29  33
ATOM     30  N   UNL     1      -6.871   3.455 132.554  0.00  0.00    +0.000 NA
ATOM     31  C   UNL     1      -5.660   2.768 133.100  0.00  0.00    +0.000 C 
ATOM     32  C   UNL     1      -5.259   3.324 134.479  0.00  0.00    +0.000 C 
ATOM     33  C   UNL     1      -5.157   4.865 134.620  0.00  0.00    +0.000 C 
ATOM     34  C   UNL     1      -6.487   5.491 134.039  0.00  0.00    +0.000 C 
ATOM     35  C   UNL     1      -7.003   4.945 132.683  0.00  0.00    +0.000 C 
BRANCH  30  36
ATOM     36  C   UNL     1      -7.025   3.083 131.139  0.00  0.00    +0.000 C 
BRANCH  36  38
ATOM     37  C   UNL     1      -6.425   0.918 129.970  0.00  0.00    +0.000 A 
ATOM     38  C   UNL     1      -7.308   1.607 130.821  0.00  0.00    +0.000 A 
ATOM     39  C   UNL     1      -8.392   0.840 131.303  0.00  0.00    +0.000 A 
ATOM     40  C   UNL     1      -9.520   1.183 132.163  0.00  0.00    +0.000 C 
ATOM     41  C   UNL     1      -8.621  -0.462 130.974  0.00  0.00    +0.000 A 
ATOM     42  C   UNL     1      -7.733  -1.102 130.183  0.00  0.00    +0.000 A 
ATOM     43  C   UNL     1      -8.002  -2.515 129.867  0.00  0.00    +0.000 C 
ATOM     44  N   UNL     1      -6.616  -0.451 129.692  0.00  0.00    +0.000 N 
ATOM     45  O   UNL     1      -5.788  -1.106 128.982  0.00  0.00    +0.000 OA
BRANCH  37  47
ATOM     46  C   UNL     1      -4.040   1.543 130.111  0.00  0.00    +0.000 C 
ATOM     47  C   UNL     1      -5.289   1.581 129.242  0.00  0.00    +0.000 C 
ENDBRANCH  37  47
ENDBRANCH  36  38
ENDBRANCH  30  36
ENDBRANCH  29  33
ENDBRANCH   1  29
TORSDOF 8
ENDMDL
MODEL 5
REMARK VINA RESULT:     -10.4      3.624      7.814
REMARK  Name = CHEMBL66985
REMARK  12 active torsions:
REMARK  status: ('A' for Active; 'I' for Inactive)
REMARK    1  A    between atoms: C_1  and  C_2
REMARK    2  A    between atoms: C_2  and  C_3
REMARK    3  A    between atoms: C_4  and  C_5
REMARK    4  A    between atoms: C_5  and  N_6
REMARK    5  A    between atoms: C_9  and  O_10
REMARK    6  A    between atoms: O_10  and  C_11
REMARK    7  A    between atoms: C_13  and  O_14
REMARK    8  A    between atoms: O_14  and  C_15
REMARK    9  A    between atoms: C_16  and  C_17
REMARK   10  A    between atoms: C_22  and  N_23
REMARK   11  A    between atoms: C_41  and  C_42
REMARK   12  A    between atoms: C_44  and  C_45
REMARK                            x       y       z     vdW  Elec       q    Type
REMARK                         _______ _______ _______ _____ _____    ______ ____
ROOT
ATOM      1  C   UNL     1      -4.914   6.327 132.639  0.00  0.00    +0.000 A 
ATOM      2  C   UNL     1      -4.722   5.450 133.706  0.00  0.00    +0.000 A 
ATOM      3  C   UNL     1      -5.518   4.312 133.887  0.00  0.00    +0.000 A 
ATOM      4  C   UNL     1      -6.732   4.217 133.164  0.00  0.00    +0.000 A 
ATOM      5  C   UNL     1      -7.095   5.320 132.380  0.00  0.00    +0.000 A 
ATOM      6  C   UNL     1      -6.170   6.313 132.059  0.00  0.00    +0.000 A 
ATOM      7  F   UNL     1      -6.502   7.248 131.157  0.00  0.00    +0.000 F 
ENDROOT
BRANCH   4   8
ATOM      8  C   UNL     1      -7.669   3.018 133.264  0.00  0.00    +0.000 C 
ATOM      9  O   UNL     1      -8.552   3.044 134.123  0.00  0.00    +0.000 OA
ATOM     10  N   UNL     1      -7.566   1.909 132.349  0.00  0.00    +0.000 N 
ATOM     11  C   UNL     1      -8.691   1.544 131.486  0.00  0.00    +0.000 C 
ATOM     12  C   UNL     1      -8.993   0.006 131.399  0.00  0.00    +0.000 C 
ATOM     13  C   UNL     1      -7.715  -1.107 130.597  0.00  0.00    +0.000 C 
ATOM     14  C   UNL     1      -6.609  -0.444 131.926  0.00  0.00    +0.000 C 
ATOM     15  C   UNL     1      -6.360   1.126 132.058  0.00  0.00    +0.000 C 
BRANCH  13  16
ATOM     16  N   UNL     1      -7.608  -1.600 128.809  0.00  0.00    +0.000 N 
ATOM     17  C   UNL     1      -7.825  -2.887 129.422  0.00  0.00    +0.000 C 
ATOM     18  O   UNL     1      -7.246  -3.454 130.366  0.00  0.00    +0.000 OA
ATOM     19  O   UNL     1      -8.978  -3.348 128.985  0.00  0.00    +0.000 OA
ATOM     20  C   UNL     1      -8.487  -3.955 127.849  0.00  0.00    +0.000 C 
ATOM     21  C   UNL     1      -8.501  -2.817 126.883  0.00  0.00    +0.000 A 
ATOM     22  C   UNL     1      -9.062  -1.722 126.099  0.00  0.00    +0.000 A 
ATOM     23  C   UNL     1      -9.051  -1.802 124.672  0.00  0.00    +0.000 A 
ATOM     24  C   UNL     1      -8.249  -2.792 124.284  0.00  0.00    +0.000 A 
ATOM     25  C   UNL     1      -7.265  -3.027 125.490  0.00  0.00    +0.000 A 
ATOM     26  C   UNL     1      -7.271  -2.553 127.119  0.00  0.00    +0.000 A 
ENDBRANCH  13  16
ENDBRANCH   4   8
BRANCH   3  27
ATOM     27  O   UNL     1      -5.128   3.309 134.739  0.00  0.00    +0.000 OA
ATOM     28  C   UNL     1      -3.890   2.625 134.516  0.00  0.00    +0.000 C 
ENDBRANCH   3  27
BRANCH   1  29
ATOM     29  O   UNL     1      -4.042   7.302 132.222  0.00  0.00    +0.000 OA
BRANCH  29  33
ATOM     30  N   UNL     1      -3.527   4.693 129.356  0.00  0.00    +0.000 NA
ATOM     31  C   UNL     1      -4.247   5.975 129.084  0.00  0.00    +0.000 C 
ATOM     32  C   UNL     1      -3.508   7.187 129.680  0.00  0.00    +0.000 C 
ATOM     33  C   UNL     1      -3.058   7.085 131.160  0.00  0.00    +0.000 C 
ATOM     34  C   UNL     1      -2.290   5.715 131.337  0.00  0.00    +0.000 C 
ATOM     35  C   UNL     1      -2.931   4.449 130.712  0.00  0.00    +0.000 C 
BRANCH  30  36
ATOM     36  C   UNL     1      -4.416   3.572 129.017  0.00  0.00    +0.000 C 
BRANCH  36  38
ATOM     37  C   UNL     1      -6.416   3.446 127.468  0.00  0.00    +0.000 A 
ATOM     38  C   UNL     1      -5.020   3.548 127.604  0.00  0.00    +0.000 A 
ATOM     39  C   UNL     1      -4.305   3.619 126.388  0.00  0.00    +0.000 A 
ATOM     40  C   UNL     1      -2.877   3.698 126.101  0.00  0.00    +0.000 C 
ATOM     41  C   UNL     1      -4.879   3.568 125.153  0.00  0.00    +0.000 A 
ATOM     42  C   UNL     1      -6.225   3.506 125.061  0.00  0.00    +0.000 A 
ATOM     43  C   UNL     1      -6.811   3.474 123.710  0.00  0.00    +0.000 C 
ATOM     44  N   UNL     1      -7.018   3.472 126.193  0.00  0.00    +0.000 N 
ATOM     45  O   UNL     1      -8.283   3.453 126.056  0.00  0.00    +0.000 OA
BRANCH  37  47
ATOM     46  C   UNL     1      -7.942   4.553 129.063  0.00  0.00    +0.000 C 
ATOM     47  C   UNL     1      -7.348   3.221 128.626  0.00  0.00    +0.000 C 
ENDBRANCH  37  47
ENDBRANCH  36  38
ENDBRANCH  30  36
ENDBRANCH  29  33
ENDBRANCH   1  29
TORSDOF 8
ENDMDL
MODEL 6
REMARK VINA RESULT:     -10.3      3.521      8.542
REMARK  Name = CHEMBL66985
REMARK  12 active torsions:
REMARK  status: ('A' for Active; 'I' for Inactive)
REMARK    1  A    between atoms: C_1  and  C_2
REMARK    2  A    between atoms: C_2  and  C_3
REMARK    3  A    between atoms: C_4  and  C_5
REMARK    4  A    between atoms: C_5  and  N_6
REMARK    5  A    between atoms: C_9  and  O_10
REMARK    6  A    between atoms: O_10  and  C_11
REMARK    7  A    between atoms: C_13  and  O_14
REMARK    8  A    between atoms: O_14  and  C_15
REMARK    9  A    between atoms: C_16  and  C_17
REMARK   10  A    between atoms: C_22  and  N_23
REMARK   11  A    between atoms: C_41  and  C_42
REMARK   12  A    between atoms: C_44  and  C_45
REMARK                            x       y       z     vdW  Elec       q    Type
REMARK                         _______ _______ _______ _____ _____    ______ ____
ROOT
ATOM      1  C   UNL     1      -3.276   5.897 132.952  0.00  0.00    +0.000 A 
ATOM      2  C   UNL     1      -3.693   7.004 132.213  0.00  0.00    +0.000 A 
ATOM      3  C   UNL     1      -3.704   7.003 130.814  0.00  0.00    +0.000 A 
ATOM      4  C   UNL     1      -2.988   5.989 130.134  0.00  0.00    +0.000 A 
ATOM      5  C   UNL     1      -2.239   5.102 130.920  0.00  0.00    +0.000 A 
ATOM      6  C   UNL     1      -2.446   5.006 132.296  0.00  0.00    +0.000 A 
ATOM      7  F   UNL     1      -1.848   4.019 132.979  0.00  0.00    +0.000 F 
ENDROOT
BRANCH   4   8
ATOM      8  C   UNL     1      -2.944   5.875 128.614  0.00  0.00    +0.000 C 
ATOM      9  O   UNL     1      -2.139   6.581 128.004  0.00  0.00    +0.000 OA
ATOM     10  N   UNL     1      -3.775   4.932 127.910  0.00  0.00    +0.000 N 
ATOM     11  C   UNL     1      -3.181   3.882 127.081  0.00  0.00    +0.000 C 
ATOM     12  C   UNL     1      -3.863   3.668 125.684  0.00  0.00    +0.000 C 
ATOM     13  C   UNL     1      -5.624   3.024 125.644  0.00  0.00    +0.000 C 
ATOM     14  C   UNL     1      -5.981   4.546 126.637  0.00  0.00    +0.000 C 
ATOM     15  C   UNL     1      -5.232   4.797 128.023  0.00  0.00    +0.000 C 
BRANCH  13  16
ATOM     16  N   UNL     1      -6.179   1.253 125.556  0.00  0.00    +0.000 N 
ATOM     17  C   UNL     1      -7.029   1.844 124.552  0.00  0.00    +0.000 C 
ATOM     18  O   UNL     1      -7.778   2.836 124.592  0.00  0.00    +0.000 OA
ATOM     19  O   UNL     1      -6.714   1.303 123.394  0.00  0.00    +0.000 OA
ATOM     20  C   UNL     1      -7.557   0.217 123.491  0.00  0.00    +0.000 C 
ATOM     21  C   UNL     1      -6.703  -0.746 124.246  0.00  0.00    +0.000 A 
ATOM     22  C   UNL     1      -5.539  -1.578 124.532  0.00  0.00    +0.000 A 
ATOM     23  C   UNL     1      -5.688  -2.998 124.595  0.00  0.00    +0.000 A 
ATOM     24  C   UNL     1      -6.982  -3.312 124.648  0.00  0.00    +0.000 A 
ATOM     25  C   UNL     1      -7.701  -2.021 125.191  0.00  0.00    +0.000 A 
ATOM     26  C   UNL     1      -7.231  -0.399 125.359  0.00  0.00    +0.000 A 
ENDBRANCH  13  16
ENDBRANCH   4   8
BRANCH   3  27
ATOM     27  O   UNL     1      -4.398   7.960 130.115  0.00  0.00    +0.000 OA
ATOM     28  C   UNL     1      -3.822   9.255 129.915  0.00  0.00    +0.000 C 
ENDBRANCH   3  27
BRANCH   1  29
ATOM     29  O   UNL     1      -3.475   5.695 134.295  0.00  0.00    +0.000 OA
BRANCH  29  33
ATOM     30  N   UNL     1      -6.682   4.033 132.800  0.00  0.00    +0.000 NA
ATOM     31  C   UNL     1      -5.455   3.214 133.040  0.00  0.00    +0.000 C 
ATOM     32  C   UNL     1      -4.844   3.488 134.427  0.00  0.00    +0.000 C 
ATOM     33  C   UNL     1      -4.631   4.970 134.827  0.00  0.00    +0.000 C 
ATOM     34  C   UNL     1      -5.985   5.741 134.559  0.00  0.00    +0.000 C 
ATOM     35  C   UNL     1      -6.705   5.476 133.211  0.00  0.00    +0.000 C 
BRANCH  30  36
ATOM     36  C   UNL     1      -7.040   3.936 131.377  0.00  0.00    +0.000 C 
BRANCH  36  38
ATOM     37  C   UNL     1      -9.476   3.762 130.705  0.00  0.00    +0.000 A 
ATOM     38  C   UNL     1      -8.360   4.587 130.932  0.00  0.00    +0.000 A 
ATOM     39  C   UNL     1      -8.583   5.965 130.721  0.00  0.00    +0.000 A 
ATOM     40  C   UNL     1      -7.697   7.120 130.814  0.00  0.00    +0.000 C 
ATOM     41  C   UNL     1      -9.765   6.498 130.300  0.00  0.00    +0.000 A 
ATOM     42  C   UNL     1     -10.825   5.680 130.126  0.00  0.00    +0.000 A 
ATOM     43  C   UNL     1     -12.091   6.295 129.693  0.00  0.00    +0.000 C 
ATOM     44  N   UNL     1     -10.721   4.319 130.347  0.00  0.00    +0.000 N 
ATOM     45  O   UNL     1     -11.757   3.594 130.207  0.00  0.00    +0.000 OA
BRANCH  37  47
ATOM     46  C   UNL     1      -9.717   1.774 132.152  0.00  0.00    +0.000 C 
ATOM     47  C   UNL     1      -9.418   2.260 130.740  0.00  0.00    +0.000 C 
ENDBRANCH  37  47
ENDBRANCH  36  38
ENDBRANCH  30  36
ENDBRANCH  29  33
ENDBRANCH   1  29
TORSDOF 8
ENDMDL
MODEL 7
REMARK VINA RESULT:     -10.2      2.785      4.549
REMARK  Name = CHEMBL66985
REMARK  12 active torsions:
REMARK  status: ('A' for Active; 'I' for Inactive)
REMARK    1  A    between atoms: C_1  and  C_2
REMARK    2  A    between atoms: C_2  and  C_3
REMARK    3  A    between atoms: C_4  and  C_5
REMARK    4  A    between atoms: C_5  and  N_6
REMARK    5  A    between atoms: C_9  and  O_10
REMARK    6  A    between atoms: O_10  and  C_11
REMARK    7  A    between atoms: C_13  and  O_14
REMARK    8  A    between atoms: O_14  and  C_15
REMARK    9  A    between atoms: C_16  and  C_17
REMARK   10  A    between atoms: C_22  and  N_23
REMARK   11  A    between atoms: C_41  and  C_42
REMARK   12  A    between atoms: C_44  and  C_45
REMARK                            x       y       z     vdW  Elec       q    Type
REMARK                         _______ _______ _______ _____ _____    ______ ____
ROOT
ATOM      1  C   UNL     1      -5.732  -1.865 127.651  0.00  0.00    +0.000 A 
ATOM      2  C   UNL     1      -5.890  -2.150 129.007  0.00  0.00    +0.000 A 
ATOM      3  C   UNL     1      -6.068  -1.142 129.963  0.00  0.00    +0.000 A 
ATOM      4  C   UNL     1      -5.770   0.193 129.598  0.00  0.00    +0.000 A 
ATOM      5  C   UNL     1      -5.228   0.400 128.322  0.00  0.00    +0.000 A 
ATOM      6  C   UNL     1      -5.288  -0.592 127.344  0.00  0.00    +0.000 A 
ATOM      7  F   UNL     1      -4.929  -0.292 126.087  0.00  0.00    +0.000 F 
ENDROOT
BRANCH   4   8
ATOM      8  C   UNL     1      -5.944   1.374 130.547  0.00  0.00    +0.000 C 
ATOM      9  O   UNL     1      -4.991   1.687 131.263  0.00  0.00    +0.000 OA
ATOM     10  N   UNL     1      -7.165   2.141 130.572  0.00  0.00    +0.000 N 
ATOM     11  C   UNL     1      -7.155   3.573 130.272  0.00  0.00    +0.000 C 
ATOM     12  C   UNL     1      -8.014   4.463 131.238  0.00  0.00    +0.000 C 
ATOM     13  C   UNL     1      -9.875   4.238 131.236  0.00  0.00    +0.000 C 
ATOM     14  C   UNL     1      -9.455   2.494 131.694  0.00  0.00    +0.000 C 
ATOM     15  C   UNL     1      -8.523   1.614 130.745  0.00  0.00    +0.000 C 
BRANCH  13  16
ATOM     16  N   UNL     1     -11.123   5.148 130.202  0.00  0.00    +0.000 N 
ATOM     17  C   UNL     1     -10.878   6.125 131.235  0.00  0.00    +0.000 C 
ATOM     18  O   UNL     1     -10.897   6.028 132.475  0.00  0.00    +0.000 OA
ATOM     19  O   UNL     1     -10.343   7.183 130.665  0.00  0.00    +0.000 OA
ATOM     20  C   UNL     1     -11.528   7.804 130.338  0.00  0.00    +0.000 C 
ATOM     21  C   UNL     1     -11.835   7.170 129.022  0.00  0.00    +0.000 A 
ATOM     22  C   UNL     1     -11.618   6.773 127.635  0.00  0.00    +0.000 A 
ATOM     23  C   UNL     1     -12.486   7.275 126.617  0.00  0.00    +0.000 A 
ATOM     24  C   UNL     1     -13.558   7.835 127.175  0.00  0.00    +0.000 A 
ATOM     25  C   UNL     1     -13.663   7.193 128.608  0.00  0.00    +0.000 A 
ATOM     26  C   UNL     1     -12.592   6.300 129.575  0.00  0.00    +0.000 A 
ENDBRANCH  13  16
ENDBRANCH   4   8
BRANCH   3  27
ATOM     27  O   UNL     1      -6.528  -1.440 131.222  0.00  0.00    +0.000 OA
ATOM     28  C   UNL     1      -7.353  -2.592 131.425  0.00  0.00    +0.000 C 
ENDBRANCH   3  27
BRANCH   1  29
ATOM     29  O   UNL     1      -5.820  -2.765 126.617  0.00  0.00    +0.000 OA
BRANCH  29  33
ATOM     30  N   UNL     1      -8.610  -0.425 125.195  0.00  0.00    +0.000 NA
ATOM     31  C   UNL     1      -7.428  -0.781 124.352  0.00  0.00    +0.000 C 
ATOM     32  C   UNL     1      -7.113  -2.287 124.412  0.00  0.00    +0.000 C 
ATOM     33  C   UNL     1      -7.033  -2.940 125.816  0.00  0.00    +0.000 C 
ATOM     34  C   UNL     1      -8.332  -2.524 126.615  0.00  0.00    +0.000 C 
ATOM     35  C   UNL     1      -8.762  -1.035 126.558  0.00  0.00    +0.000 C 
BRANCH  30  36
ATOM     36  C   UNL     1      -8.677   1.039 125.317  0.00  0.00    +0.000 C 
BRANCH  36  38
ATOM     37  C   UNL     1      -8.900   2.085 123.022  0.00  0.00    +0.000 A 
ATOM     38  C   UNL     1      -8.104   1.874 124.162  0.00  0.00    +0.000 A 
ATOM     39  C   UNL     1      -6.826   2.473 124.117  0.00  0.00    +0.000 A 
ATOM     40  C   UNL     1      -5.713   2.465 125.061  0.00  0.00    +0.000 C 
ATOM     41  C   UNL     1      -6.346   3.185 123.059  0.00  0.00    +0.000 A 
ATOM     42  C   UNL     1      -7.151   3.398 121.996  0.00  0.00    +0.000 A 
ATOM     43  C   UNL     1      -6.605   4.191 120.881  0.00  0.00    +0.000 C 
ATOM     44  N   UNL     1      -8.435   2.888 121.959  0.00  0.00    +0.000 N 
ATOM     45  O   UNL     1      -9.170   3.147 120.953  0.00  0.00    +0.000 OA
BRANCH  37  47
ATOM     46  C   UNL     1     -10.027   0.076 122.132  0.00  0.00    +0.000 C 
ATOM     47  C   UNL     1     -10.233   1.425 122.808  0.00  0.00    +0.000 C 
ENDBRANCH  37  47
ENDBRANCH  36  38
ENDBRANCH  30  36
ENDBRANCH  29  33
ENDBRANCH   1  29
TORSDOF 8
ENDMDL
MODEL 8
REMARK VINA RESULT:     -10.0      3.134      4.143
REMARK  Name = CHEMBL66985
REMARK  12 active torsions:
REMARK  status: ('A' for Active; 'I' for Inactive)
REMARK    1  A    between atoms: C_1  and  C_2
REMARK    2  A    between atoms: C_2  and  C_3
REMARK    3  A    between atoms: C_4  and  C_5
REMARK    4  A    between atoms: C_5  and  N_6
REMARK    5  A    between atoms: C_9  and  O_10
REMARK    6  A    between atoms: O_10  and  C_11
REMARK    7  A    between atoms: C_13  and  O_14
REMARK    8  A    between atoms: O_14  and  C_15
REMARK    9  A    between atoms: C_16  and  C_17
REMARK   10  A    between atoms: C_22  and  N_23
REMARK   11  A    between atoms: C_41  and  C_42
REMARK   12  A    between atoms: C_44  and  C_45
REMARK                            x       y       z     vdW  Elec       q    Type
REMARK                         _______ _______ _______ _____ _____    ______ ____
ROOT
ATOM      1  C   UNL     1      -3.790  -2.912 132.954  0.00  0.00    +0.000 A 
ATOM      2  C   UNL     1      -3.815  -1.985 133.996  0.00  0.00    +0.000 A 
ATOM      3  C   UNL     1      -3.950  -0.611 133.766  0.00  0.00    +0.000 A 
ATOM      4  C   UNL     1      -3.740  -0.123 132.454  0.00  0.00    +0.000 A 
ATOM      5  C   UNL     1      -3.320  -1.049 131.489  0.00  0.00    +0.000 A 
ATOM      6  C   UNL     1      -3.425  -2.421 131.713  0.00  0.00    +0.000 A 
ATOM      7  F   UNL     1      -3.192  -3.269 130.700  0.00  0.00    +0.000 F 
ENDROOT
BRANCH   4   8
ATOM      8  C   UNL     1      -3.878   1.349 132.079  0.00  0.00    +0.000 C 
ATOM      9  O   UNL     1      -3.178   2.167 132.680  0.00  0.00    +0.000 OA
ATOM     10  N   UNL     1      -4.757   1.773 131.019  0.00  0.00    +0.000 N 
ATOM     11  C   UNL     1      -4.233   2.480 129.849  0.00  0.00    +0.000 C 
ATOM     12  C   UNL     1      -5.073   3.723 129.389  0.00  0.00    +0.000 C 
ATOM     13  C   UNL     1      -6.803   3.430 128.727  0.00  0.00    +0.000 C 
ATOM     14  C   UNL     1      -7.087   2.673 130.393  0.00  0.00    +0.000 C 
ATOM     15  C   UNL     1      -6.183   1.456 130.888  0.00  0.00    +0.000 C 
BRANCH  13  16
ATOM     16  N   UNL     1      -7.304   3.146 126.960  0.00  0.00    +0.000 N 
ATOM     17  C   UNL     1      -7.875   4.451 127.187  0.00  0.00    +0.000 C 
ATOM     18  O   UNL     1      -8.617   4.875 128.091  0.00  0.00    +0.000 OA
ATOM     19  O   UNL     1      -7.272   5.296 126.378  0.00  0.00    +0.000 OA
ATOM     20  C   UNL     1      -8.104   5.104 125.297  0.00  0.00    +0.000 C 
ATOM     21  C   UNL     1      -7.464   3.923 124.646  0.00  0.00    +0.000 A 
ATOM     22  C   UNL     1      -6.404   3.141 124.017  0.00  0.00    +0.000 A 
ATOM     23  C   UNL     1      -6.555   2.718 122.660  0.00  0.00    +0.000 A 
ATOM     24  C   UNL     1      -7.818   2.893 122.272  0.00  0.00    +0.000 A 
ATOM     25  C   UNL     1      -8.660   2.928 123.601  0.00  0.00    +0.000 A 
ATOM     26  C   UNL     1      -8.260   3.117 125.239  0.00  0.00    +0.000 A 
ENDBRANCH  13  16
ENDBRANCH   4   8
BRANCH   3  27
ATOM     27  O   UNL     1      -4.285   0.244 134.787  0.00  0.00    +0.000 OA
ATOM     28  C   UNL     1      -5.653   0.374 135.187  0.00  0.00    +0.000 C 
ENDBRANCH   3  27
BRANCH   1  29
ATOM     29  O   UNL     1      -3.931  -4.272 133.074  0.00  0.00    +0.000 OA
BRANCH  29  33
ATOM     30  N   UNL     1      -7.055  -3.597 130.824  0.00  0.00    +0.000 NA
ATOM     31  C   UNL     1      -5.916  -4.412 130.301  0.00  0.00    +0.000 C 
ATOM     32  C   UNL     1      -5.444  -5.461 131.325  0.00  0.00    +0.000 C 
ATOM     33  C   UNL     1      -5.181  -4.971 132.772  0.00  0.00    +0.000 C 
ATOM     34  C   UNL     1      -6.446  -4.144 133.238  0.00  0.00    +0.000 C 
ATOM     35  C   UNL     1      -7.030  -3.108 132.243  0.00  0.00    +0.000 C 
BRANCH  30  36
ATOM     36  C   UNL     1      -7.262  -2.449 129.928  0.00  0.00    +0.000 C 
BRANCH  36  38
ATOM     37  C   UNL     1      -6.510  -2.249 127.517  0.00  0.00    +0.000 A 
ATOM     38  C   UNL     1      -7.458  -2.743 128.432  0.00  0.00    +0.000 A 
ATOM     39  C   UNL     1      -8.517  -3.478 127.856  0.00  0.00    +0.000 A 
ATOM     40  C   UNL     1      -9.691  -4.115 128.442  0.00  0.00    +0.000 C 
ATOM     41  C   UNL     1      -8.667  -3.693 126.518  0.00  0.00    +0.000 A 
ATOM     42  C   UNL     1      -7.719  -3.235 125.673  0.00  0.00    +0.000 A 
ATOM     43  C   UNL     1      -7.904  -3.505 124.237  0.00  0.00    +0.000 C 
ATOM     44  N   UNL     1      -6.621  -2.538 126.141  0.00  0.00    +0.000 N 
ATOM     45  O   UNL     1      -5.734  -2.159 125.311  0.00  0.00    +0.000 OA
BRANCH  37  47
ATOM     46  C   UNL     1      -5.782   0.109 127.608  0.00  0.00    +0.000 C 
ATOM     47  C   UNL     1      -5.385  -1.330 127.904  0.00  0.00    +0.000 C 
ENDBRANCH  37  47
ENDBRANCH  36  38
ENDBRANCH  30  36
ENDBRANCH  29  33
ENDBRANCH   1  29
TORSDOF 8
ENDMDL
MODEL 9
REMARK VINA RESULT:      -9.8      3.394      6.113
REMARK  Name = CHEMBL66985
REMARK  12 active torsions:
REMARK  status: ('A' for Active; 'I' for Inactive)
REMARK    1  A    between atoms: C_1  and  C_2
REMARK    2  A    between atoms: C_2  and  C_3
REMARK    3  A    between atoms: C_4  and  C_5
REMARK    4  A    between atoms: C_5  and  N_6
REMARK    5  A    between atoms: C_9  and  O_10
REMARK    6  A    between atoms: O_10  and  C_11
REMARK    7  A    between atoms: C_13  and  O_14
REMARK    8  A    between atoms: O_14  and  C_15
REMARK    9  A    between atoms: C_16  and  C_17
REMARK   10  A    between atoms: C_22  and  N_23
REMARK   11  A    between atoms: C_41  and  C_42
REMARK   12  A    between atoms: C_44  and  C_45
REMARK                            x       y       z     vdW  Elec       q    Type
REMARK                         _______ _______ _______ _____ _____    ______ ____
ROOT
ATOM      1  C   UNL     1      -3.986   3.112 134.148  0.00  0.00    +0.000 A 
ATOM      2  C   UNL     1      -4.823   4.225 134.081  0.00  0.00    +0.000 A 
ATOM      3  C   UNL     1      -5.129   4.855 132.868  0.00  0.00    +0.000 A 
ATOM      4  C   UNL     1      -4.333   4.558 131.736  0.00  0.00    +0.000 A 
ATOM      5  C   UNL     1      -3.231   3.715 131.934  0.00  0.00    +0.000 A 
ATOM      6  C   UNL     1      -3.111   2.945 133.090  0.00  0.00    +0.000 A 
ATOM      7  F   UNL     1      -2.145   2.016 133.159  0.00  0.00    +0.000 F 
ENDROOT
BRANCH   4   8
ATOM      8  C   UNL     1      -4.583   5.166 130.360  0.00  0.00    +0.000 C 
ATOM      9  O   UNL     1      -4.018   6.226 130.084  0.00  0.00    +0.000 OA
ATOM     10  N   UNL     1      -5.409   4.499 129.385  0.00  0.00    +0.000 N 
ATOM     11  C   UNL     1      -4.862   4.099 128.088  0.00  0.00    +0.000 C 
ATOM     12  C   UNL     1      -5.779   4.410 126.852  0.00  0.00    +0.000 C 
ATOM     13  C   UNL     1      -7.411   3.500 126.705  0.00  0.00    +0.000 C 
ATOM     14  C   UNL     1      -7.756   4.282 128.348  0.00  0.00    +0.000 C 
ATOM     15  C   UNL     1      -6.782   4.022 129.584  0.00  0.00    +0.000 C 
BRANCH  13  16
ATOM     16  N   UNL     1      -7.735   1.894 125.828  0.00  0.00    +0.000 N 
ATOM     17  C   UNL     1      -8.108   2.833 124.800  0.00  0.00    +0.000 C 
ATOM     18  O   UNL     1      -8.875   3.813 124.823  0.00  0.00    +0.000 OA
ATOM     19  O   UNL     1      -7.282   2.667 123.789  0.00  0.00    +0.000 OA
ATOM     20  C   UNL     1      -7.998   1.671 123.160  0.00  0.00    +0.000 C 
ATOM     21  C   UNL     1      -7.485   0.458 123.862  0.00  0.00    +0.000 A 
ATOM     22  C   UNL     1      -6.499  -0.504 124.345  0.00  0.00    +0.000 A 
ATOM     23  C   UNL     1      -6.552  -1.855 123.883  0.00  0.00    +0.000 A 
ATOM     24  C   UNL     1      -7.713  -2.074 123.266  0.00  0.00    +0.000 A 
ATOM     25  C   UNL     1      -8.692  -0.975 123.821  0.00  0.00    +0.000 A 
ATOM     26  C   UNL     1      -8.468   0.471 124.682  0.00  0.00    +0.000 A 
ENDBRANCH  13  16
ENDBRANCH   4   8
BRANCH   3  27
ATOM     27  O   UNL     1      -6.180   5.733 132.777  0.00  0.00    +0.000 OA
ATOM     28  C   UNL     1      -7.320   5.571 133.626  0.00  0.00    +0.000 C 
ENDBRANCH   3  27
BRANCH   1  29
ATOM     29  O   UNL     1      -3.838   2.271 135.223  0.00  0.00    +0.000 OA
BRANCH  29  33
ATOM     30  N   UNL     1      -5.096  -0.643 132.941  0.00  0.00    +0.000 NA
ATOM     31  C   UNL     1      -3.832  -0.795 133.723  0.00  0.00    +0.000 C 
ATOM     32  C   UNL     1      -3.997  -0.324 135.180  0.00  0.00    +0.000 C 
ATOM     33  C   UNL     1      -4.647   1.065 135.406  0.00  0.00    +0.000 C 
ATOM     34  C   UNL     1      -5.981   1.117 134.560  0.00  0.00    +0.000 C 
ATOM     35  C   UNL     1      -5.923   0.601 133.099  0.00  0.00    +0.000 C 
BRANCH  30  36
ATOM     36  C   UNL     1      -4.794  -0.836 131.515  0.00  0.00    +0.000 C 
BRANCH  36  38
ATOM     37  C   UNL     1      -6.446  -0.974 129.601  0.00  0.00    +0.000 A 
ATOM     38  C   UNL     1      -5.811  -1.623 130.674  0.00  0.00    +0.000 A 
ATOM     39  C   UNL     1      -6.191  -2.970 130.866  0.00  0.00    +0.000 A 
ATOM     40  C   UNL     1      -5.798  -3.959 131.864  0.00  0.00    +0.000 C 
ATOM     41  C   UNL     1      -7.119  -3.623 130.112  0.00  0.00    +0.000 A 
ATOM     42  C   UNL     1      -7.682  -2.979 129.067  0.00  0.00    +0.000 A 
ATOM     43  C   UNL     1      -8.664  -3.725 128.262  0.00  0.00    +0.000 C 
ATOM     44  N   UNL     1      -7.348  -1.671 128.770  0.00  0.00    +0.000 N 
ATOM     45  O   UNL     1      -7.876  -1.118 127.753  0.00  0.00    +0.000 OA
BRANCH  37  47
ATOM     46  C   UNL     1      -5.239   0.684 128.224  0.00  0.00    +0.000 C 
ATOM     47  C   UNL     1      -6.289   0.493 129.309  0.00  0.00    +0.000 C 
ENDBRANCH  37  47
ENDBRANCH  36  38
ENDBRANCH  30  36
ENDBRANCH  29  33
ENDBRANCH   1  29
TORSDOF 8
ENDMDL
