MODEL 1
REMARK VINA RESULT:      -8.8      0.000      0.000
REMARK  Name = CHEMBL459291
REMARK  8 active torsions:
REMARK  status: ('A' for Active; 'I' for Inactive)
REMARK    1  A    between atoms: C_1  and  O_2
REMARK    2  A    between atoms: O_2  and  C_3
REMARK    3  A    between atoms: C_6  and  N_7
REMARK    4  A    between atoms: N_7  and  C_8
REMARK    5  A    between atoms: N_7  and  S_20
REMARK    6  A    between atoms: C_8  and  C_9
REMARK    7  A    between atoms: C_11  and  C_12
REMARK    8  A    between atoms: S_20  and  C_23
REMARK                            x       y       z     vdW  Elec       q    Type
REMARK                         _______ _______ _______ _____ _____    ______ ____
ROOT
ATOM      1  N   UNL     1      -8.465   2.511 124.158  0.00  0.00    +0.000 N 
ENDROOT
BRANCH   1   5
ATOM      2  C   UNL     1      -6.989   3.988 120.413  0.00  0.00    +0.000 A 
ATOM      3  C   UNL     1      -6.078   3.542 121.348  0.00  0.00    +0.000 A 
ATOM      4  C   UNL     1      -6.536   3.052 122.590  0.00  0.00    +0.000 A 
ATOM      5  C   UNL     1      -7.897   2.987 122.884  0.00  0.00    +0.000 A 
ATOM      6  C   UNL     1      -8.668   3.303 121.781  0.00  0.00    +0.000 A 
ATOM      7  N   UNL     1      -8.288   3.845 120.604  0.00  0.00    +0.000 NA
BRANCH   2   9
ATOM      8  C   UNL     1      -5.548   5.443 119.357  0.00  0.00    +0.000 C 
ATOM      9  O   UNL     1      -6.689   4.613 119.246  0.00  0.00    +0.000 OA
ENDBRANCH   2   9
ENDBRANCH   1   5
BRANCH   1  10
ATOM     10  S   UNL     1      -7.998   3.371 125.585  0.00  0.00    +0.000 S 
ATOM     11  O   UNL     1      -8.174   4.786 125.267  0.00  0.00    +0.000 OA
ATOM     12  O   UNL     1      -8.703   2.806 126.711  0.00  0.00    +0.000 OA
BRANCH  10  13
ATOM     13  C   UNL     1      -6.229   3.159 125.843  0.00  0.00    +0.000 A 
ATOM     14  C   UNL     1      -5.424   4.280 125.961  0.00  0.00    +0.000 A 
ATOM     15  C   UNL     1      -4.077   4.083 126.243  0.00  0.00    +0.000 A 
ATOM     16  C   UNL     1      -3.600   2.791 126.447  0.00  0.00    +0.000 A 
ATOM     17  C   UNL     1      -4.494   1.733 126.354  0.00  0.00    +0.000 A 
ATOM     18  N   UNL     1      -5.801   1.881 126.036  0.00  0.00    +0.000 NA
ENDBRANCH  10  13
ENDBRANCH   1  10
BRANCH   1  19
ATOM     19  C   UNL     1      -9.567   1.480 124.293  0.00  0.00    +0.000 C 
BRANCH  19  20
ATOM     20  C   UNL     1      -9.163   0.027 124.320  0.00  0.00    +0.000 A 
ATOM     21  N   UNL     1      -8.190  -0.583 123.669  0.00  0.00    +0.000 NA
ATOM     22  C   UNL     1      -7.972  -1.724 124.420  0.00  0.00    +0.000 A 
ATOM     23  N   UNL     1      -8.884  -1.905 125.396  0.00  0.00    +0.000 NA
ATOM     24  O   UNL     1      -9.670  -0.742 125.341  0.00  0.00    +0.000 OA
BRANCH  22  25
ATOM     25  C   UNL     1      -6.845  -2.621 124.186  0.00  0.00    +0.000 A 
ATOM     26  C   UNL     1      -5.682  -2.074 123.653  0.00  0.00    +0.000 A 
ATOM     27  C   UNL     1      -4.576  -2.881 123.383  0.00  0.00    +0.000 A 
ATOM     28  C   UNL     1      -4.594  -4.239 123.698  0.00  0.00    +0.000 A 
ATOM     29  C   UNL     1      -5.746  -4.806 124.229  0.00  0.00    +0.000 A 
ATOM     30  C   UNL     1      -6.869  -4.001 124.465  0.00  0.00    +0.000 A 
ENDBRANCH  22  25
ENDBRANCH  19  20
ENDBRANCH   1  19
TORSDOF 7
ENDMDL
MODEL 2
REMARK VINA RESULT:      -8.7      2.827      7.622
REMARK  Name = CHEMBL459291
REMARK  8 active torsions:
REMARK  status: ('A' for Active; 'I' for Inactive)
REMARK    1  A    between atoms: C_1  and  O_2
REMARK    2  A    between atoms: O_2  and  C_3
REMARK    3  A    between atoms: C_6  and  N_7
REMARK    4  A    between atoms: N_7  and  C_8
REMARK    5  A    between atoms: N_7  and  S_20
REMARK    6  A    between atoms: C_8  and  C_9
REMARK    7  A    between atoms: C_11  and  C_12
REMARK    8  A    between atoms: S_20  and  C_23
REMARK                            x       y       z     vdW  Elec       q    Type
REMARK                         _______ _______ _______ _____ _____    ______ ____
ROOT
ATOM      1  N   UNL     1      -8.870  -0.885 125.527  0.00  0.00    +0.000 N 
ENDROOT
BRANCH   1   5
ATOM      2  C   UNL     1      -6.913  -2.105 129.142  0.00  0.00    +0.000 A 
ATOM      3  C   UNL     1      -7.863  -2.943 128.594  0.00  0.00    +0.000 A 
ATOM      4  C   UNL     1      -8.524  -2.565 127.406  0.00  0.00    +0.000 A 
ATOM      5  C   UNL     1      -8.219  -1.369 126.758  0.00  0.00    +0.000 A 
ATOM      6  C   UNL     1      -7.131  -0.743 127.337  0.00  0.00    +0.000 A 
ATOM      7  N   UNL     1      -6.515  -1.018 128.507  0.00  0.00    +0.000 NA
BRANCH   2   9
ATOM      8  C   UNL     1      -7.088  -3.043 131.240  0.00  0.00    +0.000 C 
ATOM      9  O   UNL     1      -6.309  -2.270 130.346  0.00  0.00    +0.000 OA
ENDBRANCH   2   9
ENDBRANCH   1   5
BRANCH   1  10
ATOM     10  S   UNL     1      -9.029  -2.023 124.235  0.00  0.00    +0.000 S 
ATOM     11  O   UNL     1      -9.688  -3.190 124.817  0.00  0.00    +0.000 OA
ATOM     12  O   UNL     1      -9.639  -1.356 123.109  0.00  0.00    +0.000 OA
BRANCH  10  13
ATOM     13  C   UNL     1      -7.392  -2.594 123.752  0.00  0.00    +0.000 A 
ATOM     14  C   UNL     1      -6.645  -1.836 122.866  0.00  0.00    +0.000 A 
ATOM     15  C   UNL     1      -5.353  -2.261 122.578  0.00  0.00    +0.000 A 
ATOM     16  C   UNL     1      -4.842  -3.385 123.221  0.00  0.00    +0.000 A 
ATOM     17  C   UNL     1      -5.650  -4.053 124.130  0.00  0.00    +0.000 A 
ATOM     18  N   UNL     1      -6.927  -3.698 124.401  0.00  0.00    +0.000 NA
ENDBRANCH  10  13
ENDBRANCH   1  10
BRANCH   1  19
ATOM     19  C   UNL     1      -9.583   0.444 125.381  0.00  0.00    +0.000 C 
BRANCH  19  20
ATOM     20  C   UNL     1      -8.828   1.573 124.726  0.00  0.00    +0.000 A 
ATOM     21  N   UNL     1      -8.168   1.585 123.583  0.00  0.00    +0.000 NA
ATOM     22  C   UNL     1      -8.120   2.929 123.258  0.00  0.00    +0.000 A 
ATOM     23  N   UNL     1      -8.577   3.733 124.238  0.00  0.00    +0.000 NA
ATOM     24  O   UNL     1      -9.057   2.839 125.210  0.00  0.00    +0.000 OA
BRANCH  22  25
ATOM     25  C   UNL     1      -7.646   3.413 121.966  0.00  0.00    +0.000 A 
ATOM     26  C   UNL     1      -8.596   3.674 120.983  0.00  0.00    +0.000 A 
ATOM     27  C   UNL     1      -8.207   4.117 119.718  0.00  0.00    +0.000 A 
ATOM     28  C   UNL     1      -6.866   4.364 119.433  0.00  0.00    +0.000 A 
ATOM     29  C   UNL     1      -5.900   4.108 120.400  0.00  0.00    +0.000 A 
ATOM     30  C   UNL     1      -6.289   3.628 121.658  0.00  0.00    +0.000 A 
ENDBRANCH  22  25
ENDBRANCH  19  20
ENDBRANCH   1  19
TORSDOF 7
ENDMDL
MODEL 3
REMARK VINA RESULT:      -8.6      2.636      4.255
REMARK  Name = CHEMBL459291
REMARK  8 active torsions:
REMARK  status: ('A' for Active; 'I' for Inactive)
REMARK    1  A    between atoms: C_1  and  O_2
REMARK    2  A    between atoms: O_2  and  C_3
REMARK    3  A    between atoms: C_6  and  N_7
REMARK    4  A    between atoms: N_7  and  C_8
REMARK    5  A    between atoms: N_7  and  S_20
REMARK    6  A    between atoms: C_8  and  C_9
REMARK    7  A    between atoms: C_11  and  C_12
REMARK    8  A    between atoms: S_20  and  C_23
REMARK                            x       y       z     vdW  Elec       q    Type
REMARK                         _______ _______ _______ _____ _____    ______ ____
ROOT
ATOM      1  N   UNL     1      -8.420   1.948 124.030  0.00  0.00    +0.000 N 
ENDROOT
BRANCH   1   5
ATOM      2  C   UNL     1      -6.963   3.891 120.497  0.00  0.00    +0.000 A 
ATOM      3  C   UNL     1      -6.065   3.200 121.283  0.00  0.00    +0.000 A 
ATOM      4  C   UNL     1      -6.517   2.552 122.453  0.00  0.00    +0.000 A 
ATOM      5  C   UNL     1      -7.862   2.577 122.820  0.00  0.00    +0.000 A 
ATOM      6  C   UNL     1      -8.643   3.155 121.837  0.00  0.00    +0.000 A 
ATOM      7  N   UNL     1      -8.260   3.851 120.745  0.00  0.00    +0.000 NA
BRANCH   2   9
ATOM      8  C   UNL     1      -5.438   5.382 119.624  0.00  0.00    +0.000 C 
ATOM      9  O   UNL     1      -6.649   4.675 119.434  0.00  0.00    +0.000 OA
ENDBRANCH   2   9
ENDBRANCH   1   5
BRANCH   1  10
ATOM     10  S   UNL     1      -9.375   0.525 123.795  0.00  0.00    +0.000 S 
ATOM     11  O   UNL     1     -10.209   0.409 124.989  0.00  0.00    +0.000 OA
ATOM     12  O   UNL     1     -10.005   0.606 122.498  0.00  0.00    +0.000 OA
BRANCH  10  13
ATOM     13  C   UNL     1      -8.297  -0.915 123.826  0.00  0.00    +0.000 A 
ATOM     14  C   UNL     1      -7.179  -0.942 123.009  0.00  0.00    +0.000 A 
ATOM     15  C   UNL     1      -6.322  -2.031 123.118  0.00  0.00    +0.000 A 
ATOM     16  C   UNL     1      -6.583  -3.017 124.066  0.00  0.00    +0.000 A 
ATOM     17  C   UNL     1      -7.705  -2.881 124.872  0.00  0.00    +0.000 A 
ATOM     18  N   UNL     1      -8.586  -1.860 124.764  0.00  0.00    +0.000 NA
ENDBRANCH  10  13
ENDBRANCH   1  10
BRANCH   1  19
ATOM     19  C   UNL     1      -8.058   2.319 125.454  0.00  0.00    +0.000 C 
BRANCH  19  20
ATOM     20  C   UNL     1      -7.171   1.370 126.219  0.00  0.00    +0.000 A 
ATOM     21  N   UNL     1      -7.447   0.647 127.289  0.00  0.00    +0.000 NA
ATOM     22  C   UNL     1      -6.494  -0.355 127.249  0.00  0.00    +0.000 A 
ATOM     23  N   UNL     1      -5.558  -0.166 126.298  0.00  0.00    +0.000 NA
ATOM     24  O   UNL     1      -6.008   0.970 125.605  0.00  0.00    +0.000 OA
BRANCH  22  25
ATOM     25  C   UNL     1      -6.525  -1.511 128.139  0.00  0.00    +0.000 A 
ATOM     26  C   UNL     1      -7.767  -2.057 128.449  0.00  0.00    +0.000 A 
ATOM     27  C   UNL     1      -7.868  -3.149 129.313  0.00  0.00    +0.000 A 
ATOM     28  C   UNL     1      -6.724  -3.750 129.833  0.00  0.00    +0.000 A 
ATOM     29  C   UNL     1      -5.474  -3.220 129.539  0.00  0.00    +0.000 A 
ATOM     30  C   UNL     1      -5.376  -2.101 128.701  0.00  0.00    +0.000 A 
ENDBRANCH  22  25
ENDBRANCH  19  20
ENDBRANCH   1  19
TORSDOF 7
ENDMDL
MODEL 4
REMARK VINA RESULT:      -8.5      4.354      7.672
REMARK  Name = CHEMBL459291
REMARK  8 active torsions:
REMARK  status: ('A' for Active; 'I' for Inactive)
REMARK    1  A    between atoms: C_1  and  O_2
REMARK    2  A    between atoms: O_2  and  C_3
REMARK    3  A    between atoms: C_6  and  N_7
REMARK    4  A    between atoms: N_7  and  C_8
REMARK    5  A    between atoms: N_7  and  S_20
REMARK    6  A    between atoms: C_8  and  C_9
REMARK    7  A    between atoms: C_11  and  C_12
REMARK    8  A    between atoms: S_20  and  C_23
REMARK                            x       y       z     vdW  Elec       q    Type
REMARK                         _______ _______ _______ _____ _____    ______ ____
ROOT
ATOM      1  N   UNL     1      -7.057   3.291 126.720  0.00  0.00    +0.000 N 
ENDROOT
BRANCH   1   5
ATOM      2  C   UNL     1      -9.909   1.226 124.273  0.00  0.00    +0.000 A 
ATOM      3  C   UNL     1      -9.615   0.708 125.517  0.00  0.00    +0.000 A 
ATOM      4  C   UNL     1      -8.678   1.366 126.343  0.00  0.00    +0.000 A 
ATOM      5  C   UNL     1      -8.059   2.547 125.935  0.00  0.00    +0.000 A 
ATOM      6  C   UNL     1      -8.597   3.017 124.751  0.00  0.00    +0.000 A 
ATOM      7  N   UNL     1      -9.431   2.396 123.890  0.00  0.00    +0.000 NA
BRANCH   2   9
ATOM      8  C   UNL     1      -9.927  -0.266 122.517  0.00  0.00    +0.000 C 
ATOM      9  O   UNL     1     -10.672   0.627 123.323  0.00  0.00    +0.000 OA
ENDBRANCH   2   9
ENDBRANCH   1   5
BRANCH   1  10
ATOM     10  S   UNL     1      -6.006   4.341 125.836  0.00  0.00    +0.000 S 
ATOM     11  O   UNL     1      -5.449   3.527 124.758  0.00  0.00    +0.000 OA
ATOM     12  O   UNL     1      -6.731   5.546 125.509  0.00  0.00    +0.000 OA
BRANCH  10  13
ATOM     13  C   UNL     1      -4.602   4.775 126.876  0.00  0.00    +0.000 A 
ATOM     14  C   UNL     1      -3.545   3.887 126.990  0.00  0.00    +0.000 A 
ATOM     15  C   UNL     1      -2.440   4.286 127.734  0.00  0.00    +0.000 A 
ATOM     16  C   UNL     1      -2.410   5.565 128.284  0.00  0.00    +0.000 A 
ATOM     17  C   UNL     1      -3.498   6.401 128.077  0.00  0.00    +0.000 A 
ATOM     18  N   UNL     1      -4.610   6.032 127.400  0.00  0.00    +0.000 NA
ENDBRANCH  10  13
ENDBRANCH   1  10
BRANCH   1  19
ATOM     19  C   UNL     1      -7.012   3.366 128.232  0.00  0.00    +0.000 C 
BRANCH  19  20
ATOM     20  C   UNL     1      -8.125   4.108 128.928  0.00  0.00    +0.000 A 
ATOM     21  N   UNL     1      -8.456   5.383 128.850  0.00  0.00    +0.000 NA
ATOM     22  C   UNL     1      -9.776   5.395 129.264  0.00  0.00    +0.000 A 
ATOM     23  N   UNL     1     -10.196   4.209 129.746  0.00  0.00    +0.000 NA
ATOM     24  O   UNL     1      -9.109   3.349 129.515  0.00  0.00    +0.000 OA
BRANCH  22  25
ATOM     25  C   UNL     1     -10.627   6.576 129.160  0.00  0.00    +0.000 A 
ATOM     26  C   UNL     1     -10.577   7.307 127.977  0.00  0.00    +0.000 A 
ATOM     27  C   UNL     1     -11.348   8.461 127.822  0.00  0.00    +0.000 A 
ATOM     28  C   UNL     1     -12.226   8.868 128.824  0.00  0.00    +0.000 A 
ATOM     29  C   UNL     1     -12.290   8.153 130.015  0.00  0.00    +0.000 A 
ATOM     30  C   UNL     1     -11.488   7.017 130.184  0.00  0.00    +0.000 A 
ENDBRANCH  22  25
ENDBRANCH  19  20
ENDBRANCH   1  19
TORSDOF 7
ENDMDL
MODEL 5
REMARK VINA RESULT:      -8.4      3.134      4.738
REMARK  Name = CHEMBL459291
REMARK  8 active torsions:
REMARK  status: ('A' for Active; 'I' for Inactive)
REMARK    1  A    between atoms: C_1  and  O_2
REMARK    2  A    between atoms: O_2  and  C_3
REMARK    3  A    between atoms: C_6  and  N_7
REMARK    4  A    between atoms: N_7  and  C_8
REMARK    5  A    between atoms: N_7  and  S_20
REMARK    6  A    between atoms: C_8  and  C_9
REMARK    7  A    between atoms: C_11  and  C_12
REMARK    8  A    between atoms: S_20  and  C_23
REMARK                            x       y       z     vdW  Elec       q    Type
REMARK                         _______ _______ _______ _____ _____    ______ ____
ROOT
ATOM      1  N   UNL     1      -8.797   0.497 124.731  0.00  0.00    +0.000 N 
ENDROOT
BRANCH   1   5
ATOM      2  C   UNL     1      -7.309   3.268 121.817  0.00  0.00    +0.000 A 
ATOM      3  C   UNL     1      -8.675   3.142 121.966  0.00  0.00    +0.000 A 
ATOM      4  C   UNL     1      -9.191   2.235 122.916  0.00  0.00    +0.000 A 
ATOM      5  C   UNL     1      -8.348   1.479 123.728  0.00  0.00    +0.000 A 
ATOM      6  C   UNL     1      -7.027   1.856 123.574  0.00  0.00    +0.000 A 
ATOM      7  N   UNL     1      -6.474   2.655 122.636  0.00  0.00    +0.000 NA
BRANCH   2   9
ATOM      8  C   UNL     1      -5.348   4.315 121.209  0.00  0.00    +0.000 C 
ATOM      9  O   UNL     1      -6.677   3.985 120.853  0.00  0.00    +0.000 OA
ENDBRANCH   2   9
ENDBRANCH   1   5
BRANCH   1  10
ATOM     10  S   UNL     1      -8.975  -1.137 124.190  0.00  0.00    +0.000 S 
ATOM     11  O   UNL     1      -9.530  -1.869 125.326  0.00  0.00    +0.000 OA
ATOM     12  O   UNL     1      -9.690  -1.129 122.936  0.00  0.00    +0.000 OA
BRANCH  10  13
ATOM     13  C   UNL     1      -7.342  -1.845 123.921  0.00  0.00    +0.000 A 
ATOM     14  C   UNL     1      -6.758  -2.598 124.926  0.00  0.00    +0.000 A 
ATOM     15  C   UNL     1      -5.534  -3.200 124.655  0.00  0.00    +0.000 A 
ATOM     16  C   UNL     1      -4.972  -3.073 123.388  0.00  0.00    +0.000 A 
ATOM     17  C   UNL     1      -5.656  -2.336 122.431  0.00  0.00    +0.000 A 
ATOM     18  N   UNL     1      -6.824  -1.698 122.670  0.00  0.00    +0.000 NA
ENDBRANCH  10  13
ENDBRANCH   1  10
BRANCH   1  19
ATOM     19  C   UNL     1      -8.912   0.757 126.219  0.00  0.00    +0.000 C 
BRANCH  19  20
ATOM     20  C   UNL     1      -7.785   0.280 127.100  0.00  0.00    +0.000 A 
ATOM     21  N   UNL     1      -7.782  -0.680 128.006  0.00  0.00    +0.000 NA
ATOM     22  C   UNL     1      -6.441  -1.001 128.123  0.00  0.00    +0.000 A 
ATOM     23  N   UNL     1      -5.629  -0.161 127.451  0.00  0.00    +0.000 NA
ATOM     24  O   UNL     1      -6.516   0.684 126.762  0.00  0.00    +0.000 OA
BRANCH  22  25
ATOM     25  C   UNL     1      -5.968  -2.155 128.880  0.00  0.00    +0.000 A 
ATOM     26  C   UNL     1      -4.628  -2.507 128.753  0.00  0.00    +0.000 A 
ATOM     27  C   UNL     1      -4.116  -3.615 129.432  0.00  0.00    +0.000 A 
ATOM     28  C   UNL     1      -4.923  -4.352 130.297  0.00  0.00    +0.000 A 
ATOM     29  C   UNL     1      -6.265  -4.018 130.437  0.00  0.00    +0.000 A 
ATOM     30  C   UNL     1      -6.786  -2.929 129.726  0.00  0.00    +0.000 A 
ENDBRANCH  22  25
ENDBRANCH  19  20
ENDBRANCH   1  19
TORSDOF 7
ENDMDL
MODEL 6
REMARK VINA RESULT:      -8.4      4.309      7.952
REMARK  Name = CHEMBL459291
REMARK  8 active torsions:
REMARK  status: ('A' for Active; 'I' for Inactive)
REMARK    1  A    between atoms: C_1  and  O_2
REMARK    2  A    between atoms: O_2  and  C_3
REMARK    3  A    between atoms: C_6  and  N_7
REMARK    4  A    between atoms: N_7  and  C_8
REMARK    5  A    between atoms: N_7  and  S_20
REMARK    6  A    between atoms: C_8  and  C_9
REMARK    7  A    between atoms: C_11  and  C_12
REMARK    8  A    between atoms: S_20  and  C_23
REMARK                            x       y       z     vdW  Elec       q    Type
REMARK                         _______ _______ _______ _____ _____    ______ ____
ROOT
ATOM      1  N   UNL     1      -7.526   2.981 126.739  0.00  0.00    +0.000 N 
ENDROOT
BRANCH   1   5
ATOM      2  C   UNL     1      -8.821  -0.605 124.777  0.00  0.00    +0.000 A 
ATOM      3  C   UNL     1      -7.471  -0.324 124.807  0.00  0.00    +0.000 A 
ATOM      4  C   UNL     1      -7.017   0.850 125.445  0.00  0.00    +0.000 A 
ATOM      5  C   UNL     1      -7.906   1.725 126.068  0.00  0.00    +0.000 A 
ATOM      6  C   UNL     1      -9.187   1.206 126.099  0.00  0.00    +0.000 A 
ATOM      7  N   UNL     1      -9.687   0.135 125.445  0.00  0.00    +0.000 NA
BRANCH   2   9
ATOM      8  C   UNL     1      -8.634  -2.021 122.969  0.00  0.00    +0.000 C 
ATOM      9  O   UNL     1      -9.408  -1.612 124.081  0.00  0.00    +0.000 OA
ENDBRANCH   2   9
ENDBRANCH   1   5
BRANCH   1  10
ATOM     10  S   UNL     1      -7.573   4.418 125.778  0.00  0.00    +0.000 S 
ATOM     11  O   UNL     1      -8.959   4.880 125.829  0.00  0.00    +0.000 OA
ATOM     12  O   UNL     1      -6.519   5.300 126.220  0.00  0.00    +0.000 OA
BRANCH  10  13
ATOM     13  C   UNL     1      -7.280   3.982 124.057  0.00  0.00    +0.000 A 
ATOM     14  C   UNL     1      -5.995   4.061 123.549  0.00  0.00    +0.000 A 
ATOM     15  C   UNL     1      -5.788   3.637 122.241  0.00  0.00    +0.000 A 
ATOM     16  C   UNL     1      -6.851   3.106 121.515  0.00  0.00    +0.000 A 
ATOM     17  C   UNL     1      -8.094   3.024 122.127  0.00  0.00    +0.000 A 
ATOM     18  N   UNL     1      -8.344   3.468 123.380  0.00  0.00    +0.000 NA
ENDBRANCH  10  13
ENDBRANCH   1  10
BRANCH   1  19
ATOM     19  C   UNL     1      -7.302   3.143 128.229  0.00  0.00    +0.000 C 
BRANCH  19  20
ATOM     20  C   UNL     1      -8.376   3.841 129.024  0.00  0.00    +0.000 A 
ATOM     21  N   UNL     1      -8.669   5.126 129.085  0.00  0.00    +0.000 NA
ATOM     22  C   UNL     1      -9.979   5.133 129.531  0.00  0.00    +0.000 A 
ATOM     23  N   UNL     1     -10.425   3.916 129.899  0.00  0.00    +0.000 NA
ATOM     24  O   UNL     1      -9.371   3.054 129.555  0.00  0.00    +0.000 OA
BRANCH  22  25
ATOM     25  C   UNL     1     -10.795   6.343 129.570  0.00  0.00    +0.000 A 
ATOM     26  C   UNL     1     -11.770   6.434 130.558  0.00  0.00    +0.000 A 
ATOM     27  C   UNL     1     -12.601   7.554 130.635  0.00  0.00    +0.000 A 
ATOM     28  C   UNL     1     -12.429   8.627 129.763  0.00  0.00    +0.000 A 
ATOM     29  C   UNL     1     -11.462   8.555 128.767  0.00  0.00    +0.000 A 
ATOM     30  C   UNL     1     -10.654   7.414 128.667  0.00  0.00    +0.000 A 
ENDBRANCH  22  25
ENDBRANCH  19  20
ENDBRANCH   1  19
TORSDOF 7
ENDMDL
MODEL 7
REMARK VINA RESULT:      -8.3      1.779      5.469
REMARK  Name = CHEMBL459291
REMARK  8 active torsions:
REMARK  status: ('A' for Active; 'I' for Inactive)
REMARK    1  A    between atoms: C_1  and  O_2
REMARK    2  A    between atoms: O_2  and  C_3
REMARK    3  A    between atoms: C_6  and  N_7
REMARK    4  A    between atoms: N_7  and  C_8
REMARK    5  A    between atoms: N_7  and  S_20
REMARK    6  A    between atoms: C_8  and  C_9
REMARK    7  A    between atoms: C_11  and  C_12
REMARK    8  A    between atoms: S_20  and  C_23
REMARK                            x       y       z     vdW  Elec       q    Type
REMARK                         _______ _______ _______ _____ _____    ______ ____
ROOT
ATOM      1  N   UNL     1      -8.898   0.599 124.776  0.00  0.00    +0.000 N 
ENDROOT
BRANCH   1   5
ATOM      2  C   UNL     1      -7.503   3.249 121.707  0.00  0.00    +0.000 A 
ATOM      3  C   UNL     1      -6.570   2.560 122.454  0.00  0.00    +0.000 A 
ATOM      4  C   UNL     1      -7.001   1.683 123.471  0.00  0.00    +0.000 A 
ATOM      5  C   UNL     1      -8.357   1.478 123.724  0.00  0.00    +0.000 A 
ATOM      6  C   UNL     1      -9.147   2.102 122.776  0.00  0.00    +0.000 A 
ATOM      7  N   UNL     1      -8.795   3.006 121.836  0.00  0.00    +0.000 NA
BRANCH   2   9
ATOM      8  C   UNL     1      -5.893   4.186 120.350  0.00  0.00    +0.000 C 
ATOM      9  O   UNL     1      -7.234   4.225 120.803  0.00  0.00    +0.000 OA
ENDBRANCH   2   9
ENDBRANCH   1   5
BRANCH   1  10
ATOM     10  S   UNL     1      -9.131  -1.062 124.353  0.00  0.00    +0.000 S 
ATOM     11  O   UNL     1      -9.675  -1.700 125.551  0.00  0.00    +0.000 OA
ATOM     12  O   UNL     1      -9.880  -1.120 123.120  0.00  0.00    +0.000 OA
BRANCH  10  13
ATOM     13  C   UNL     1      -7.526  -1.831 124.092  0.00  0.00    +0.000 A 
ATOM     14  C   UNL     1      -7.011  -1.903 122.808  0.00  0.00    +0.000 A 
ATOM     15  C   UNL     1      -5.733  -2.427 122.651  0.00  0.00    +0.000 A 
ATOM     16  C   UNL     1      -5.003  -2.806 123.775  0.00  0.00    +0.000 A 
ATOM     17  C   UNL     1      -5.586  -2.652 125.025  0.00  0.00    +0.000 A 
ATOM     18  N   UNL     1      -6.844  -2.190 125.215  0.00  0.00    +0.000 NA
ENDBRANCH  10  13
ENDBRANCH   1  10
BRANCH   1  19
ATOM     19  C   UNL     1      -9.067   0.981 126.232  0.00  0.00    +0.000 C 
BRANCH  19  20
ATOM     20  C   UNL     1      -8.111   1.998 126.802  0.00  0.00    +0.000 A 
ATOM     21  N   UNL     1      -6.831   1.868 127.099  0.00  0.00    +0.000 NA
ATOM     22  C   UNL     1      -6.371   3.172 127.098  0.00  0.00    +0.000 A 
ATOM     23  N   UNL     1      -7.354   4.087 126.979  0.00  0.00    +0.000 NA
ATOM     24  O   UNL     1      -8.508   3.313 126.772  0.00  0.00    +0.000 OA
BRANCH  22  25
ATOM     25  C   UNL     1      -4.954   3.511 127.190  0.00  0.00    +0.000 A 
ATOM     26  C   UNL     1      -4.045   2.669 126.558  0.00  0.00    +0.000 A 
ATOM     27  C   UNL     1      -2.674   2.922 126.628  0.00  0.00    +0.000 A 
ATOM     28  C   UNL     1      -2.194   4.056 127.281  0.00  0.00    +0.000 A 
ATOM     29  C   UNL     1      -3.085   4.909 127.921  0.00  0.00    +0.000 A 
ATOM     30  C   UNL     1      -4.458   4.633 127.881  0.00  0.00    +0.000 A 
ENDBRANCH  22  25
ENDBRANCH  19  20
ENDBRANCH   1  19
TORSDOF 7
ENDMDL
MODEL 8
REMARK VINA RESULT:      -8.3      2.112      2.450
REMARK  Name = CHEMBL459291
REMARK  8 active torsions:
REMARK  status: ('A' for Active; 'I' for Inactive)
REMARK    1  A    between atoms: C_1  and  O_2
REMARK    2  A    between atoms: O_2  and  C_3
REMARK    3  A    between atoms: C_6  and  N_7
REMARK    4  A    between atoms: N_7  and  C_8
REMARK    5  A    between atoms: N_7  and  S_20
REMARK    6  A    between atoms: C_8  and  C_9
REMARK    7  A    between atoms: C_11  and  C_12
REMARK    8  A    between atoms: S_20  and  C_23
REMARK                            x       y       z     vdW  Elec       q    Type
REMARK                         _______ _______ _______ _____ _____    ______ ____
ROOT
ATOM      1  N   UNL     1      -8.456   2.087 124.106  0.00  0.00    +0.000 N 
ENDROOT
BRANCH   1   5
ATOM      2  C   UNL     1      -6.826   3.881 120.569  0.00  0.00    +0.000 A 
ATOM      3  C   UNL     1      -5.965   3.244 121.439  0.00  0.00    +0.000 A 
ATOM      4  C   UNL     1      -6.474   2.647 122.612  0.00  0.00    +0.000 A 
ATOM      5  C   UNL     1      -7.838   2.665 122.899  0.00  0.00    +0.000 A 
ATOM      6  C   UNL     1      -8.570   3.181 121.846  0.00  0.00    +0.000 A 
ATOM      7  N   UNL     1      -8.134   3.830 120.744  0.00  0.00    +0.000 NA
BRANCH   2   9
ATOM      8  C   UNL     1      -7.438   4.587 118.463  0.00  0.00    +0.000 C 
ATOM      9  O   UNL     1      -6.463   4.617 119.488  0.00  0.00    +0.000 OA
ENDBRANCH   2   9
ENDBRANCH   1   5
BRANCH   1  10
ATOM     10  S   UNL     1      -8.275   2.982 125.575  0.00  0.00    +0.000 S 
ATOM     11  O   UNL     1      -8.673   4.351 125.253  0.00  0.00    +0.000 OA
ATOM     12  O   UNL     1      -8.962   2.275 126.630  0.00  0.00    +0.000 OA
BRANCH  10  13
ATOM     13  C   UNL     1      -6.526   3.081 125.988  0.00  0.00    +0.000 A 
ATOM     14  C   UNL     1      -5.798   1.912 126.132  0.00  0.00    +0.000 A 
ATOM     15  C   UNL     1      -4.432   2.024 126.369  0.00  0.00    +0.000 A 
ATOM     16  C   UNL     1      -3.842   3.285 126.399  0.00  0.00    +0.000 A 
ATOM     17  C   UNL     1      -4.647   4.397 126.197  0.00  0.00    +0.000 A 
ATOM     18  N   UNL     1      -5.985   4.331 126.011  0.00  0.00    +0.000 NA
ENDBRANCH  10  13
ENDBRANCH   1  10
BRANCH   1  19
ATOM     19  C   UNL     1      -9.396   0.899 124.122  0.00  0.00    +0.000 C 
BRANCH  19  20
ATOM     20  C   UNL     1      -8.887  -0.386 124.725  0.00  0.00    +0.000 A 
ATOM     21  N   UNL     1      -7.949  -0.568 125.635  0.00  0.00    +0.000 NA
ATOM     22  C   UNL     1      -8.243  -1.819 126.148  0.00  0.00    +0.000 A 
ATOM     23  N   UNL     1      -9.214  -2.461 125.470  0.00  0.00    +0.000 NA
ATOM     24  O   UNL     1      -9.652  -1.512 124.531  0.00  0.00    +0.000 OA
BRANCH  22  25
ATOM     25  C   UNL     1      -7.579  -2.366 127.327  0.00  0.00    +0.000 A 
ATOM     26  C   UNL     1      -6.232  -2.068 127.508  0.00  0.00    +0.000 A 
ATOM     27  C   UNL     1      -5.531  -2.579 128.602  0.00  0.00    +0.000 A 
ATOM     28  C   UNL     1      -6.181  -3.348 129.565  0.00  0.00    +0.000 A 
ATOM     29  C   UNL     1      -7.526  -3.659 129.403  0.00  0.00    +0.000 A 
ATOM     30  C   UNL     1      -8.219  -3.176 128.284  0.00  0.00    +0.000 A 
ENDBRANCH  22  25
ENDBRANCH  19  20
ENDBRANCH   1  19
TORSDOF 7
ENDMDL
MODEL 9
REMARK VINA RESULT:      -8.2      6.188      9.024
REMARK  Name = CHEMBL459291
REMARK  8 active torsions:
REMARK  status: ('A' for Active; 'I' for Inactive)
REMARK    1  A    between atoms: C_1  and  O_2
REMARK    2  A    between atoms: O_2  and  C_3
REMARK    3  A    between atoms: C_6  and  N_7
REMARK    4  A    between atoms: N_7  and  C_8
REMARK    5  A    between atoms: N_7  and  S_20
REMARK    6  A    between atoms: C_8  and  C_9
REMARK    7  A    between atoms: C_11  and  C_12
REMARK    8  A    between atoms: S_20  and  C_23
REMARK                            x       y       z     vdW  Elec       q    Type
REMARK                         _______ _______ _______ _____ _____    ______ ____
ROOT
ATOM      1  N   UNL     1      -9.848   5.190 131.503  0.00  0.00    +0.000 N 
ENDROOT
BRANCH   1   5
ATOM      2  C   UNL     1     -12.301   8.318 129.896  0.00  0.00    +0.000 A 
ATOM      3  C   UNL     1     -12.732   7.664 131.032  0.00  0.00    +0.000 A 
ATOM      4  C   UNL     1     -11.945   6.630 131.581  0.00  0.00    +0.000 A 
ATOM      5  C   UNL     1     -10.725   6.268 131.011  0.00  0.00    +0.000 A 
ATOM      6  C   UNL     1     -10.364   7.135 129.996  0.00  0.00    +0.000 A 
ATOM      7  N   UNL     1     -11.105   8.086 129.386  0.00  0.00    +0.000 NA
BRANCH   2   9
ATOM      8  C   UNL     1     -13.601   8.658 128.023  0.00  0.00    +0.000 C 
ATOM      9  O   UNL     1     -13.016   9.224 129.181  0.00  0.00    +0.000 OA
ENDBRANCH   2   9
ENDBRANCH   1   5
BRANCH   1  10
ATOM     10  S   UNL     1     -10.070   3.628 130.796  0.00  0.00    +0.000 S 
ATOM     11  O   UNL     1      -9.750   2.669 131.851  0.00  0.00    +0.000 OA
ATOM     12  O   UNL     1     -11.374   3.586 130.176  0.00  0.00    +0.000 OA
BRANCH  10  13
ATOM     13  C   UNL     1      -8.818   3.375 129.529  0.00  0.00    +0.000 A 
ATOM     14  C   UNL     1      -8.206   2.137 129.419  0.00  0.00    +0.000 A 
ATOM     15  C   UNL     1      -7.304   1.950 128.378  0.00  0.00    +0.000 A 
ATOM     16  C   UNL     1      -7.090   2.977 127.463  0.00  0.00    +0.000 A 
ATOM     17  C   UNL     1      -7.785   4.167 127.628  0.00  0.00    +0.000 A 
ATOM     18  N   UNL     1      -8.634   4.403 128.654  0.00  0.00    +0.000 NA
ENDBRANCH  10  13
ENDBRANCH   1  10
BRANCH   1  19
ATOM     19  C   UNL     1      -8.651   5.383 132.410  0.00  0.00    +0.000 C 
BRANCH  19  20
ATOM     20  C   UNL     1      -7.338   5.752 131.765  0.00  0.00    +0.000 A 
ATOM     21  N   UNL     1      -6.368   4.967 131.337  0.00  0.00    +0.000 NA
ATOM     22  C   UNL     1      -5.691   5.764 130.431  0.00  0.00    +0.000 A 
ATOM     23  N   UNL     1      -6.113   7.044 130.424  0.00  0.00    +0.000 NA
ATOM     24  O   UNL     1      -7.213   7.039 131.299  0.00  0.00    +0.000 OA
BRANCH  22  25
ATOM     25  C   UNL     1      -4.642   5.251 129.556  0.00  0.00    +0.000 A 
ATOM     26  C   UNL     1      -4.375   3.885 129.597  0.00  0.00    +0.000 A 
ATOM     27  C   UNL     1      -3.369   3.334 128.802  0.00  0.00    +0.000 A 
ATOM     28  C   UNL     1      -2.653   4.129 127.910  0.00  0.00    +0.000 A 
ATOM     29  C   UNL     1      -2.902   5.495 127.854  0.00  0.00    +0.000 A 
ATOM     30  C   UNL     1      -3.887   6.053 128.680  0.00  0.00    +0.000 A 
ENDBRANCH  22  25
ENDBRANCH  19  20
ENDBRANCH   1  19
TORSDOF 7
ENDMDL
