MODEL 1
REMARK VINA RESULT:      -7.3      0.000      0.000
REMARK  Name = CHEMBL1088765
REMARK  8 active torsions:
REMARK  status: ('A' for Active; 'I' for Inactive)
REMARK    1  A    between atoms: C_1  and  C_2
REMARK    2  A    between atoms: C_2  and  N_3
REMARK    3  A    between atoms: N_3  and  C_18
REMARK    4  A    between atoms: C_4  and  C_6
REMARK    5  A    between atoms: N_9  and  C_10
REMARK    6  A    between atoms: C_16  and  C_17
REMARK    7  A    between atoms: C_21  and  O_22
REMARK    8  A    between atoms: O_22  and  C_23
REMARK                            x       y       z     vdW  Elec       q    Type
REMARK                         _______ _______ _______ _____ _____    ______ ____
ROOT
ATOM      1  N   UNL     1      -7.483   2.497 123.535  0.00  0.00    +0.000 N 
ATOM      2  C   UNL     1      -7.317   1.073 123.519  0.00  0.00    +0.000 C 
ATOM      3  O   UNL     1      -6.558   0.533 122.725  0.00  0.00    +0.000 OA
ENDROOT
BRANCH   2   4
ATOM      4  C   UNL     1      -7.939   0.215 124.541  0.00  0.00    +0.000 A 
ATOM      5  C   UNL     1      -9.204  -0.415 124.623  0.00  0.00    +0.000 A 
ATOM      6  N   UNL     1      -9.402  -1.061 125.771  0.00  0.00    +0.000 NA
ATOM      7  N   UNL     1      -8.214  -0.975 126.407  0.00  0.00    +0.000 N 
ATOM      8  C   UNL     1      -7.280  -0.282 125.664  0.00  0.00    +0.000 A 
ATOM      9  C   UNL     1      -5.832  -0.241 125.990  0.00  0.00    +0.000 C 
BRANCH   7  10
ATOM     10  C   UNL     1      -8.033  -1.629 127.641  0.00  0.00    +0.000 A 
ATOM     11  C   UNL     1      -7.755  -0.850 128.767  0.00  0.00    +0.000 A 
ATOM     12  C   UNL     1      -7.559  -1.469 129.996  0.00  0.00    +0.000 A 
ATOM     13  C   UNL     1      -7.679  -2.856 130.102  0.00  0.00    +0.000 A 
ATOM     14  C   UNL     1      -7.957  -3.633 128.975  0.00  0.00    +0.000 A 
ATOM     15  C   UNL     1      -8.132  -3.022 127.735  0.00  0.00    +0.000 A 
ENDBRANCH   7  10
ENDBRANCH   2   4
BRANCH   1  16
ATOM     16  C   UNL     1      -6.849   3.264 122.470  0.00  0.00    +0.000 A 
ATOM     17  C   UNL     1      -5.591   3.853 122.636  0.00  0.00    +0.000 A 
ATOM     18  C   UNL     1      -4.989   4.566 121.594  0.00  0.00    +0.000 A 
ATOM     19  C   UNL     1      -5.663   4.716 120.395  0.00  0.00    +0.000 A 
ATOM     20  N   UNL     1      -6.894   4.198 120.207  0.00  0.00    +0.000 NA
ATOM     21  C   UNL     1      -7.446   3.481 121.228  0.00  0.00    +0.000 A 
BRANCH  19  22
ATOM     22  O   UNL     1      -5.168   5.377 119.303  0.00  0.00    +0.000 OA
ATOM     23  C   UNL     1      -6.114   5.770 118.316  0.00  0.00    +0.000 C 
ENDBRANCH  19  22
ENDBRANCH   1  16
BRANCH   1  25
ATOM     24  C   UNL     1      -7.519   3.735 125.772  0.00  0.00    +0.000 C 
ATOM     25  C   UNL     1      -8.231   3.339 124.513  0.00  0.00    +0.000 C 
ENDBRANCH   1  25
TORSDOF 5
ENDMDL
MODEL 2
REMARK VINA RESULT:      -7.2      6.796      8.547
REMARK  Name = CHEMBL1088765
REMARK  8 active torsions:
REMARK  status: ('A' for Active; 'I' for Inactive)
REMARK    1  A    between atoms: C_1  and  C_2
REMARK    2  A    between atoms: C_2  and  N_3
REMARK    3  A    between atoms: N_3  and  C_18
REMARK    4  A    between atoms: C_4  and  C_6
REMARK    5  A    between atoms: N_9  and  C_10
REMARK    6  A    between atoms: C_16  and  C_17
REMARK    7  A    between atoms: C_21  and  O_22
REMARK    8  A    between atoms: O_22  and  C_23
REMARK                            x       y       z     vdW  Elec       q    Type
REMARK                         _______ _______ _______ _____ _____    ______ ____
ROOT
ATOM      1  N   UNL     1     -10.071   5.570 131.215  0.00  0.00    +0.000 N 
ATOM      2  C   UNL     1     -10.406   4.222 130.859  0.00  0.00    +0.000 C 
ATOM      3  O   UNL     1     -11.283   3.983 130.040  0.00  0.00    +0.000 OA
ENDROOT
BRANCH   2   4
ATOM      4  C   UNL     1      -9.619   3.078 131.351  0.00  0.00    +0.000 A 
ATOM      5  C   UNL     1      -9.554   2.431 132.609  0.00  0.00    +0.000 A 
ATOM      6  N   UNL     1      -8.646   1.458 132.658  0.00  0.00    +0.000 NA
ATOM      7  N   UNL     1      -8.193   1.365 131.389  0.00  0.00    +0.000 N 
ATOM      8  C   UNL     1      -8.813   2.271 130.552  0.00  0.00    +0.000 A 
ATOM      9  C   UNL     1      -8.703   2.236 129.073  0.00  0.00    +0.000 C 
BRANCH   7  10
ATOM     10  C   UNL     1      -7.261   0.364 131.052  0.00  0.00    +0.000 A 
ATOM     11  C   UNL     1      -7.739  -0.923 130.792  0.00  0.00    +0.000 A 
ATOM     12  C   UNL     1      -6.841  -1.934 130.470  0.00  0.00    +0.000 A 
ATOM     13  C   UNL     1      -5.478  -1.647 130.371  0.00  0.00    +0.000 A 
ATOM     14  C   UNL     1      -5.003  -0.360 130.631  0.00  0.00    +0.000 A 
ATOM     15  C   UNL     1      -5.894   0.654 130.978  0.00  0.00    +0.000 A 
ENDBRANCH   7  10
ENDBRANCH   2   4
BRANCH   1  16
ATOM     16  C   UNL     1     -10.919   6.637 130.699  0.00  0.00    +0.000 A 
ATOM     17  C   UNL     1     -12.110   7.002 131.335  0.00  0.00    +0.000 A 
ATOM     18  C   UNL     1     -12.899   8.045 130.836  0.00  0.00    +0.000 A 
ATOM     19  C   UNL     1     -12.509   8.699 129.681  0.00  0.00    +0.000 A 
ATOM     20  N   UNL     1     -11.390   8.351 129.014  0.00  0.00    +0.000 NA
ATOM     21  C   UNL     1     -10.622   7.352 129.539  0.00  0.00    +0.000 A 
BRANCH  19  22
ATOM     22  O   UNL     1     -13.192   9.740 129.110  0.00  0.00    +0.000 OA
ATOM     23  C   UNL     1     -13.458  10.859 129.947  0.00  0.00    +0.000 C 
ENDBRANCH  19  22
ENDBRANCH   1  16
BRANCH   1  25
ATOM     24  C   UNL     1      -7.692   6.497 131.364  0.00  0.00    +0.000 C 
ATOM     25  C   UNL     1      -8.945   6.059 132.063  0.00  0.00    +0.000 C 
ENDBRANCH   1  25
TORSDOF 5
ENDMDL
MODEL 3
REMARK VINA RESULT:      -7.1      2.480      8.682
REMARK  Name = CHEMBL1088765
REMARK  8 active torsions:
REMARK  status: ('A' for Active; 'I' for Inactive)
REMARK    1  A    between atoms: C_1  and  C_2
REMARK    2  A    between atoms: C_2  and  N_3
REMARK    3  A    between atoms: N_3  and  C_18
REMARK    4  A    between atoms: C_4  and  C_6
REMARK    5  A    between atoms: N_9  and  C_10
REMARK    6  A    between atoms: C_16  and  C_17
REMARK    7  A    between atoms: C_21  and  O_22
REMARK    8  A    between atoms: O_22  and  C_23
REMARK                            x       y       z     vdW  Elec       q    Type
REMARK                         _______ _______ _______ _____ _____    ______ ____
ROOT
ATOM      1  N   UNL     1      -7.465   0.424 126.819  0.00  0.00    +0.000 N 
ATOM      2  C   UNL     1      -6.305   0.792 126.061  0.00  0.00    +0.000 C 
ATOM      3  O   UNL     1      -5.280   0.125 126.106  0.00  0.00    +0.000 OA
ENDROOT
BRANCH   2   4
ATOM      4  C   UNL     1      -6.340   1.899 125.090  0.00  0.00    +0.000 A 
ATOM      5  C   UNL     1      -5.842   3.224 125.130  0.00  0.00    +0.000 A 
ATOM      6  N   UNL     1      -6.149   3.939 124.049  0.00  0.00    +0.000 NA
ATOM      7  N   UNL     1      -6.743   3.051 123.224  0.00  0.00    +0.000 N 
ATOM      8  C   UNL     1      -6.806   1.789 123.782  0.00  0.00    +0.000 A 
ATOM      9  C   UNL     1      -7.173   0.569 123.022  0.00  0.00    +0.000 C 
BRANCH   7  10
ATOM     10  C   UNL     1      -7.134   3.451 121.931  0.00  0.00    +0.000 A 
ATOM     11  C   UNL     1      -6.135   3.811 121.021  0.00  0.00    +0.000 A 
ATOM     12  C   UNL     1      -6.492   4.223 119.742  0.00  0.00    +0.000 A 
ATOM     13  C   UNL     1      -7.837   4.237 119.367  0.00  0.00    +0.000 A 
ATOM     14  C   UNL     1      -8.832   3.877 120.278  0.00  0.00    +0.000 A 
ATOM     15  C   UNL     1      -8.485   3.486 121.570  0.00  0.00    +0.000 A 
ENDBRANCH   7  10
ENDBRANCH   2   4
BRANCH   1  16
ATOM     16  C   UNL     1      -7.330  -0.670 127.772  0.00  0.00    +0.000 A 
ATOM     17  C   UNL     1      -7.858  -1.939 127.513  0.00  0.00    +0.000 A 
ATOM     18  C   UNL     1      -7.699  -2.983 128.431  0.00  0.00    +0.000 A 
ATOM     19  C   UNL     1      -7.037  -2.746 129.622  0.00  0.00    +0.000 A 
ATOM     20  N   UNL     1      -6.548  -1.528 129.929  0.00  0.00    +0.000 NA
ATOM     21  C   UNL     1      -6.689  -0.534 129.004  0.00  0.00    +0.000 A 
BRANCH  19  22
ATOM     22  O   UNL     1      -6.809  -3.692 130.586  0.00  0.00    +0.000 OA
ATOM     23  C   UNL     1      -6.878  -3.252 131.936  0.00  0.00    +0.000 C 
ENDBRANCH  19  22
ENDBRANCH   1  16
BRANCH   1  25
ATOM     24  C   UNL     1      -9.762   0.531 125.700  0.00  0.00    +0.000 C 
ATOM     25  C   UNL     1      -8.834   1.014 126.776  0.00  0.00    +0.000 C 
ENDBRANCH   1  25
TORSDOF 5
ENDMDL
MODEL 4
REMARK VINA RESULT:      -7.0      6.222      7.932
REMARK  Name = CHEMBL1088765
REMARK  8 active torsions:
REMARK  status: ('A' for Active; 'I' for Inactive)
REMARK    1  A    between atoms: C_1  and  C_2
REMARK    2  A    between atoms: C_2  and  N_3
REMARK    3  A    between atoms: N_3  and  C_18
REMARK    4  A    between atoms: C_4  and  C_6
REMARK    5  A    between atoms: N_9  and  C_10
REMARK    6  A    between atoms: C_16  and  C_17
REMARK    7  A    between atoms: C_21  and  O_22
REMARK    8  A    between atoms: O_22  and  C_23
REMARK                            x       y       z     vdW  Elec       q    Type
REMARK                         _______ _______ _______ _____ _____    ______ ____
ROOT
ATOM      1  N   UNL     1      -4.543   3.523 126.866  0.00  0.00    +0.000 N 
ATOM      2  C   UNL     1      -5.128   4.395 127.843  0.00  0.00    +0.000 C 
ATOM      3  O   UNL     1      -6.242   4.873 127.678  0.00  0.00    +0.000 OA
ENDROOT
BRANCH   2   4
ATOM      4  C   UNL     1      -4.481   4.637 129.143  0.00  0.00    +0.000 A 
ATOM      5  C   UNL     1      -4.377   3.859 130.321  0.00  0.00    +0.000 A 
ATOM      6  N   UNL     1      -3.751   4.485 131.317  0.00  0.00    +0.000 NA
ATOM      7  N   UNL     1      -3.318   5.636 130.762  0.00  0.00    +0.000 N 
ATOM      8  C   UNL     1      -3.668   5.732 129.430  0.00  0.00    +0.000 A 
ATOM      9  C   UNL     1      -3.123   6.757 128.505  0.00  0.00    +0.000 C 
BRANCH   7  10
ATOM     10  C   UNL     1      -2.532   6.526 131.521  0.00  0.00    +0.000 A 
ATOM     11  C   UNL     1      -1.203   6.177 131.779  0.00  0.00    +0.000 A 
ATOM     12  C   UNL     1      -0.408   7.029 132.536  0.00  0.00    +0.000 A 
ATOM     13  C   UNL     1      -0.930   8.238 133.000  0.00  0.00    +0.000 A 
ATOM     14  C   UNL     1      -2.258   8.583 132.741  0.00  0.00    +0.000 A 
ATOM     15  C   UNL     1      -3.070   7.724 132.002  0.00  0.00    +0.000 A 
ENDBRANCH   7  10
ENDBRANCH   2   4
BRANCH   1  16
ATOM     16  C   UNL     1      -5.245   3.360 125.599  0.00  0.00    +0.000 A 
ATOM     17  C   UNL     1      -6.062   2.254 125.348  0.00  0.00    +0.000 A 
ATOM     18  C   UNL     1      -6.746   2.126 124.134  0.00  0.00    +0.000 A 
ATOM     19  C   UNL     1      -6.584   3.094 123.158  0.00  0.00    +0.000 A 
ATOM     20  N   UNL     1      -5.773   4.156 123.344  0.00  0.00    +0.000 NA
ATOM     21  C   UNL     1      -5.143   4.272 124.548  0.00  0.00    +0.000 A 
BRANCH  19  22
ATOM     22  O   UNL     1      -7.211   3.082 121.941  0.00  0.00    +0.000 OA
ATOM     23  C   UNL     1      -6.590   3.825 120.900  0.00  0.00    +0.000 C 
ENDBRANCH  19  22
ENDBRANCH   1  16
BRANCH   1  25
ATOM     24  C   UNL     1      -2.011   3.404 126.530  0.00  0.00    +0.000 C 
ATOM     25  C   UNL     1      -3.282   2.732 126.957  0.00  0.00    +0.000 C 
ENDBRANCH   1  25
TORSDOF 5
ENDMDL
MODEL 5
REMARK VINA RESULT:      -6.8      7.939     11.260
REMARK  Name = CHEMBL1088765
REMARK  8 active torsions:
REMARK  status: ('A' for Active; 'I' for Inactive)
REMARK    1  A    between atoms: C_1  and  C_2
REMARK    2  A    between atoms: C_2  and  N_3
REMARK    3  A    between atoms: N_3  and  C_18
REMARK    4  A    between atoms: C_4  and  C_6
REMARK    5  A    between atoms: N_9  and  C_10
REMARK    6  A    between atoms: C_16  and  C_17
REMARK    7  A    between atoms: C_21  and  O_22
REMARK    8  A    between atoms: O_22  and  C_23
REMARK                            x       y       z     vdW  Elec       q    Type
REMARK                         _______ _______ _______ _____ _____    ______ ____
ROOT
ATOM      1  N   UNL     1      -7.711   2.394 131.890  0.00  0.00    +0.000 N 
ATOM      2  C   UNL     1      -8.702   3.246 132.480  0.00  0.00    +0.000 C 
ATOM      3  O   UNL     1      -9.308   2.908 133.488  0.00  0.00    +0.000 OA
ENDROOT
BRANCH   2   4
ATOM      4  C   UNL     1      -8.932   4.614 131.987  0.00  0.00    +0.000 A 
ATOM      5  C   UNL     1      -8.200   5.818 132.127  0.00  0.00    +0.000 A 
ATOM      6  N   UNL     1      -8.800   6.871 131.573  0.00  0.00    +0.000 NA
ATOM      7  N   UNL     1      -9.873   6.346 130.944  0.00  0.00    +0.000 N 
ATOM      8  C   UNL     1      -9.945   4.976 131.102  0.00  0.00    +0.000 A 
ATOM      9  C   UNL     1     -10.864   4.104 130.329  0.00  0.00    +0.000 C 
BRANCH   7  10
ATOM     10  C   UNL     1     -10.706   7.178 130.171  0.00  0.00    +0.000 A 
ATOM     11  C   UNL     1     -11.999   7.434 130.637  0.00  0.00    +0.000 A 
ATOM     12  C   UNL     1     -12.848   8.241 129.888  0.00  0.00    +0.000 A 
ATOM     13  C   UNL     1     -12.391   8.818 128.702  0.00  0.00    +0.000 A 
ATOM     14  C   UNL     1     -11.099   8.560 128.238  0.00  0.00    +0.000 A 
ATOM     15  C   UNL     1     -10.249   7.733 128.971  0.00  0.00    +0.000 A 
ENDBRANCH   7  10
ENDBRANCH   2   4
BRANCH   1  16
ATOM     16  C   UNL     1      -7.568   1.048 132.430  0.00  0.00    +0.000 A 
ATOM     17  C   UNL     1      -8.318  -0.025 131.938  0.00  0.00    +0.000 A 
ATOM     18  C   UNL     1      -8.150  -1.315 132.454  0.00  0.00    +0.000 A 
ATOM     19  C   UNL     1      -7.253  -1.522 133.487  0.00  0.00    +0.000 A 
ATOM     20  N   UNL     1      -6.540  -0.508 134.018  0.00  0.00    +0.000 NA
ATOM     21  C   UNL     1      -6.699   0.734 133.476  0.00  0.00    +0.000 A 
BRANCH  19  22
ATOM     22  O   UNL     1      -6.995  -2.739 134.059  0.00  0.00    +0.000 OA
ATOM     23  C   UNL     1      -8.103  -3.619 134.204  0.00  0.00    +0.000 C 
ENDBRANCH  19  22
ENDBRANCH   1  16
BRANCH   1  25
ATOM     24  C   UNL     1      -5.476   3.365 131.114  0.00  0.00    +0.000 C 
ATOM     25  C   UNL     1      -6.772   2.691 130.770  0.00  0.00    +0.000 C 
ENDBRANCH   1  25
TORSDOF 5
ENDMDL
MODEL 6
REMARK VINA RESULT:      -6.8      2.072      3.330
REMARK  Name = CHEMBL1088765
REMARK  8 active torsions:
REMARK  status: ('A' for Active; 'I' for Inactive)
REMARK    1  A    between atoms: C_1  and  C_2
REMARK    2  A    between atoms: C_2  and  N_3
REMARK    3  A    between atoms: N_3  and  C_18
REMARK    4  A    between atoms: C_4  and  C_6
REMARK    5  A    between atoms: N_9  and  C_10
REMARK    6  A    between atoms: C_16  and  C_17
REMARK    7  A    between atoms: C_21  and  O_22
REMARK    8  A    between atoms: O_22  and  C_23
REMARK                            x       y       z     vdW  Elec       q    Type
REMARK                         _______ _______ _______ _____ _____    ______ ____
ROOT
ATOM      1  N   UNL     1      -8.319   0.459 125.665  0.00  0.00    +0.000 N 
ATOM      2  C   UNL     1      -7.809  -0.878 125.571  0.00  0.00    +0.000 C 
ATOM      3  O   UNL     1      -7.160  -1.241 124.599  0.00  0.00    +0.000 OA
ENDROOT
BRANCH   2   4
ATOM      4  C   UNL     1      -7.921  -1.824 126.694  0.00  0.00    +0.000 A 
ATOM      5  C   UNL     1      -8.742  -2.956 126.913  0.00  0.00    +0.000 A 
ATOM      6  N   UNL     1      -8.574  -3.508 128.114  0.00  0.00    +0.000 NA
ATOM      7  N   UNL     1      -7.542  -2.823 128.651  0.00  0.00    +0.000 N 
ATOM      8  C   UNL     1      -7.067  -1.851 127.793  0.00  0.00    +0.000 A 
ATOM      9  C   UNL     1      -5.795  -1.115 128.005  0.00  0.00    +0.000 C 
BRANCH   7  10
ATOM     10  C   UNL     1      -7.033  -3.199 129.909  0.00  0.00    +0.000 A 
ATOM     11  C   UNL     1      -6.116  -4.252 129.962  0.00  0.00    +0.000 A 
ATOM     12  C   UNL     1      -5.606  -4.654 131.191  0.00  0.00    +0.000 A 
ATOM     13  C   UNL     1      -5.984  -3.979 132.354  0.00  0.00    +0.000 A 
ATOM     14  C   UNL     1      -6.902  -2.928 132.298  0.00  0.00    +0.000 A 
ATOM     15  C   UNL     1      -7.435  -2.534 131.072  0.00  0.00    +0.000 A 
ENDBRANCH   7  10
ENDBRANCH   2   4
BRANCH   1  16
ATOM     16  C   UNL     1      -8.183   1.319 124.496  0.00  0.00    +0.000 A 
ATOM     17  C   UNL     1      -9.219   1.469 123.569  0.00  0.00    +0.000 A 
ATOM     18  C   UNL     1      -9.077   2.316 122.465  0.00  0.00    +0.000 A 
ATOM     19  C   UNL     1      -7.883   2.989 122.273  0.00  0.00    +0.000 A 
ATOM     20  N   UNL     1      -6.845   2.841 123.121  0.00  0.00    +0.000 NA
ATOM     21  C   UNL     1      -7.020   2.033 124.206  0.00  0.00    +0.000 A 
BRANCH  19  22
ATOM     22  O   UNL     1      -7.636   3.853 121.240  0.00  0.00    +0.000 OA
ATOM     23  C   UNL     1      -6.311   3.862 120.724  0.00  0.00    +0.000 C 
ENDBRANCH  19  22
ENDBRANCH   1  16
BRANCH   1  25
ATOM     24  C   UNL     1      -8.114   1.830 127.814  0.00  0.00    +0.000 C 
ATOM     25  C   UNL     1      -8.988   1.124 126.821  0.00  0.00    +0.000 C 
ENDBRANCH   1  25
TORSDOF 5
ENDMDL
MODEL 7
REMARK VINA RESULT:      -6.8      5.353     10.017
REMARK  Name = CHEMBL1088765
REMARK  8 active torsions:
REMARK  status: ('A' for Active; 'I' for Inactive)
REMARK    1  A    between atoms: C_1  and  C_2
REMARK    2  A    between atoms: C_2  and  N_3
REMARK    3  A    between atoms: N_3  and  C_18
REMARK    4  A    between atoms: C_4  and  C_6
REMARK    5  A    between atoms: N_9  and  C_10
REMARK    6  A    between atoms: C_16  and  C_17
REMARK    7  A    between atoms: C_21  and  O_22
REMARK    8  A    between atoms: O_22  and  C_23
REMARK                            x       y       z     vdW  Elec       q    Type
REMARK                         _______ _______ _______ _____ _____    ______ ____
ROOT
ATOM      1  N   UNL     1      -6.822  -3.059 130.792  0.00  0.00    +0.000 N 
ATOM      2  C   UNL     1      -7.673  -2.321 129.905  0.00  0.00    +0.000 C 
ATOM      3  O   UNL     1      -8.218  -1.287 130.264  0.00  0.00    +0.000 OA
ENDROOT
BRANCH   2   4
ATOM      4  C   UNL     1      -7.814  -2.695 128.487  0.00  0.00    +0.000 A 
ATOM      5  C   UNL     1      -8.725  -3.537 127.805  0.00  0.00    +0.000 A 
ATOM      6  N   UNL     1      -8.462  -3.662 126.505  0.00  0.00    +0.000 NA
ATOM      7  N   UNL     1      -7.450  -2.795 126.290  0.00  0.00    +0.000 N 
ATOM      8  C   UNL     1      -7.083  -2.132 127.444  0.00  0.00    +0.000 A 
ATOM      9  C   UNL     1      -6.180  -0.955 127.467  0.00  0.00    +0.000 C 
BRANCH   7  10
ATOM     10  C   UNL     1      -6.962  -2.602 124.982  0.00  0.00    +0.000 A 
ATOM     11  C   UNL     1      -7.753  -1.884 124.081  0.00  0.00    +0.000 A 
ATOM     12  C   UNL     1      -7.302  -1.690 122.781  0.00  0.00    +0.000 A 
ATOM     13  C   UNL     1      -6.052  -2.179 122.398  0.00  0.00    +0.000 A 
ATOM     14  C   UNL     1      -5.264  -2.897 123.300  0.00  0.00    +0.000 A 
ATOM     15  C   UNL     1      -5.718  -3.116 124.600  0.00  0.00    +0.000 A 
ENDBRANCH   7  10
ENDBRANCH   2   4
BRANCH   1  16
ATOM     16  C   UNL     1      -6.761  -2.629 132.183  0.00  0.00    +0.000 A 
ATOM     17  C   UNL     1      -5.775  -1.747 132.638  0.00  0.00    +0.000 A 
ATOM     18  C   UNL     1      -5.747  -1.328 133.972  0.00  0.00    +0.000 A 
ATOM     19  C   UNL     1      -6.689  -1.818 134.859  0.00  0.00    +0.000 A 
ATOM     20  N   UNL     1      -7.632  -2.701 134.471  0.00  0.00    +0.000 NA
ATOM     21  C   UNL     1      -7.656  -3.070 133.157  0.00  0.00    +0.000 A 
BRANCH  19  22
ATOM     22  O   UNL     1      -6.768  -1.469 136.180  0.00  0.00    +0.000 OA
ATOM     23  C   UNL     1      -5.614  -0.860 136.746  0.00  0.00    +0.000 C 
ENDBRANCH  19  22
ENDBRANCH   1  16
BRANCH   1  25
ATOM     24  C   UNL     1      -4.567  -3.971 130.002  0.00  0.00    +0.000 C 
ATOM     25  C   UNL     1      -5.960  -4.238 130.492  0.00  0.00    +0.000 C 
ENDBRANCH   1  25
TORSDOF 5
ENDMDL
MODEL 8
REMARK VINA RESULT:      -6.7      7.196      8.334
REMARK  Name = CHEMBL1088765
REMARK  8 active torsions:
REMARK  status: ('A' for Active; 'I' for Inactive)
REMARK    1  A    between atoms: C_1  and  C_2
REMARK    2  A    between atoms: C_2  and  N_3
REMARK    3  A    between atoms: N_3  and  C_18
REMARK    4  A    between atoms: C_4  and  C_6
REMARK    5  A    between atoms: N_9  and  C_10
REMARK    6  A    between atoms: C_16  and  C_17
REMARK    7  A    between atoms: C_21  and  O_22
REMARK    8  A    between atoms: O_22  and  C_23
REMARK                            x       y       z     vdW  Elec       q    Type
REMARK                         _______ _______ _______ _____ _____    ______ ____
ROOT
ATOM      1  N   UNL     1      -9.231   5.236 131.114  0.00  0.00    +0.000 N 
ATOM      2  C   UNL     1      -9.291   3.984 130.419  0.00  0.00    +0.000 C 
ATOM      3  O   UNL     1     -10.082   3.805 129.502  0.00  0.00    +0.000 OA
ENDROOT
BRANCH   2   4
ATOM      4  C   UNL     1      -8.314   2.912 130.679  0.00  0.00    +0.000 A 
ATOM      5  C   UNL     1      -6.907   2.846 130.542  0.00  0.00    +0.000 A 
ATOM      6  N   UNL     1      -6.403   1.646 130.825  0.00  0.00    +0.000 NA
ATOM      7  N   UNL     1      -7.461   0.942 131.281  0.00  0.00    +0.000 N 
ATOM      8  C   UNL     1      -8.618   1.695 131.284  0.00  0.00    +0.000 A 
ATOM      9  C   UNL     1      -9.873   1.275 131.956  0.00  0.00    +0.000 C 
BRANCH   7  10
ATOM     10  C   UNL     1      -7.275  -0.371 131.756  0.00  0.00    +0.000 A 
ATOM     11  C   UNL     1      -7.556  -1.432 130.890  0.00  0.00    +0.000 A 
ATOM     12  C   UNL     1      -7.394  -2.738 131.336  0.00  0.00    +0.000 A 
ATOM     13  C   UNL     1      -6.918  -2.979 132.626  0.00  0.00    +0.000 A 
ATOM     14  C   UNL     1      -6.639  -1.917 133.489  0.00  0.00    +0.000 A 
ATOM     15  C   UNL     1      -6.820  -0.604 133.058  0.00  0.00    +0.000 A 
ENDBRANCH   7  10
ENDBRANCH   2   4
BRANCH   1  16
ATOM     16  C   UNL     1     -10.252   6.229 130.807  0.00  0.00    +0.000 A 
ATOM     17  C   UNL     1     -11.443   6.310 131.537  0.00  0.00    +0.000 A 
ATOM     18  C   UNL     1     -12.401   7.285 131.241  0.00  0.00    +0.000 A 
ATOM     19  C   UNL     1     -12.179   8.160 130.192  0.00  0.00    +0.000 A 
ATOM     20  N   UNL     1     -11.064   8.091 129.438  0.00  0.00    +0.000 NA
ATOM     21  C   UNL     1     -10.131   7.151 129.767  0.00  0.00    +0.000 A 
BRANCH  19  22
ATOM     22  O   UNL     1     -13.037   9.162 129.822  0.00  0.00    +0.000 OA
ATOM     23  C   UNL     1     -13.371   9.232 128.441  0.00  0.00    +0.000 C 
ENDBRANCH  19  22
ENDBRANCH   1  16
BRANCH   1  25
ATOM     24  C   UNL     1      -7.054   6.463 131.656  0.00  0.00    +0.000 C 
ATOM     25  C   UNL     1      -8.245   5.689 132.138  0.00  0.00    +0.000 C 
ENDBRANCH   1  25
TORSDOF 5
ENDMDL
MODEL 9
REMARK VINA RESULT:      -6.6      1.720      2.356
REMARK  Name = CHEMBL1088765
REMARK  8 active torsions:
REMARK  status: ('A' for Active; 'I' for Inactive)
REMARK    1  A    between atoms: C_1  and  C_2
REMARK    2  A    between atoms: C_2  and  N_3
REMARK    3  A    between atoms: N_3  and  C_18
REMARK    4  A    between atoms: C_4  and  C_6
REMARK    5  A    between atoms: N_9  and  C_10
REMARK    6  A    between atoms: C_16  and  C_17
REMARK    7  A    between atoms: C_21  and  O_22
REMARK    8  A    between atoms: O_22  and  C_23
REMARK                            x       y       z     vdW  Elec       q    Type
REMARK                         _______ _______ _______ _____ _____    ______ ____
ROOT
ATOM      1  N   UNL     1      -7.887   1.868 123.717  0.00  0.00    +0.000 N 
ATOM      2  C   UNL     1      -7.024   2.120 124.833  0.00  0.00    +0.000 C 
ATOM      3  O   UNL     1      -6.200   3.024 124.805  0.00  0.00    +0.000 OA
ENDROOT
BRANCH   2   4
ATOM      4  C   UNL     1      -7.185   1.401 126.108  0.00  0.00    +0.000 A 
ATOM      5  C   UNL     1      -7.871   1.717 127.306  0.00  0.00    +0.000 A 
ATOM      6  N   UNL     1      -7.710   0.808 128.266  0.00  0.00    +0.000 NA
ATOM      7  N   UNL     1      -7.021  -0.186 127.665  0.00  0.00    +0.000 N 
ATOM      8  C   UNL     1      -6.754   0.097 126.341  0.00  0.00    +0.000 A 
ATOM      9  C   UNL     1      -6.237  -0.901 125.372  0.00  0.00    +0.000 C 
BRANCH   7  10
ATOM     10  C   UNL     1      -6.738  -1.369 128.377  0.00  0.00    +0.000 A 
ATOM     11  C   UNL     1      -7.792  -2.248 128.642  0.00  0.00    +0.000 A 
ATOM     12  C   UNL     1      -7.545  -3.416 129.354  0.00  0.00    +0.000 A 
ATOM     13  C   UNL     1      -6.245  -3.719 129.763  0.00  0.00    +0.000 A 
ATOM     14  C   UNL     1      -5.194  -2.838 129.497  0.00  0.00    +0.000 A 
ATOM     15  C   UNL     1      -5.437  -1.653 128.805  0.00  0.00    +0.000 A 
ENDBRANCH   7  10
ENDBRANCH   2   4
BRANCH   1  16
ATOM     16  C   UNL     1      -7.638   2.612 122.489  0.00  0.00    +0.000 A 
ATOM     17  C   UNL     1      -8.682   3.164 121.739  0.00  0.00    +0.000 A 
ATOM     18  C   UNL     1      -8.421   3.894 120.574  0.00  0.00    +0.000 A 
ATOM     19  C   UNL     1      -7.115   4.045 120.144  0.00  0.00    +0.000 A 
ATOM     20  N   UNL     1      -6.083   3.495 120.816  0.00  0.00    +0.000 NA
ATOM     21  C   UNL     1      -6.361   2.814 121.965  0.00  0.00    +0.000 A 
BRANCH  19  22
ATOM     22  O   UNL     1      -6.740   4.749 119.032  0.00  0.00    +0.000 OA
ATOM     23  C   UNL     1      -5.579   5.562 119.157  0.00  0.00    +0.000 C 
ENDBRANCH  19  22
ENDBRANCH   1  16
BRANCH   1  25
ATOM     24  C   UNL     1     -10.310   1.318 124.322  0.00  0.00    +0.000 C 
ATOM     25  C   UNL     1      -9.041   0.928 123.623  0.00  0.00    +0.000 C 
ENDBRANCH   1  25
TORSDOF 5
ENDMDL
