MODEL 1
REMARK VINA RESULT:      -9.1      0.000      0.000
REMARK  Name = CHEMBL1091817
REMARK  7 active torsions:
REMARK  status: ('A' for Active; 'I' for Inactive)
REMARK    1  A    between atoms: C_1  and  O_2
REMARK    2  A    between atoms: O_2  and  C_3
REMARK    3  A    between atoms: C_6  and  N_7
REMARK    4  A    between atoms: C_8  and  C_9
REMARK    5  A    between atoms: C_15  and  O_16
REMARK    6  A    between atoms: O_16  and  C_17
REMARK    7  A    between atoms: C_24  and  C_25
REMARK                            x       y       z     vdW  Elec       q    Type
REMARK                         _______ _______ _______ _____ _____    ______ ____
ROOT
ATOM      1  N   UNL     1      -8.421  -1.321 124.514  0.00  0.00    +0.000 N 
ATOM      2  C   UNL     1      -8.988  -2.445 123.906  0.00  0.00    +0.000 A 
ATOM      3  C   UNL     1      -8.913  -3.877 124.346  0.00  0.00    +0.000 C 
ATOM      4  N   UNL     1      -9.771  -2.037 122.926  0.00  0.00    +0.000 NA
ATOM      5  N   UNL     1      -9.788  -0.656 122.913  0.00  0.00    +0.000 NA
ATOM      6  C   UNL     1      -9.003  -0.216 123.861  0.00  0.00    +0.000 A 
ATOM      7  N   UNL     1      -8.681   1.069 124.244  0.00  0.00    +0.000 N 
ATOM      8  C   UNL     1      -9.369   2.305 124.018  0.00  0.00    +0.000 C 
ATOM      9  C   UNL     1      -8.116   2.893 123.317  0.00  0.00    +0.000 C 
ATOM     10  C   UNL     1      -7.412   1.663 123.944  0.00  0.00    +0.000 C 
ENDROOT
BRANCH   1  14
ATOM     11  C   UNL     1      -5.778  -1.333 127.740  0.00  0.00    +0.000 A 
ATOM     12  C   UNL     1      -5.264  -1.494 126.464  0.00  0.00    +0.000 A 
ATOM     13  C   UNL     1      -6.142  -1.442 125.383  0.00  0.00    +0.000 A 
ATOM     14  C   UNL     1      -7.512  -1.239 125.598  0.00  0.00    +0.000 A 
ATOM     15  C   UNL     1      -7.945  -1.135 126.908  0.00  0.00    +0.000 A 
ATOM     16  N   UNL     1      -7.103  -1.183 127.978  0.00  0.00    +0.000 NA
BRANCH  11  18
ATOM     17  C   UNL     1      -4.493  -2.739 129.106  0.00  0.00    +0.000 C 
ATOM     18  O   UNL     1      -4.992  -1.425 128.860  0.00  0.00    +0.000 OA
ENDBRANCH  11  18
ENDBRANCH   1  14
BRANCH   9  19
ATOM     19  O   UNL     1      -8.202   3.064 121.864  0.00  0.00    +0.000 OA
BRANCH  19  20
ATOM     20  C   UNL     1      -7.156   3.682 121.197  0.00  0.00    +0.000 A 
ATOM     21  C   UNL     1      -5.953   3.898 121.887  0.00  0.00    +0.000 A 
ATOM     22  C   UNL     1      -4.925   4.638 121.283  0.00  0.00    +0.000 A 
ATOM     23  F   UNL     1      -3.774   4.841 121.940  0.00  0.00    +0.000 F 
ATOM     24  C   UNL     1      -5.066   5.177 120.016  0.00  0.00    +0.000 A 
ATOM     25  C   UNL     1      -6.256   4.971 119.347  0.00  0.00    +0.000 A 
ATOM     26  F   UNL     1      -6.405   5.490 118.121  0.00  0.00    +0.000 F 
ATOM     27  C   UNL     1      -7.306   4.244 119.920  0.00  0.00    +0.000 A 
ATOM     28  C   UNL     1      -8.541   4.099 119.111  0.00  0.00    +0.000 C 
ENDBRANCH  19  20
ENDBRANCH   9  19
TORSDOF 4
ENDMDL
MODEL 2
REMARK VINA RESULT:      -8.0      2.358      3.223
REMARK  Name = CHEMBL1091817
REMARK  7 active torsions:
REMARK  status: ('A' for Active; 'I' for Inactive)
REMARK    1  A    between atoms: C_1  and  O_2
REMARK    2  A    between atoms: O_2  and  C_3
REMARK    3  A    between atoms: C_6  and  N_7
REMARK    4  A    between atoms: C_8  and  C_9
REMARK    5  A    between atoms: C_15  and  O_16
REMARK    6  A    between atoms: O_16  and  C_17
REMARK    7  A    between atoms: C_24  and  C_25
REMARK                            x       y       z     vdW  Elec       q    Type
REMARK                         _______ _______ _______ _____ _____    ______ ____
ROOT
ATOM      1  N   UNL     1      -6.736  -2.356 124.407  0.00  0.00    +0.000 N 
ATOM      2  C   UNL     1      -5.668  -2.957 123.735  0.00  0.00    +0.000 A 
ATOM      3  C   UNL     1      -4.810  -4.101 124.187  0.00  0.00    +0.000 C 
ATOM      4  N   UNL     1      -5.612  -2.457 122.515  0.00  0.00    +0.000 NA
ATOM      5  N   UNL     1      -6.666  -1.582 122.341  0.00  0.00    +0.000 NA
ATOM      6  C   UNL     1      -7.352  -1.523 123.452  0.00  0.00    +0.000 A 
ATOM      7  N   UNL     1      -8.476  -0.796 123.783  0.00  0.00    +0.000 N 
ATOM      8  C   UNL     1      -9.471  -0.193 122.947  0.00  0.00    +0.000 C 
ATOM      9  C   UNL     1      -9.180   1.196 123.575  0.00  0.00    +0.000 C 
ATOM     10  C   UNL     1      -8.420   0.357 124.633  0.00  0.00    +0.000 C 
ENDROOT
BRANCH   1  14
ATOM     11  C   UNL     1      -7.960  -3.153 128.314  0.00  0.00    +0.000 A 
ATOM     12  C   UNL     1      -6.815  -2.400 128.122  0.00  0.00    +0.000 A 
ATOM     13  C   UNL     1      -6.432  -2.094 126.816  0.00  0.00    +0.000 A 
ATOM     14  C   UNL     1      -7.195  -2.551 125.734  0.00  0.00    +0.000 A 
ATOM     15  C   UNL     1      -8.299  -3.337 126.017  0.00  0.00    +0.000 A 
ATOM     16  N   UNL     1      -8.689  -3.647 127.284  0.00  0.00    +0.000 NA
BRANCH  11  18
ATOM     17  C   UNL     1      -7.615  -2.973 130.625  0.00  0.00    +0.000 C 
ATOM     18  O   UNL     1      -8.375  -3.544 129.561  0.00  0.00    +0.000 OA
ENDBRANCH  11  18
ENDBRANCH   1  14
BRANCH   9  19
ATOM     19  O   UNL     1      -8.481   2.162 122.723  0.00  0.00    +0.000 OA
BRANCH  19  20
ATOM     20  C   UNL     1      -7.514   2.980 123.288  0.00  0.00    +0.000 A 
ATOM     21  C   UNL     1      -7.760   3.535 124.553  0.00  0.00    +0.000 A 
ATOM     22  C   UNL     1      -6.864   4.471 125.091  0.00  0.00    +0.000 A 
ATOM     23  F   UNL     1      -7.096   4.999 126.302  0.00  0.00    +0.000 F 
ATOM     24  C   UNL     1      -5.736   4.878 124.399  0.00  0.00    +0.000 A 
ATOM     25  C   UNL     1      -5.506   4.336 123.149  0.00  0.00    +0.000 A 
ATOM     26  F   UNL     1      -4.418   4.723 122.470  0.00  0.00    +0.000 F 
ATOM     27  C   UNL     1      -6.381   3.406 122.579  0.00  0.00    +0.000 A 
ATOM     28  C   UNL     1      -6.036   2.903 121.226  0.00  0.00    +0.000 C 
ENDBRANCH  19  20
ENDBRANCH   9  19
TORSDOF 4
ENDMDL
MODEL 3
REMARK VINA RESULT:      -8.0      5.043      7.730
REMARK  Name = CHEMBL1091817
REMARK  7 active torsions:
REMARK  status: ('A' for Active; 'I' for Inactive)
REMARK    1  A    between atoms: C_1  and  O_2
REMARK    2  A    between atoms: O_2  and  C_3
REMARK    3  A    between atoms: C_6  and  N_7
REMARK    4  A    between atoms: C_8  and  C_9
REMARK    5  A    between atoms: C_15  and  O_16
REMARK    6  A    between atoms: O_16  and  C_17
REMARK    7  A    between atoms: C_24  and  C_25
REMARK                            x       y       z     vdW  Elec       q    Type
REMARK                         _______ _______ _______ _____ _____    ______ ____
ROOT
ATOM      1  N   UNL     1      -6.513   2.940 123.149  0.00  0.00    +0.000 N 
ATOM      2  C   UNL     1      -6.033   3.580 122.003  0.00  0.00    +0.000 A 
ATOM      3  C   UNL     1      -6.379   3.306 120.569  0.00  0.00    +0.000 C 
ATOM      4  N   UNL     1      -5.313   4.620 122.380  0.00  0.00    +0.000 NA
ATOM      5  N   UNL     1      -5.361   4.722 123.757  0.00  0.00    +0.000 NA
ATOM      6  C   UNL     1      -6.084   3.739 124.227  0.00  0.00    +0.000 A 
ATOM      7  N   UNL     1      -6.419   3.403 125.521  0.00  0.00    +0.000 N 
ATOM      8  C   UNL     1      -6.434   4.198 126.712  0.00  0.00    +0.000 C 
ATOM      9  C   UNL     1      -5.451   3.215 127.401  0.00  0.00    +0.000 C 
ATOM     10  C   UNL     1      -5.818   2.297 126.207  0.00  0.00    +0.000 C 
ENDROOT
BRANCH   1  14
ATOM     11  C   UNL     1      -8.906  -0.475 123.239  0.00  0.00    +0.000 A 
ATOM     12  C   UNL     1      -7.531  -0.633 123.223  0.00  0.00    +0.000 A 
ATOM     13  C   UNL     1      -6.731   0.509 123.241  0.00  0.00    +0.000 A 
ATOM     14  C   UNL     1      -7.320   1.780 123.267  0.00  0.00    +0.000 A 
ATOM     15  C   UNL     1      -8.702   1.845 123.234  0.00  0.00    +0.000 A 
ATOM     16  N   UNL     1      -9.500   0.742 123.216  0.00  0.00    +0.000 NA
BRANCH  11  18
ATOM     17  C   UNL     1      -9.153  -2.793 123.486  0.00  0.00    +0.000 C 
ATOM     18  O   UNL     1      -9.764  -1.543 123.168  0.00  0.00    +0.000 OA
ENDBRANCH  11  18
ENDBRANCH   1  14
BRANCH   9  19
ATOM     19  O   UNL     1      -4.081   3.696 127.599  0.00  0.00    +0.000 OA
BRANCH  19  20
ATOM     20  C   UNL     1      -3.645   3.972 128.886  0.00  0.00    +0.000 A 
ATOM     21  C   UNL     1      -4.067   3.137 129.932  0.00  0.00    +0.000 A 
ATOM     22  C   UNL     1      -3.753   3.467 131.259  0.00  0.00    +0.000 A 
ATOM     23  F   UNL     1      -4.152   2.667 132.258  0.00  0.00    +0.000 F 
ATOM     24  C   UNL     1      -3.041   4.611 131.574  0.00  0.00    +0.000 A 
ATOM     25  C   UNL     1      -2.639   5.435 130.541  0.00  0.00    +0.000 A 
ATOM     26  F   UNL     1      -1.949   6.546 130.833  0.00  0.00    +0.000 F 
ATOM     27  C   UNL     1      -2.939   5.141 129.206  0.00  0.00    +0.000 A 
ATOM     28  C   UNL     1      -2.465   6.107 128.184  0.00  0.00    +0.000 C 
ENDBRANCH  19  20
ENDBRANCH   9  19
TORSDOF 4
ENDMDL
MODEL 4
REMARK VINA RESULT:      -8.0      4.272      5.210
REMARK  Name = CHEMBL1091817
REMARK  7 active torsions:
REMARK  status: ('A' for Active; 'I' for Inactive)
REMARK    1  A    between atoms: C_1  and  O_2
REMARK    2  A    between atoms: O_2  and  C_3
REMARK    3  A    between atoms: C_6  and  N_7
REMARK    4  A    between atoms: C_8  and  C_9
REMARK    5  A    between atoms: C_15  and  O_16
REMARK    6  A    between atoms: O_16  and  C_17
REMARK    7  A    between atoms: C_24  and  C_25
REMARK                            x       y       z     vdW  Elec       q    Type
REMARK                         _______ _______ _______ _____ _____    ______ ____
ROOT
ATOM      1  N   UNL     1      -7.129   2.983 128.386  0.00  0.00    +0.000 N 
ATOM      2  C   UNL     1      -8.167   2.180 128.866  0.00  0.00    +0.000 A 
ATOM      3  C   UNL     1      -8.465   1.794 130.284  0.00  0.00    +0.000 C 
ATOM      4  N   UNL     1      -8.986   1.918 127.865  0.00  0.00    +0.000 NA
ATOM      5  N   UNL     1      -8.547   2.590 126.741  0.00  0.00    +0.000 NA
ATOM      6  C   UNL     1      -7.453   3.240 127.039  0.00  0.00    +0.000 A 
ATOM      7  N   UNL     1      -6.639   4.042 126.266  0.00  0.00    +0.000 N 
ATOM      8  C   UNL     1      -6.912   4.737 125.044  0.00  0.00    +0.000 C 
ATOM      9  C   UNL     1      -5.747   3.991 124.341  0.00  0.00    +0.000 C 
ATOM     10  C   UNL     1      -5.360   3.605 125.791  0.00  0.00    +0.000 C 
ENDROOT
BRANCH   1  14
ATOM     11  C   UNL     1      -3.738   4.635 130.166  0.00  0.00    +0.000 A 
ATOM     12  C   UNL     1      -4.890   5.400 130.104  0.00  0.00    +0.000 A 
ATOM     13  C   UNL     1      -6.037   4.831 129.552  0.00  0.00    +0.000 A 
ATOM     14  C   UNL     1      -6.006   3.516 129.068  0.00  0.00    +0.000 A 
ATOM     15  C   UNL     1      -4.799   2.841 129.128  0.00  0.00    +0.000 A 
ATOM     16  N   UNL     1      -3.669   3.379 129.663  0.00  0.00    +0.000 NA
BRANCH  11  18
ATOM     17  C   UNL     1      -2.703   5.963 131.798  0.00  0.00    +0.000 C 
ATOM     18  O   UNL     1      -2.554   5.137 130.643  0.00  0.00    +0.000 OA
ENDBRANCH  11  18
ENDBRANCH   1  14
BRANCH   9  19
ATOM     19  O   UNL     1      -6.127   2.973 123.357  0.00  0.00    +0.000 OA
BRANCH  19  20
ATOM     20  C   UNL     1      -6.509   3.376 122.086  0.00  0.00    +0.000 A 
ATOM     21  C   UNL     1      -5.558   4.003 121.267  0.00  0.00    +0.000 A 
ATOM     22  C   UNL     1      -5.948   4.541 120.031  0.00  0.00    +0.000 A 
ATOM     23  F   UNL     1      -5.039   5.137 119.245  0.00  0.00    +0.000 F 
ATOM     24  C   UNL     1      -7.260   4.480 119.594  0.00  0.00    +0.000 A 
ATOM     25  C   UNL     1      -8.193   3.872 120.411  0.00  0.00    +0.000 A 
ATOM     26  F   UNL     1      -9.466   3.808 119.999  0.00  0.00    +0.000 F 
ATOM     27  C   UNL     1      -7.842   3.331 121.652  0.00  0.00    +0.000 A 
ATOM     28  C   UNL     1      -8.932   2.713 122.447  0.00  0.00    +0.000 C 
ENDBRANCH  19  20
ENDBRANCH   9  19
TORSDOF 4
ENDMDL
MODEL 5
REMARK VINA RESULT:      -7.9      4.784      7.392
REMARK  Name = CHEMBL1091817
REMARK  7 active torsions:
REMARK  status: ('A' for Active; 'I' for Inactive)
REMARK    1  A    between atoms: C_1  and  O_2
REMARK    2  A    between atoms: O_2  and  C_3
REMARK    3  A    between atoms: C_6  and  N_7
REMARK    4  A    between atoms: C_8  and  C_9
REMARK    5  A    between atoms: C_15  and  O_16
REMARK    6  A    between atoms: O_16  and  C_17
REMARK    7  A    between atoms: C_24  and  C_25
REMARK                            x       y       z     vdW  Elec       q    Type
REMARK                         _______ _______ _______ _____ _____    ______ ____
ROOT
ATOM      1  N   UNL     1      -6.654   2.634 123.628  0.00  0.00    +0.000 N 
ATOM      2  C   UNL     1      -6.358   3.487 122.560  0.00  0.00    +0.000 A 
ATOM      3  C   UNL     1      -6.913   3.460 121.167  0.00  0.00    +0.000 C 
ATOM      4  N   UNL     1      -5.600   4.468 123.011  0.00  0.00    +0.000 NA
ATOM      5  N   UNL     1      -5.441   4.320 124.375  0.00  0.00    +0.000 NA
ATOM      6  C   UNL     1      -6.074   3.244 124.759  0.00  0.00    +0.000 A 
ATOM      7  N   UNL     1      -6.207   2.669 126.005  0.00  0.00    +0.000 N 
ATOM      8  C   UNL     1      -6.051   3.238 127.310  0.00  0.00    +0.000 C 
ATOM      9  C   UNL     1      -4.965   2.184 127.656  0.00  0.00    +0.000 C 
ATOM     10  C   UNL     1      -5.498   1.482 126.382  0.00  0.00    +0.000 C 
ENDROOT
BRANCH   1  14
ATOM     11  C   UNL     1      -8.980  -0.823 123.447  0.00  0.00    +0.000 A 
ATOM     12  C   UNL     1      -7.630  -0.919 123.153  0.00  0.00    +0.000 A 
ATOM     13  C   UNL     1      -6.844   0.228 123.260  0.00  0.00    +0.000 A 
ATOM     14  C   UNL     1      -7.421   1.443 123.649  0.00  0.00    +0.000 A 
ATOM     15  C   UNL     1      -8.787   1.457 123.878  0.00  0.00    +0.000 A 
ATOM     16  N   UNL     1      -9.571   0.349 123.780  0.00  0.00    +0.000 NA
BRANCH  11  18
ATOM     17  C   UNL     1      -9.262  -3.134 123.715  0.00  0.00    +0.000 C 
ATOM     18  O   UNL     1      -9.832  -1.889 123.315  0.00  0.00    +0.000 OA
ENDBRANCH  11  18
ENDBRANCH   1  14
BRANCH   9  19
ATOM     19  O   UNL     1      -3.586   2.673 127.736  0.00  0.00    +0.000 OA
BRANCH  19  20
ATOM     20  C   UNL     1      -3.322   3.828 128.457  0.00  0.00    +0.000 A 
ATOM     21  C   UNL     1      -2.763   4.926 127.786  0.00  0.00    +0.000 A 
ATOM     22  C   UNL     1      -2.362   6.058 128.513  0.00  0.00    +0.000 A 
ATOM     23  F   UNL     1      -1.832   7.109 127.872  0.00  0.00    +0.000 F 
ATOM     24  C   UNL     1      -2.494   6.121 129.889  0.00  0.00    +0.000 A 
ATOM     25  C   UNL     1      -3.035   5.032 130.545  0.00  0.00    +0.000 A 
ATOM     26  F   UNL     1      -3.166   5.082 131.877  0.00  0.00    +0.000 F 
ATOM     27  C   UNL     1      -3.439   3.884 129.854  0.00  0.00    +0.000 A 
ATOM     28  C   UNL     1      -3.994   2.774 130.667  0.00  0.00    +0.000 C 
ENDBRANCH  19  20
ENDBRANCH   9  19
TORSDOF 4
ENDMDL
MODEL 6
REMARK VINA RESULT:      -7.9      7.262      8.851
REMARK  Name = CHEMBL1091817
REMARK  7 active torsions:
REMARK  status: ('A' for Active; 'I' for Inactive)
REMARK    1  A    between atoms: C_1  and  O_2
REMARK    2  A    between atoms: O_2  and  C_3
REMARK    3  A    between atoms: C_6  and  N_7
REMARK    4  A    between atoms: C_8  and  C_9
REMARK    5  A    between atoms: C_15  and  O_16
REMARK    6  A    between atoms: O_16  and  C_17
REMARK    7  A    between atoms: C_24  and  C_25
REMARK                            x       y       z     vdW  Elec       q    Type
REMARK                         _______ _______ _______ _____ _____    ______ ____
ROOT
ATOM      1  N   UNL     1      -4.634   3.958 128.618  0.00  0.00    +0.000 N 
ATOM      2  C   UNL     1      -3.798   4.228 127.531  0.00  0.00    +0.000 A 
ATOM      3  C   UNL     1      -2.333   3.941 127.391  0.00  0.00    +0.000 C 
ATOM      4  N   UNL     1      -4.545   4.651 126.528  0.00  0.00    +0.000 NA
ATOM      5  N   UNL     1      -5.872   4.603 126.907  0.00  0.00    +0.000 NA
ATOM      6  C   UNL     1      -5.942   4.178 128.141  0.00  0.00    +0.000 A 
ATOM      7  N   UNL     1      -7.029   3.970 128.965  0.00  0.00    +0.000 N 
ATOM      8  C   UNL     1      -8.410   3.765 128.645  0.00  0.00    +0.000 C 
ATOM      9  C   UNL     1      -8.808   4.989 129.512  0.00  0.00    +0.000 C 
ATOM     10  C   UNL     1      -7.357   4.858 130.040  0.00  0.00    +0.000 C 
ENDROOT
BRANCH   1  14
ATOM     11  C   UNL     1      -3.450   2.515 132.347  0.00  0.00    +0.000 A 
ATOM     12  C   UNL     1      -3.229   3.851 132.055  0.00  0.00    +0.000 A 
ATOM     13  C   UNL     1      -3.668   4.343 130.827  0.00  0.00    +0.000 A 
ATOM     14  C   UNL     1      -4.309   3.493 129.917  0.00  0.00    +0.000 A 
ATOM     15  C   UNL     1      -4.447   2.162 130.272  0.00  0.00    +0.000 A 
ATOM     16  N   UNL     1      -4.025   1.662 131.466  0.00  0.00    +0.000 NA
BRANCH  11  18
ATOM     17  C   UNL     1      -2.924   0.515 133.450  0.00  0.00    +0.000 C 
ATOM     18  O   UNL     1      -3.001   1.939 133.508  0.00  0.00    +0.000 OA
ENDBRANCH  11  18
ENDBRANCH   1  14
BRANCH   9  19
ATOM     19  O   UNL     1      -9.251   6.184 128.788  0.00  0.00    +0.000 OA
BRANCH  19  20
ATOM     20  C   UNL     1     -10.347   6.888 129.261  0.00  0.00    +0.000 A 
ATOM     21  C   UNL     1     -10.803   6.628 130.562  0.00  0.00    +0.000 A 
ATOM     22  C   UNL     1     -11.988   7.225 131.019  0.00  0.00    +0.000 A 
ATOM     23  F   UNL     1     -12.422   6.980 132.264  0.00  0.00    +0.000 F 
ATOM     24  C   UNL     1     -12.735   8.066 130.213  0.00  0.00    +0.000 A 
ATOM     25  C   UNL     1     -12.287   8.309 128.930  0.00  0.00    +0.000 A 
ATOM     26  F   UNL     1     -13.003   9.121 128.140  0.00  0.00    +0.000 F 
ATOM     27  C   UNL     1     -11.114   7.726 128.437  0.00  0.00    +0.000 A 
ATOM     28  C   UNL     1     -10.740   8.052 127.039  0.00  0.00    +0.000 C 
ENDBRANCH  19  20
ENDBRANCH   9  19
TORSDOF 4
ENDMDL
MODEL 7
REMARK VINA RESULT:      -7.9      8.206      9.842
REMARK  Name = CHEMBL1091817
REMARK  7 active torsions:
REMARK  status: ('A' for Active; 'I' for Inactive)
REMARK    1  A    between atoms: C_1  and  O_2
REMARK    2  A    between atoms: O_2  and  C_3
REMARK    3  A    between atoms: C_6  and  N_7
REMARK    4  A    between atoms: C_8  and  C_9
REMARK    5  A    between atoms: C_15  and  O_16
REMARK    6  A    between atoms: O_16  and  C_17
REMARK    7  A    between atoms: C_24  and  C_25
REMARK                            x       y       z     vdW  Elec       q    Type
REMARK                         _______ _______ _______ _____ _____    ______ ____
ROOT
ATOM      1  N   UNL     1      -4.675   5.306 129.490  0.00  0.00    +0.000 N 
ATOM      2  C   UNL     1      -3.843   5.615 128.411  0.00  0.00    +0.000 A 
ATOM      3  C   UNL     1      -2.366   5.879 128.420  0.00  0.00    +0.000 C 
ATOM      4  N   UNL     1      -4.540   5.484 127.298  0.00  0.00    +0.000 NA
ATOM      5  N   UNL     1      -5.805   5.027 127.615  0.00  0.00    +0.000 NA
ATOM      6  C   UNL     1      -5.895   4.901 128.912  0.00  0.00    +0.000 A 
ATOM      7  N   UNL     1      -6.943   4.493 129.710  0.00  0.00    +0.000 N 
ATOM      8  C   UNL     1      -8.102   3.715 129.392  0.00  0.00    +0.000 C 
ATOM      9  C   UNL     1      -9.026   4.861 129.885  0.00  0.00    +0.000 C 
ATOM     10  C   UNL     1      -7.712   5.412 130.496  0.00  0.00    +0.000 C 
ENDROOT
BRANCH   1  14
ATOM     11  C   UNL     1      -3.601   5.353 133.520  0.00  0.00    +0.000 A 
ATOM     12  C   UNL     1      -4.013   6.537 132.933  0.00  0.00    +0.000 A 
ATOM     13  C   UNL     1      -4.417   6.511 131.599  0.00  0.00    +0.000 A 
ATOM     14  C   UNL     1      -4.394   5.309 130.880  0.00  0.00    +0.000 A 
ATOM     15  C   UNL     1      -3.924   4.183 131.533  0.00  0.00    +0.000 A 
ATOM     16  N   UNL     1      -3.526   4.187 132.834  0.00  0.00    +0.000 NA
BRANCH  11  18
ATOM     17  C   UNL     1      -2.935   6.584 135.400  0.00  0.00    +0.000 C 
ATOM     18  O   UNL     1      -3.137   5.301 134.810  0.00  0.00    +0.000 OA
ENDBRANCH  11  18
ENDBRANCH   1  14
BRANCH   9  19
ATOM     19  O   UNL     1      -9.754   5.600 128.850  0.00  0.00    +0.000 OA
BRANCH  19  20
ATOM     20  C   UNL     1     -10.687   6.551 129.234  0.00  0.00    +0.000 A 
ATOM     21  C   UNL     1     -11.209   6.492 130.536  0.00  0.00    +0.000 A 
ATOM     22  C   UNL     1     -12.250   7.355 130.910  0.00  0.00    +0.000 A 
ATOM     23  F   UNL     1     -12.747   7.302 132.154  0.00  0.00    +0.000 F 
ATOM     24  C   UNL     1     -12.793   8.267 130.021  0.00  0.00    +0.000 A 
ATOM     25  C   UNL     1     -12.283   8.312 128.738  0.00  0.00    +0.000 A 
ATOM     26  F   UNL     1     -12.800   9.189 127.869  0.00  0.00    +0.000 F 
ATOM     27  C   UNL     1     -11.249   7.462 128.328  0.00  0.00    +0.000 A 
ATOM     28  C   UNL     1     -10.792   7.594 126.923  0.00  0.00    +0.000 C 
ENDBRANCH  19  20
ENDBRANCH   9  19
TORSDOF 4
ENDMDL
MODEL 8
REMARK VINA RESULT:      -7.8      8.523     10.202
REMARK  Name = CHEMBL1091817
REMARK  7 active torsions:
REMARK  status: ('A' for Active; 'I' for Inactive)
REMARK    1  A    between atoms: C_1  and  O_2
REMARK    2  A    between atoms: O_2  and  C_3
REMARK    3  A    between atoms: C_6  and  N_7
REMARK    4  A    between atoms: C_8  and  C_9
REMARK    5  A    between atoms: C_15  and  O_16
REMARK    6  A    between atoms: O_16  and  C_17
REMARK    7  A    between atoms: C_24  and  C_25
REMARK                            x       y       z     vdW  Elec       q    Type
REMARK                         _______ _______ _______ _____ _____    ______ ____
ROOT
ATOM      1  N   UNL     1      -5.847   4.483 130.863  0.00  0.00    +0.000 N 
ATOM      2  C   UNL     1      -5.464   3.336 130.161  0.00  0.00    +0.000 A 
ATOM      3  C   UNL     1      -4.083   2.901 129.772  0.00  0.00    +0.000 C 
ATOM      4  N   UNL     1      -6.526   2.566 130.015  0.00  0.00    +0.000 NA
ATOM      5  N   UNL     1      -7.595   3.150 130.666  0.00  0.00    +0.000 NA
ATOM      6  C   UNL     1      -7.203   4.282 131.188  0.00  0.00    +0.000 A 
ATOM      7  N   UNL     1      -7.892   5.226 131.919  0.00  0.00    +0.000 N 
ATOM      8  C   UNL     1      -9.106   5.113 132.671  0.00  0.00    +0.000 C 
ATOM      9  C   UNL     1      -9.755   6.240 131.824  0.00  0.00    +0.000 C 
ATOM     10  C   UNL     1      -8.296   6.483 131.361  0.00  0.00    +0.000 C 
ENDROOT
BRANCH   1  14
ATOM     11  C   UNL     1      -3.363   7.658 131.932  0.00  0.00    +0.000 A 
ATOM     12  C   UNL     1      -3.976   7.688 130.691  0.00  0.00    +0.000 A 
ATOM     13  C   UNL     1      -4.843   6.649 130.353  0.00  0.00    +0.000 A 
ATOM     14  C   UNL     1      -5.074   5.604 131.256  0.00  0.00    +0.000 A 
ATOM     15  C   UNL     1      -4.383   5.631 132.455  0.00  0.00    +0.000 A 
ATOM     16  N   UNL     1      -3.532   6.635 132.804  0.00  0.00    +0.000 NA
BRANCH  11  18
ATOM     17  C   UNL     1      -1.285   8.071 132.934  0.00  0.00    +0.000 C 
ATOM     18  O   UNL     1      -2.455   8.609 132.320  0.00  0.00    +0.000 OA
ENDBRANCH  11  18
ENDBRANCH   1  14
BRANCH   9  19
ATOM     19  O   UNL     1     -10.795   5.827 130.879  0.00  0.00    +0.000 OA
BRANCH  19  20
ATOM     20  C   UNL     1     -11.270   6.747 129.957  0.00  0.00    +0.000 A 
ATOM     21  C   UNL     1     -10.654   6.815 128.697  0.00  0.00    +0.000 A 
ATOM     22  C   UNL     1     -11.023   7.824 127.794  0.00  0.00    +0.000 A 
ATOM     23  F   UNL     1     -10.438   7.887 126.589  0.00  0.00    +0.000 F 
ATOM     24  C   UNL     1     -11.979   8.772 128.114  0.00  0.00    +0.000 A 
ATOM     25  C   UNL     1     -12.572   8.707 129.359  0.00  0.00    +0.000 A 
ATOM     26  F   UNL     1     -13.498   9.620 129.681  0.00  0.00    +0.000 F 
ATOM     27  C   UNL     1     -12.225   7.719 130.288  0.00  0.00    +0.000 A 
ATOM     28  C   UNL     1     -12.922   7.757 131.598  0.00  0.00    +0.000 C 
ENDBRANCH  19  20
ENDBRANCH   9  19
TORSDOF 4
ENDMDL
MODEL 9
REMARK VINA RESULT:      -7.8      7.110      9.671
REMARK  Name = CHEMBL1091817
REMARK  7 active torsions:
REMARK  status: ('A' for Active; 'I' for Inactive)
REMARK    1  A    between atoms: C_1  and  O_2
REMARK    2  A    between atoms: O_2  and  C_3
REMARK    3  A    between atoms: C_6  and  N_7
REMARK    4  A    between atoms: C_8  and  C_9
REMARK    5  A    between atoms: C_15  and  O_16
REMARK    6  A    between atoms: O_16  and  C_17
REMARK    7  A    between atoms: C_24  and  C_25
REMARK                            x       y       z     vdW  Elec       q    Type
REMARK                         _______ _______ _______ _____ _____    ______ ____
ROOT
ATOM      1  N   UNL     1      -8.389   3.877 131.530  0.00  0.00    +0.000 N 
ATOM      2  C   UNL     1      -8.346   3.502 132.876  0.00  0.00    +0.000 A 
ATOM      3  C   UNL     1      -9.315   3.845 133.969  0.00  0.00    +0.000 C 
ATOM      4  N   UNL     1      -7.370   2.628 133.033  0.00  0.00    +0.000 NA
ATOM      5  N   UNL     1      -6.805   2.363 131.801  0.00  0.00    +0.000 NA
ATOM      6  C   UNL     1      -7.410   3.086 130.896  0.00  0.00    +0.000 A 
ATOM      7  N   UNL     1      -7.208   3.185 129.535  0.00  0.00    +0.000 N 
ATOM      8  C   UNL     1      -6.576   2.281 128.622  0.00  0.00    +0.000 C 
ATOM      9  C   UNL     1      -5.573   3.386 128.196  0.00  0.00    +0.000 C 
ATOM     10  C   UNL     1      -6.566   4.318 128.936  0.00  0.00    +0.000 C 
ENDROOT
BRANCH   1  14
ATOM     11  C   UNL     1     -11.051   6.589 129.813  0.00  0.00    +0.000 A 
ATOM     12  C   UNL     1      -9.873   7.074 130.355  0.00  0.00    +0.000 A 
ATOM     13  C   UNL     1      -8.962   6.162 130.886  0.00  0.00    +0.000 A 
ATOM     14  C   UNL     1      -9.249   4.791 130.871  0.00  0.00    +0.000 A 
ATOM     15  C   UNL     1     -10.471   4.399 130.352  0.00  0.00    +0.000 A 
ATOM     16  N   UNL     1     -11.374   5.273 129.828  0.00  0.00    +0.000 NA
BRANCH  11  18
ATOM     17  C   UNL     1     -13.193   6.736 128.872  0.00  0.00    +0.000 C 
ATOM     18  O   UNL     1     -12.024   7.421 129.320  0.00  0.00    +0.000 OA
ENDBRANCH  11  18
ENDBRANCH   1  14
BRANCH   9  19
ATOM     19  O   UNL     1      -4.192   3.225 128.657  0.00  0.00    +0.000 OA
BRANCH  19  20
ATOM     20  C   UNL     1      -3.510   4.333 129.138  0.00  0.00    +0.000 A 
ATOM     21  C   UNL     1      -3.027   5.276 128.218  0.00  0.00    +0.000 A 
ATOM     22  C   UNL     1      -2.221   6.335 128.662  0.00  0.00    +0.000 A 
ATOM     23  F   UNL     1      -1.763   7.239 127.783  0.00  0.00    +0.000 F 
ATOM     24  C   UNL     1      -1.873   6.474 129.994  0.00  0.00    +0.000 A 
ATOM     25  C   UNL     1      -2.342   5.536 130.893  0.00  0.00    +0.000 A 
ATOM     26  F   UNL     1      -2.012   5.660 132.185  0.00  0.00    +0.000 F 
ATOM     27  C   UNL     1      -3.143   4.463 130.485  0.00  0.00    +0.000 A 
ATOM     28  C   UNL     1      -3.577   3.513 131.539  0.00  0.00    +0.000 C 
ENDBRANCH  19  20
ENDBRANCH   9  19
TORSDOF 4
ENDMDL
