MODEL 1
REMARK VINA RESULT:      -7.3      0.000      0.000
REMARK  Name = CHEMBL1092457
REMARK  11 active torsions:
REMARK  status: ('A' for Active; 'I' for Inactive)
REMARK    1  A    between atoms: C_1  and  O_2
REMARK    2  A    between atoms: O_2  and  C_3
REMARK    3  A    between atoms: C_3  and  C_4
REMARK    4  A    between atoms: C_4  and  N_5
REMARK    5  A    between atoms: N_5  and  C_23
REMARK    6  A    between atoms: C_6  and  C_8
REMARK    7  A    between atoms: C_11  and  C_12
REMARK    8  A    between atoms: C_15  and  C_16
REMARK    9  A    between atoms: C_19  and  C_20
REMARK   10  A    between atoms: C_26  and  O_27
REMARK   11  A    between atoms: O_27  and  C_28
REMARK                            x       y       z     vdW  Elec       q    Type
REMARK                         _______ _______ _______ _____ _____    ______ ____
ROOT
ATOM      1  N   UNL     1      -9.846   5.515 131.199  0.00  0.00    +0.000 N 
ATOM      2  C   UNL     1     -10.094   4.201 130.668  0.00  0.00    +0.000 C 
ATOM      3  O   UNL     1     -10.885   4.008 129.740  0.00  0.00    +0.000 OA
ENDROOT
BRANCH   2   4
ATOM      4  C   UNL     1      -9.385   2.961 131.146  0.00  0.00    +0.000 A 
ATOM      5  C   UNL     1      -8.054   2.709 130.854  0.00  0.00    +0.000 A 
ATOM      6  N   UNL     1      -7.469   1.479 131.011  0.00  0.00    +0.000 NA
ATOM      7  C   UNL     1      -8.210   0.528 131.635  0.00  0.00    +0.000 A 
ATOM      8  C   UNL     1      -9.475   0.865 132.105  0.00  0.00    +0.000 A 
ATOM      9  N   UNL     1     -10.114   2.039 131.828  0.00  0.00    +0.000 NA
BRANCH   7  10
ATOM     10  C   UNL     1      -7.589  -0.806 131.811  0.00  0.00    +0.000 A 
ATOM     11  C   UNL     1      -7.091  -1.158 133.080  0.00  0.00    +0.000 A 
ATOM     12  C   UNL     1      -6.394  -2.351 133.301  0.00  0.00    +0.000 A 
ATOM     13  C   UNL     1      -6.286  -3.293 132.281  0.00  0.00    +0.000 A 
ATOM     14  C   UNL     1      -6.886  -3.030 131.047  0.00  0.00    +0.000 A 
ATOM     15  C   UNL     1      -7.459  -1.766 130.773  0.00  0.00    +0.000 A 
ATOM     16  C   UNL     1      -7.847  -1.455 129.349  0.00  0.00    +0.000 C 
BRANCH  13  17
ATOM     17  C   UNL     1      -5.524  -4.498 132.491  0.00  0.00    +0.000 C 
ATOM     18  N   UNL     1      -4.891  -5.444 132.679  0.00  0.00    +0.000 NA
ENDBRANCH  13  17
ENDBRANCH   7  10
ENDBRANCH   2   4
BRANCH   1  19
ATOM     19  C   UNL     1     -10.698   6.612 130.741  0.00  0.00    +0.000 A 
ATOM     20  C   UNL     1     -11.933   6.871 131.340  0.00  0.00    +0.000 A 
ATOM     21  C   UNL     1     -12.748   7.919 130.893  0.00  0.00    +0.000 A 
ATOM     22  C   UNL     1     -12.407   8.603 129.740  0.00  0.00    +0.000 A 
ATOM     23  N   UNL     1     -11.214   8.402 129.142  0.00  0.00    +0.000 NA
ATOM     24  C   UNL     1     -10.367   7.475 129.693  0.00  0.00    +0.000 A 
BRANCH  22  25
ATOM     25  O   UNL     1     -13.224   9.506 129.106  0.00  0.00    +0.000 OA
ATOM     26  C   UNL     1     -13.477  10.733 129.788  0.00  0.00    +0.000 C 
ENDBRANCH  22  25
ENDBRANCH   1  19
BRANCH   1  27
ATOM     27  C   UNL     1      -8.806   5.939 132.226  0.00  0.00    +0.000 C 
BRANCH  27  28
ATOM     28  C   UNL     1      -7.401   6.121 131.696  0.00  0.00    +0.000 C 
BRANCH  28  30
ATOM     29  C   UNL     1      -5.579   7.193 130.804  0.00  0.00    +0.000 C 
ATOM     30  O   UNL     1      -7.026   7.200 130.860  0.00  0.00    +0.000 OA
ENDBRANCH  28  30
ENDBRANCH  27  28
ENDBRANCH   1  27
TORSDOF 8
ENDMDL
MODEL 2
REMARK VINA RESULT:      -7.3      6.365      7.797
REMARK  Name = CHEMBL1092457
REMARK  11 active torsions:
REMARK  status: ('A' for Active; 'I' for Inactive)
REMARK    1  A    between atoms: C_1  and  O_2
REMARK    2  A    between atoms: O_2  and  C_3
REMARK    3  A    between atoms: C_3  and  C_4
REMARK    4  A    between atoms: C_4  and  N_5
REMARK    5  A    between atoms: N_5  and  C_23
REMARK    6  A    between atoms: C_6  and  C_8
REMARK    7  A    between atoms: C_11  and  C_12
REMARK    8  A    between atoms: C_15  and  C_16
REMARK    9  A    between atoms: C_19  and  C_20
REMARK   10  A    between atoms: C_26  and  O_27
REMARK   11  A    between atoms: O_27  and  C_28
REMARK                            x       y       z     vdW  Elec       q    Type
REMARK                         _______ _______ _______ _____ _____    ______ ____
ROOT
ATOM      1  N   UNL     1      -7.661   2.096 123.650  0.00  0.00    +0.000 N 
ATOM      2  C   UNL     1      -7.586   2.816 124.893  0.00  0.00    +0.000 C 
ATOM      3  O   UNL     1      -7.587   4.050 124.937  0.00  0.00    +0.000 OA
ENDROOT
BRANCH   2   4
ATOM      4  C   UNL     1      -7.557   2.149 126.243  0.00  0.00    +0.000 A 
ATOM      5  C   UNL     1      -6.419   1.533 126.741  0.00  0.00    +0.000 A 
ATOM      6  N   UNL     1      -6.435   0.674 127.808  0.00  0.00    +0.000 NA
ATOM      7  C   UNL     1      -7.605   0.568 128.488  0.00  0.00    +0.000 A 
ATOM      8  C   UNL     1      -8.683   1.354 128.093  0.00  0.00    +0.000 A 
ATOM      9  N   UNL     1      -8.715   2.101 126.951  0.00  0.00    +0.000 NA
BRANCH   7  10
ATOM     10  C   UNL     1      -7.636  -0.358 129.645  0.00  0.00    +0.000 A 
ATOM     11  C   UNL     1      -7.791   0.180 130.937  0.00  0.00    +0.000 A 
ATOM     12  C   UNL     1      -7.719  -0.615 132.086  0.00  0.00    +0.000 A 
ATOM     13  C   UNL     1      -7.617  -1.999 131.971  0.00  0.00    +0.000 A 
ATOM     14  C   UNL     1      -7.595  -2.574 130.697  0.00  0.00    +0.000 A 
ATOM     15  C   UNL     1      -7.515  -1.768 129.538  0.00  0.00    +0.000 A 
ATOM     16  C   UNL     1      -7.226  -2.444 128.221  0.00  0.00    +0.000 C 
BRANCH  13  17
ATOM     17  C   UNL     1      -7.490  -2.813 133.153  0.00  0.00    +0.000 C 
ATOM     18  N   UNL     1      -7.363  -3.485 134.082  0.00  0.00    +0.000 NA
ENDBRANCH  13  17
ENDBRANCH   7  10
ENDBRANCH   2   4
BRANCH   1  19
ATOM     19  C   UNL     1      -7.547   2.860 122.408  0.00  0.00    +0.000 A 
ATOM     20  C   UNL     1      -8.675   3.195 121.655  0.00  0.00    +0.000 A 
ATOM     21  C   UNL     1      -8.559   3.921 120.462  0.00  0.00    +0.000 A 
ATOM     22  C   UNL     1      -7.306   4.168 119.934  0.00  0.00    +0.000 A 
ATOM     23  N   UNL     1      -6.188   3.882 120.637  0.00  0.00    +0.000 NA
ATOM     24  C   UNL     1      -6.337   3.309 121.874  0.00  0.00    +0.000 A 
BRANCH  22  25
ATOM     25  O   UNL     1      -7.082   4.691 118.685  0.00  0.00    +0.000 OA
ATOM     26  C   UNL     1      -5.996   5.608 118.558  0.00  0.00    +0.000 C 
ENDBRANCH  22  25
ENDBRANCH   1  19
BRANCH   1  27
ATOM     27  C   UNL     1      -7.820   0.599 123.433  0.00  0.00    +0.000 C 
BRANCH  27  28
ATOM     28  C   UNL     1      -9.238   0.077 123.493  0.00  0.00    +0.000 C 
BRANCH  28  30
ATOM     29  C   UNL     1      -8.833  -1.217 125.345  0.00  0.00    +0.000 C 
ATOM     30  O   UNL     1      -9.833  -0.405 124.684  0.00  0.00    +0.000 OA
ENDBRANCH  28  30
ENDBRANCH  27  28
ENDBRANCH   1  27
TORSDOF 8
ENDMDL
MODEL 3
REMARK VINA RESULT:      -7.1      6.423      7.725
REMARK  Name = CHEMBL1092457
REMARK  11 active torsions:
REMARK  status: ('A' for Active; 'I' for Inactive)
REMARK    1  A    between atoms: C_1  and  O_2
REMARK    2  A    between atoms: O_2  and  C_3
REMARK    3  A    between atoms: C_3  and  C_4
REMARK    4  A    between atoms: C_4  and  N_5
REMARK    5  A    between atoms: N_5  and  C_23
REMARK    6  A    between atoms: C_6  and  C_8
REMARK    7  A    between atoms: C_11  and  C_12
REMARK    8  A    between atoms: C_15  and  C_16
REMARK    9  A    between atoms: C_19  and  C_20
REMARK   10  A    between atoms: C_26  and  O_27
REMARK   11  A    between atoms: O_27  and  C_28
REMARK                            x       y       z     vdW  Elec       q    Type
REMARK                         _______ _______ _______ _____ _____    ______ ____
ROOT
ATOM      1  N   UNL     1      -6.796   2.379 123.789  0.00  0.00    +0.000 N 
ATOM      2  C   UNL     1      -6.997   0.962 123.934  0.00  0.00    +0.000 C 
ATOM      3  O   UNL     1      -7.072   0.208 122.959  0.00  0.00    +0.000 OA
ENDROOT
BRANCH   2   4
ATOM      4  C   UNL     1      -7.078   0.263 125.265  0.00  0.00    +0.000 A 
ATOM      5  C   UNL     1      -8.286  -0.093 125.843  0.00  0.00    +0.000 A 
ATOM      6  N   UNL     1      -8.413  -0.452 127.160  0.00  0.00    +0.000 NA
ATOM      7  C   UNL     1      -7.262  -0.613 127.861  0.00  0.00    +0.000 A 
ATOM      8  C   UNL     1      -6.048  -0.448 127.203  0.00  0.00    +0.000 A 
ATOM      9  N   UNL     1      -5.917   0.044 125.937  0.00  0.00    +0.000 NA
BRANCH   7  10
ATOM     10  C   UNL     1      -7.385  -1.001 129.287  0.00  0.00    +0.000 A 
ATOM     11  C   UNL     1      -7.210  -0.011 130.273  0.00  0.00    +0.000 A 
ATOM     12  C   UNL     1      -7.201  -0.317 131.639  0.00  0.00    +0.000 A 
ATOM     13  C   UNL     1      -7.497  -1.609 132.065  0.00  0.00    +0.000 A 
ATOM     14  C   UNL     1      -7.807  -2.585 131.113  0.00  0.00    +0.000 A 
ATOM     15  C   UNL     1      -7.670  -2.319 129.730  0.00  0.00    +0.000 A 
ATOM     16  C   UNL     1      -7.759  -3.479 128.772  0.00  0.00    +0.000 C 
BRANCH  13  17
ATOM     17  C   UNL     1      -7.437  -1.937 133.468  0.00  0.00    +0.000 C 
ATOM     18  N   UNL     1      -7.374  -2.168 134.596  0.00  0.00    +0.000 NA
ENDBRANCH  13  17
ENDBRANCH   7  10
ENDBRANCH   2   4
BRANCH   1  19
ATOM     19  C   UNL     1      -6.872   2.948 122.444  0.00  0.00    +0.000 A 
ATOM     20  C   UNL     1      -5.718   3.271 121.726  0.00  0.00    +0.000 A 
ATOM     21  C   UNL     1      -5.795   3.822 120.440  0.00  0.00    +0.000 A 
ATOM     22  C   UNL     1      -7.025   4.206 119.938  0.00  0.00    +0.000 A 
ATOM     23  N   UNL     1      -8.168   3.894 120.586  0.00  0.00    +0.000 NA
ATOM     24  C   UNL     1      -8.068   3.216 121.773  0.00  0.00    +0.000 A 
BRANCH  22  25
ATOM     25  O   UNL     1      -7.197   4.930 118.784  0.00  0.00    +0.000 OA
ATOM     26  C   UNL     1      -6.075   5.683 118.325  0.00  0.00    +0.000 C 
ENDBRANCH  22  25
ENDBRANCH   1  19
BRANCH   1  27
ATOM     27  C   UNL     1      -6.535   3.412 124.875  0.00  0.00    +0.000 C 
BRANCH  27  28
ATOM     28  C   UNL     1      -7.767   3.992 125.534  0.00  0.00    +0.000 C 
BRANCH  28  30
ATOM     29  C   UNL     1      -7.685   3.146 127.666  0.00  0.00    +0.000 C 
ATOM     30  O   UNL     1      -8.529   3.289 126.498  0.00  0.00    +0.000 OA
ENDBRANCH  28  30
ENDBRANCH  27  28
ENDBRANCH   1  27
TORSDOF 8
ENDMDL
MODEL 4
REMARK VINA RESULT:      -6.9      6.232      9.399
REMARK  Name = CHEMBL1092457
REMARK  11 active torsions:
REMARK  status: ('A' for Active; 'I' for Inactive)
REMARK    1  A    between atoms: C_1  and  O_2
REMARK    2  A    between atoms: O_2  and  C_3
REMARK    3  A    between atoms: C_3  and  C_4
REMARK    4  A    between atoms: C_4  and  N_5
REMARK    5  A    between atoms: N_5  and  C_23
REMARK    6  A    between atoms: C_6  and  C_8
REMARK    7  A    between atoms: C_11  and  C_12
REMARK    8  A    between atoms: C_15  and  C_16
REMARK    9  A    between atoms: C_19  and  C_20
REMARK   10  A    between atoms: C_26  and  O_27
REMARK   11  A    between atoms: O_27  and  C_28
REMARK                            x       y       z     vdW  Elec       q    Type
REMARK                         _______ _______ _______ _____ _____    ______ ____
ROOT
ATOM      1  N   UNL     1      -6.478   1.697 125.583  0.00  0.00    +0.000 N 
ATOM      2  C   UNL     1      -5.848   1.434 126.849  0.00  0.00    +0.000 C 
ATOM      3  O   UNL     1      -5.858   0.313 127.366  0.00  0.00    +0.000 OA
ENDROOT
BRANCH   2   4
ATOM      4  C   UNL     1      -5.080   2.468 127.630  0.00  0.00    +0.000 A 
ATOM      5  C   UNL     1      -3.724   2.684 127.441  0.00  0.00    +0.000 A 
ATOM      6  N   UNL     1      -2.945   3.389 128.320  0.00  0.00    +0.000 NA
ATOM      7  C   UNL     1      -3.590   4.029 129.328  0.00  0.00    +0.000 A 
ATOM      8  C   UNL     1      -4.979   3.966 129.382  0.00  0.00    +0.000 A 
ATOM      9  N   UNL     1      -5.745   3.155 128.596  0.00  0.00    +0.000 NA
BRANCH   7  10
ATOM     10  C   UNL     1      -2.759   4.795 130.287  0.00  0.00    +0.000 A 
ATOM     11  C   UNL     1      -2.568   4.275 131.582  0.00  0.00    +0.000 A 
ATOM     12  C   UNL     1      -1.890   4.989 132.577  0.00  0.00    +0.000 A 
ATOM     13  C   UNL     1      -1.268   6.195 132.268  0.00  0.00    +0.000 A 
ATOM     14  C   UNL     1      -1.327   6.673 130.955  0.00  0.00    +0.000 A 
ATOM     15  C   UNL     1      -2.135   6.034 129.986  0.00  0.00    +0.000 A 
ATOM     16  C   UNL     1      -2.366   6.743 128.675  0.00  0.00    +0.000 C 
BRANCH  13  17
ATOM     17  C   UNL     1      -0.615   6.956 133.303  0.00  0.00    +0.000 C 
ATOM     18  N   UNL     1      -0.083   7.534 134.147  0.00  0.00    +0.000 NA
ENDBRANCH  13  17
ENDBRANCH   7  10
ENDBRANCH   2   4
BRANCH   1  19
ATOM     19  C   UNL     1      -7.305   0.643 124.996  0.00  0.00    +0.000 A 
ATOM     20  C   UNL     1      -6.833  -0.151 123.949  0.00  0.00    +0.000 A 
ATOM     21  C   UNL     1      -7.632  -1.155 123.386  0.00  0.00    +0.000 A 
ATOM     22  C   UNL     1      -8.960  -1.256 123.756  0.00  0.00    +0.000 A 
ATOM     23  N   UNL     1      -9.453  -0.525 124.779  0.00  0.00    +0.000 NA
ATOM     24  C   UNL     1      -8.603   0.343 125.415  0.00  0.00    +0.000 A 
BRANCH  22  25
ATOM     25  O   UNL     1      -9.878  -2.064 123.132  0.00  0.00    +0.000 OA
ATOM     26  C   UNL     1      -9.727  -3.471 123.320  0.00  0.00    +0.000 C 
ENDBRANCH  22  25
ENDBRANCH   1  19
BRANCH   1  27
ATOM     27  C   UNL     1      -6.429   2.969 124.749  0.00  0.00    +0.000 C 
BRANCH  27  28
ATOM     28  C   UNL     1      -7.761   3.461 124.229  0.00  0.00    +0.000 C 
BRANCH  28  30
ATOM     29  C   UNL     1      -8.077   4.841 126.035  0.00  0.00    +0.000 C 
ATOM     30  O   UNL     1      -8.761   4.010 125.067  0.00  0.00    +0.000 OA
ENDBRANCH  28  30
ENDBRANCH  27  28
ENDBRANCH   1  27
TORSDOF 8
ENDMDL
MODEL 5
REMARK VINA RESULT:      -6.8      6.049      7.106
REMARK  Name = CHEMBL1092457
REMARK  11 active torsions:
REMARK  status: ('A' for Active; 'I' for Inactive)
REMARK    1  A    between atoms: C_1  and  O_2
REMARK    2  A    between atoms: O_2  and  C_3
REMARK    3  A    between atoms: C_3  and  C_4
REMARK    4  A    between atoms: C_4  and  N_5
REMARK    5  A    between atoms: N_5  and  C_23
REMARK    6  A    between atoms: C_6  and  C_8
REMARK    7  A    between atoms: C_11  and  C_12
REMARK    8  A    between atoms: C_15  and  C_16
REMARK    9  A    between atoms: C_19  and  C_20
REMARK   10  A    between atoms: C_26  and  O_27
REMARK   11  A    between atoms: O_27  and  C_28
REMARK                            x       y       z     vdW  Elec       q    Type
REMARK                         _______ _______ _______ _____ _____    ______ ____
ROOT
ATOM      1  N   UNL     1      -7.117   1.263 125.368  0.00  0.00    +0.000 N 
ATOM      2  C   UNL     1      -6.841  -0.143 125.236  0.00  0.00    +0.000 C 
ATOM      3  O   UNL     1      -6.712  -0.684 124.134  0.00  0.00    +0.000 OA
ENDROOT
BRANCH   2   4
ATOM      4  C   UNL     1      -6.631  -1.066 126.407  0.00  0.00    +0.000 A 
ATOM      5  C   UNL     1      -7.672  -1.765 126.996  0.00  0.00    +0.000 A 
ATOM      6  N   UNL     1      -7.575  -2.368 128.223  0.00  0.00    +0.000 NA
ATOM      7  C   UNL     1      -6.342  -2.402 128.789  0.00  0.00    +0.000 A 
ATOM      8  C   UNL     1      -5.266  -1.871 128.085  0.00  0.00    +0.000 A 
ATOM      9  N   UNL     1      -5.380  -1.148 126.932  0.00  0.00    +0.000 NA
BRANCH   7  10
ATOM     10  C   UNL     1      -6.223  -3.050 130.116  0.00  0.00    +0.000 A 
ATOM     11  C   UNL     1      -5.474  -4.238 130.223  0.00  0.00    +0.000 A 
ATOM     12  C   UNL     1      -5.406  -4.969 131.414  0.00  0.00    +0.000 A 
ATOM     13  C   UNL     1      -5.982  -4.463 132.576  0.00  0.00    +0.000 A 
ATOM     14  C   UNL     1      -6.619  -3.219 132.532  0.00  0.00    +0.000 A 
ATOM     15  C   UNL     1      -6.821  -2.550 131.302  0.00  0.00    +0.000 A 
ATOM     16  C   UNL     1      -7.741  -1.356 131.286  0.00  0.00    +0.000 C 
BRANCH  13  17
ATOM     17  C   UNL     1      -5.958  -5.239 133.791  0.00  0.00    +0.000 C 
ATOM     18  N   UNL     1      -5.918  -5.834 134.777  0.00  0.00    +0.000 NA
ENDBRANCH  13  17
ENDBRANCH   7  10
ENDBRANCH   2   4
BRANCH   1  19
ATOM     19  C   UNL     1      -7.433   2.017 124.156  0.00  0.00    +0.000 A 
ATOM     20  C   UNL     1      -8.714   1.995 123.600  0.00  0.00    +0.000 A 
ATOM     21  C   UNL     1      -9.010   2.714 122.434  0.00  0.00    +0.000 A 
ATOM     22  C   UNL     1      -7.986   3.320 121.730  0.00  0.00    +0.000 A 
ATOM     23  N   UNL     1      -6.738   3.387 122.241  0.00  0.00    +0.000 NA
ATOM     24  C   UNL     1      -6.511   2.804 123.461  0.00  0.00    +0.000 A 
BRANCH  22  25
ATOM     25  O   UNL     1      -8.129   3.878 120.484  0.00  0.00    +0.000 OA
ATOM     26  C   UNL     1      -6.928   4.176 119.774  0.00  0.00    +0.000 C 
ENDBRANCH  22  25
ENDBRANCH   1  19
BRANCH   1  27
ATOM     27  C   UNL     1      -7.157   2.103 126.637  0.00  0.00    +0.000 C 
BRANCH  27  28
ATOM     28  C   UNL     1      -5.815   2.382 127.277  0.00  0.00    +0.000 C 
BRANCH  28  30
ATOM     29  C   UNL     1      -4.349   3.827 126.264  0.00  0.00    +0.000 C 
ATOM     30  O   UNL     1      -4.605   2.430 126.544  0.00  0.00    +0.000 OA
ENDBRANCH  28  30
ENDBRANCH  27  28
ENDBRANCH   1  27
TORSDOF 8
ENDMDL
MODEL 6
REMARK VINA RESULT:      -6.8      6.591      7.715
REMARK  Name = CHEMBL1092457
REMARK  11 active torsions:
REMARK  status: ('A' for Active; 'I' for Inactive)
REMARK    1  A    between atoms: C_1  and  O_2
REMARK    2  A    between atoms: O_2  and  C_3
REMARK    3  A    between atoms: C_3  and  C_4
REMARK    4  A    between atoms: C_4  and  N_5
REMARK    5  A    between atoms: N_5  and  C_23
REMARK    6  A    between atoms: C_6  and  C_8
REMARK    7  A    between atoms: C_11  and  C_12
REMARK    8  A    between atoms: C_15  and  C_16
REMARK    9  A    between atoms: C_19  and  C_20
REMARK   10  A    between atoms: C_26  and  O_27
REMARK   11  A    between atoms: O_27  and  C_28
REMARK                            x       y       z     vdW  Elec       q    Type
REMARK                         _______ _______ _______ _____ _____    ______ ____
ROOT
ATOM      1  N   UNL     1      -7.218  -0.184 125.246  0.00  0.00    +0.000 N 
ATOM      2  C   UNL     1      -7.724  -0.181 126.592  0.00  0.00    +0.000 C 
ATOM      3  O   UNL     1      -8.655   0.551 126.942  0.00  0.00    +0.000 OA
ENDROOT
BRANCH   2   4
ATOM      4  C   UNL     1      -7.213  -1.094 127.676  0.00  0.00    +0.000 A 
ATOM      5  C   UNL     1      -7.831  -2.295 127.986  0.00  0.00    +0.000 A 
ATOM      6  N   UNL     1      -7.582  -2.994 129.139  0.00  0.00    +0.000 NA
ATOM      7  C   UNL     1      -6.561  -2.547 129.913  0.00  0.00    +0.000 A 
ATOM      8  C   UNL     1      -5.818  -1.455 129.478  0.00  0.00    +0.000 A 
ATOM      9  N   UNL     1      -6.149  -0.673 128.409  0.00  0.00    +0.000 NA
BRANCH   7  10
ATOM     10  C   UNL     1      -6.281  -3.295 131.162  0.00  0.00    +0.000 A 
ATOM     11  C   UNL     1      -5.475  -4.447 131.093  0.00  0.00    +0.000 A 
ATOM     12  C   UNL     1      -5.255  -5.268 132.206  0.00  0.00    +0.000 A 
ATOM     13  C   UNL     1      -5.733  -4.887 133.457  0.00  0.00    +0.000 A 
ATOM     14  C   UNL     1      -6.425  -3.679 133.582  0.00  0.00    +0.000 A 
ATOM     15  C   UNL     1      -6.778  -2.924 132.439  0.00  0.00    +0.000 A 
ATOM     16  C   UNL     1      -7.746  -1.781 132.614  0.00  0.00    +0.000 C 
BRANCH  13  17
ATOM     17  C   UNL     1      -5.553  -5.757 134.592  0.00  0.00    +0.000 C 
ATOM     18  N   UNL     1      -5.421  -6.480 135.481  0.00  0.00    +0.000 NA
ENDBRANCH  13  17
ENDBRANCH   7  10
ENDBRANCH   2   4
BRANCH   1  19
ATOM     19  C   UNL     1      -7.707   0.845 124.328  0.00  0.00    +0.000 A 
ATOM     20  C   UNL     1      -8.970   0.750 123.738  0.00  0.00    +0.000 A 
ATOM     21  C   UNL     1      -9.431   1.735 122.854  0.00  0.00    +0.000 A 
ATOM     22  C   UNL     1      -8.567   2.728 122.430  0.00  0.00    +0.000 A 
ATOM     23  N   UNL     1      -7.347   2.872 122.990  0.00  0.00    +0.000 NA
ATOM     24  C   UNL     1      -6.980   1.982 123.966  0.00  0.00    +0.000 A 
BRANCH  22  25
ATOM     25  O   UNL     1      -8.847   3.620 121.425  0.00  0.00    +0.000 OA
ATOM     26  C   UNL     1      -7.791   3.910 120.511  0.00  0.00    +0.000 C 
ENDBRANCH  22  25
ENDBRANCH   1  19
BRANCH   1  27
ATOM     27  C   UNL     1      -6.191  -1.118 124.623  0.00  0.00    +0.000 C 
BRANCH  27  28
ATOM     28  C   UNL     1      -6.727  -2.443 124.132  0.00  0.00    +0.000 C 
BRANCH  28  30
ATOM     29  C   UNL     1      -8.293  -4.005 124.744  0.00  0.00    +0.000 C 
ATOM     30  O   UNL     1      -8.110  -2.740 124.065  0.00  0.00    +0.000 OA
ENDBRANCH  28  30
ENDBRANCH  27  28
ENDBRANCH   1  27
TORSDOF 8
ENDMDL
MODEL 7
REMARK VINA RESULT:      -6.5      1.901      2.742
REMARK  Name = CHEMBL1092457
REMARK  11 active torsions:
REMARK  status: ('A' for Active; 'I' for Inactive)
REMARK    1  A    between atoms: C_1  and  O_2
REMARK    2  A    between atoms: O_2  and  C_3
REMARK    3  A    between atoms: C_3  and  C_4
REMARK    4  A    between atoms: C_4  and  N_5
REMARK    5  A    between atoms: N_5  and  C_23
REMARK    6  A    between atoms: C_6  and  C_8
REMARK    7  A    between atoms: C_11  and  C_12
REMARK    8  A    between atoms: C_15  and  C_16
REMARK    9  A    between atoms: C_19  and  C_20
REMARK   10  A    between atoms: C_26  and  O_27
REMARK   11  A    between atoms: O_27  and  C_28
REMARK                            x       y       z     vdW  Elec       q    Type
REMARK                         _______ _______ _______ _____ _____    ______ ____
ROOT
ATOM      1  N   UNL     1      -9.165   3.600 131.089  0.00  0.00    +0.000 N 
ATOM      2  C   UNL     1      -8.823   2.645 130.070  0.00  0.00    +0.000 C 
ATOM      3  O   UNL     1      -8.944   2.897 128.867  0.00  0.00    +0.000 OA
ENDROOT
BRANCH   2   4
ATOM      4  C   UNL     1      -8.242   1.286 130.362  0.00  0.00    +0.000 A 
ATOM      5  C   UNL     1      -8.885   0.363 131.170  0.00  0.00    +0.000 A 
ATOM      6  N   UNL     1      -8.264  -0.743 131.692  0.00  0.00    +0.000 NA
ATOM      7  C   UNL     1      -7.008  -1.002 131.246  0.00  0.00    +0.000 A 
ATOM      8  C   UNL     1      -6.456  -0.172 130.277  0.00  0.00    +0.000 A 
ATOM      9  N   UNL     1      -7.011   1.003 129.860  0.00  0.00    +0.000 NA
BRANCH   7  10
ATOM     10  C   UNL     1      -6.325  -2.195 131.802  0.00  0.00    +0.000 A 
ATOM     11  C   UNL     1      -5.618  -2.064 133.013  0.00  0.00    +0.000 A 
ATOM     12  C   UNL     1      -4.857  -3.112 133.545  0.00  0.00    +0.000 A 
ATOM     13  C   UNL     1      -4.885  -4.368 132.945  0.00  0.00    +0.000 A 
ATOM     14  C   UNL     1      -5.685  -4.564 131.816  0.00  0.00    +0.000 A 
ATOM     15  C   UNL     1      -6.334  -3.475 131.188  0.00  0.00    +0.000 A 
ATOM     16  C   UNL     1      -6.956  -3.703 129.834  0.00  0.00    +0.000 C 
BRANCH  13  17
ATOM     17  C   UNL     1      -4.061  -5.432 133.462  0.00  0.00    +0.000 C 
ATOM     18  N   UNL     1      -3.428  -6.292 133.897  0.00  0.00    +0.000 NA
ENDBRANCH  13  17
ENDBRANCH   7  10
ENDBRANCH   2   4
BRANCH   1  19
ATOM     19  C   UNL     1      -9.846   4.827 130.677  0.00  0.00    +0.000 A 
ATOM     20  C   UNL     1      -9.140   6.013 130.464  0.00  0.00    +0.000 A 
ATOM     21  C   UNL     1      -9.798   7.188 130.076  0.00  0.00    +0.000 A 
ATOM     22  C   UNL     1     -11.180   7.221 130.063  0.00  0.00    +0.000 A 
ATOM     23  N   UNL     1     -11.903   6.095 130.239  0.00  0.00    +0.000 NA
ATOM     24  C   UNL     1     -11.224   4.925 130.466  0.00  0.00    +0.000 A 
BRANCH  22  25
ATOM     25  O   UNL     1     -11.924   8.362 129.892  0.00  0.00    +0.000 OA
ATOM     26  C   UNL     1     -12.215   8.744 128.548  0.00  0.00    +0.000 C 
ENDBRANCH  22  25
ENDBRANCH   1  19
BRANCH   1  27
ATOM     27  C   UNL     1      -8.938   3.503 132.590  0.00  0.00    +0.000 C 
BRANCH  27  28
ATOM     28  C   UNL     1      -7.526   3.780 133.056  0.00  0.00    +0.000 C 
BRANCH  28  30
ATOM     29  C   UNL     1      -6.518   1.823 133.705  0.00  0.00    +0.000 C 
ATOM     30  O   UNL     1      -6.437   2.924 132.768  0.00  0.00    +0.000 OA
ENDBRANCH  28  30
ENDBRANCH  27  28
ENDBRANCH   1  27
TORSDOF 8
ENDMDL
MODEL 8
REMARK VINA RESULT:      -6.5      5.461      9.437
REMARK  Name = CHEMBL1092457
REMARK  11 active torsions:
REMARK  status: ('A' for Active; 'I' for Inactive)
REMARK    1  A    between atoms: C_1  and  O_2
REMARK    2  A    between atoms: O_2  and  C_3
REMARK    3  A    between atoms: C_3  and  C_4
REMARK    4  A    between atoms: C_4  and  N_5
REMARK    5  A    between atoms: N_5  and  C_23
REMARK    6  A    between atoms: C_6  and  C_8
REMARK    7  A    between atoms: C_11  and  C_12
REMARK    8  A    between atoms: C_15  and  C_16
REMARK    9  A    between atoms: C_19  and  C_20
REMARK   10  A    between atoms: C_26  and  O_27
REMARK   11  A    between atoms: O_27  and  C_28
REMARK                            x       y       z     vdW  Elec       q    Type
REMARK                         _______ _______ _______ _____ _____    ______ ____
ROOT
ATOM      1  N   UNL     1      -6.468   2.680 126.523  0.00  0.00    +0.000 N 
ATOM      2  C   UNL     1      -5.081   2.464 126.835  0.00  0.00    +0.000 C 
ATOM      3  O   UNL     1      -4.424   1.559 126.310  0.00  0.00    +0.000 OA
ENDROOT
BRANCH   2   4
ATOM      4  C   UNL     1      -4.291   3.339 127.772  0.00  0.00    +0.000 A 
ATOM      5  C   UNL     1      -4.167   3.056 129.123  0.00  0.00    +0.000 A 
ATOM      6  N   UNL     1      -3.718   3.966 130.045  0.00  0.00    +0.000 NA
ATOM      7  C   UNL     1      -3.228   5.134 129.558  0.00  0.00    +0.000 A 
ATOM      8  C   UNL     1      -3.173   5.316 128.180  0.00  0.00    +0.000 A 
ATOM      9  N   UNL     1      -3.745   4.477 127.268  0.00  0.00    +0.000 NA
BRANCH   7  10
ATOM     10  C   UNL     1      -2.740   6.128 130.544  0.00  0.00    +0.000 A 
ATOM     11  C   UNL     1      -1.431   5.994 131.046  0.00  0.00    +0.000 A 
ATOM     12  C   UNL     1      -0.936   6.823 132.059  0.00  0.00    +0.000 A 
ATOM     13  C   UNL     1      -1.695   7.898 132.513  0.00  0.00    +0.000 A 
ATOM     14  C   UNL     1      -2.947   8.137 131.938  0.00  0.00    +0.000 A 
ATOM     15  C   UNL     1      -3.513   7.217 131.025  0.00  0.00    +0.000 A 
ATOM     16  C   UNL     1      -4.963   7.390 130.649  0.00  0.00    +0.000 C 
BRANCH  13  17
ATOM     17  C   UNL     1      -1.208   8.721 133.592  0.00  0.00    +0.000 C 
ATOM     18  N   UNL     1      -0.850   9.374 134.472  0.00  0.00    +0.000 NA
ENDBRANCH  13  17
ENDBRANCH   7  10
ENDBRANCH   2   4
BRANCH   1  19
ATOM     19  C   UNL     1      -7.151   1.680 125.704  0.00  0.00    +0.000 A 
ATOM     20  C   UNL     1      -7.123   1.742 124.309  0.00  0.00    +0.000 A 
ATOM     21  C   UNL     1      -7.784   0.784 123.528  0.00  0.00    +0.000 A 
ATOM     22  C   UNL     1      -8.611  -0.140 124.140  0.00  0.00    +0.000 A 
ATOM     23  N   UNL     1      -8.651  -0.252 125.485  0.00  0.00    +0.000 NA
ATOM     24  C   UNL     1      -7.873   0.602 126.224  0.00  0.00    +0.000 A 
BRANCH  22  25
ATOM     25  O   UNL     1      -9.454  -0.989 123.467  0.00  0.00    +0.000 OA
ATOM     26  C   UNL     1      -9.019  -2.341 123.319  0.00  0.00    +0.000 C 
ENDBRANCH  22  25
ENDBRANCH   1  19
BRANCH   1  27
ATOM     27  C   UNL     1      -7.368   3.826 126.961  0.00  0.00    +0.000 C 
BRANCH  27  28
ATOM     28  C   UNL     1      -7.908   3.730 128.371  0.00  0.00    +0.000 C 
BRANCH  28  30
ATOM     29  C   UNL     1      -8.594   2.054 129.781  0.00  0.00    +0.000 C 
ATOM     30  O   UNL     1      -9.027   2.934 128.716  0.00  0.00    +0.000 OA
ENDBRANCH  28  30
ENDBRANCH  27  28
ENDBRANCH   1  27
TORSDOF 8
ENDMDL
MODEL 9
REMARK VINA RESULT:      -6.5      1.652      2.157
REMARK  Name = CHEMBL1092457
REMARK  11 active torsions:
REMARK  status: ('A' for Active; 'I' for Inactive)
REMARK    1  A    between atoms: C_1  and  O_2
REMARK    2  A    between atoms: O_2  and  C_3
REMARK    3  A    between atoms: C_3  and  C_4
REMARK    4  A    between atoms: C_4  and  N_5
REMARK    5  A    between atoms: N_5  and  C_23
REMARK    6  A    between atoms: C_6  and  C_8
REMARK    7  A    between atoms: C_11  and  C_12
REMARK    8  A    between atoms: C_15  and  C_16
REMARK    9  A    between atoms: C_19  and  C_20
REMARK   10  A    between atoms: C_26  and  O_27
REMARK   11  A    between atoms: O_27  and  C_28
REMARK                            x       y       z     vdW  Elec       q    Type
REMARK                         _______ _______ _______ _____ _____    ______ ____
ROOT
ATOM      1  N   UNL     1      -9.355   4.906 130.910  0.00  0.00    +0.000 N 
ATOM      2  C   UNL     1      -9.869   3.572 130.748  0.00  0.00    +0.000 C 
ATOM      3  O   UNL     1     -10.961   3.351 130.217  0.00  0.00    +0.000 OA
ENDROOT
BRANCH   2   4
ATOM      4  C   UNL     1      -9.115   2.333 131.152  0.00  0.00    +0.000 A 
ATOM      5  C   UNL     1      -8.856   2.021 132.477  0.00  0.00    +0.000 A 
ATOM      6  N   UNL     1      -7.935   1.083 132.864  0.00  0.00    +0.000 NA
ATOM      7  C   UNL     1      -7.387   0.326 131.879  0.00  0.00    +0.000 A 
ATOM      8  C   UNL     1      -7.814   0.518 130.570  0.00  0.00    +0.000 A 
ATOM      9  N   UNL     1      -8.621   1.541 130.164  0.00  0.00    +0.000 NA
BRANCH   7  10
ATOM     10  C   UNL     1      -6.389  -0.693 132.284  0.00  0.00    +0.000 A 
ATOM     11  C   UNL     1      -5.031  -0.461 131.994  0.00  0.00    +0.000 A 
ATOM     12  C   UNL     1      -4.044  -1.422 132.243  0.00  0.00    +0.000 A 
ATOM     13  C   UNL     1      -4.369  -2.598 132.912  0.00  0.00    +0.000 A 
ATOM     14  C   UNL     1      -5.688  -2.798 133.332  0.00  0.00    +0.000 A 
ATOM     15  C   UNL     1      -6.715  -1.903 132.951  0.00  0.00    +0.000 A 
ATOM     16  C   UNL     1      -8.144  -2.312 133.205  0.00  0.00    +0.000 C 
BRANCH  13  17
ATOM     17  C   UNL     1      -3.365  -3.610 133.122  0.00  0.00    +0.000 C 
ATOM     18  N   UNL     1      -2.585  -4.445 133.282  0.00  0.00    +0.000 NA
ENDBRANCH  13  17
ENDBRANCH   7  10
ENDBRANCH   2   4
BRANCH   1  19
ATOM     19  C   UNL     1     -10.243   6.025 130.600  0.00  0.00    +0.000 A 
ATOM     20  C   UNL     1     -11.406   6.255 131.338  0.00  0.00    +0.000 A 
ATOM     21  C   UNL     1     -12.258   7.325 131.033  0.00  0.00    +0.000 A 
ATOM     22  C   UNL     1     -12.036   8.066 129.888  0.00  0.00    +0.000 A 
ATOM     23  N   UNL     1     -10.913   7.895 129.157  0.00  0.00    +0.000 NA
ATOM     24  C   UNL     1     -10.019   6.940 129.568  0.00  0.00    +0.000 A 
BRANCH  22  25
ATOM     25  O   UNL     1     -12.909   9.001 129.390  0.00  0.00    +0.000 OA
ATOM     26  C   UNL     1     -13.577   8.671 128.173  0.00  0.00    +0.000 C 
ENDBRANCH  22  25
ENDBRANCH   1  19
BRANCH   1  27
ATOM     27  C   UNL     1      -7.980   5.336 131.400  0.00  0.00    +0.000 C 
BRANCH  27  28
ATOM     28  C   UNL     1      -7.901   5.729 132.858  0.00  0.00    +0.000 C 
BRANCH  28  30
ATOM     29  C   UNL     1      -8.006   4.739 134.926  0.00  0.00    +0.000 C 
ATOM     30  O   UNL     1      -8.808   5.255 133.836  0.00  0.00    +0.000 OA
ENDBRANCH  28  30
ENDBRANCH  27  28
ENDBRANCH   1  27
TORSDOF 8
ENDMDL
