MODEL 1
REMARK VINA RESULT:      -8.8      0.000      0.000
REMARK  Name = CHEMBL2037487
REMARK  10 active torsions:
REMARK  status: ('A' for Active; 'I' for Inactive)
REMARK    1  A    between atoms: C_1  and  O_2
REMARK    2  A    between atoms: O_2  and  C_3
REMARK    3  A    between atoms: C_6  and  C_7
REMARK    4  A    between atoms: C_7  and  C_8
REMARK    5  A    between atoms: C_7  and  N_16
REMARK    6  A    between atoms: C_19  and  C_20
REMARK    7  A    between atoms: CA_32  and  CB_33
REMARK    8  A    between atoms: CB_33  and  CG_34
REMARK    9  A    between atoms: CG_34  and  CD1_35
REMARK   10  A    between atoms: CG_34  and  CD2_36
REMARK                            x       y       z     vdW  Elec       q    Type
REMARK                         _______ _______ _______ _____ _____    ______ ____
ROOT
ATOM      1  N   LEU A   1      -6.889   4.326 130.517  0.00  0.00    +0.000 N 
ATOM      2  C   UNK A   2      -5.701   5.030 130.318  0.00  0.00    +0.000 C 
ATOM      3  O   UNK A   2      -5.569   5.810 129.368  0.00  0.00    +0.000 OA
ATOM      4  C   UNK A   2      -4.576   4.788 131.381  0.00  0.00    +0.000 C 
ATOM      5  N   UNK A   2      -5.190   4.861 132.699  0.00  0.00    +0.000 N 
ATOM      6  C   LEU A   1      -6.294   4.120 132.943  0.00  0.00    +0.000 C 
ATOM      7  O   LEU A   1      -6.709   3.990 134.110  0.00  0.00    +0.000 OA
ATOM      8  CA  LEU A   1      -6.843   3.400 131.701  0.00  0.00    +0.000 C 
ATOM      9  H   UNK A   2      -4.727   5.250 133.512  0.00  0.00    +0.000 HD
ENDROOT
BRANCH   4  10
ATOM     10  C   UNK A   2      -3.489   5.831 131.279  0.00  0.00    +0.000 C 
ATOM     11  C   UNK A   2      -3.903   7.166 131.929  0.00  0.00    +0.000 C 
ATOM     12  C   UNK A   2      -2.581   7.651 132.418  0.00  0.00    +0.000 A 
ATOM     13  C   UNK A   2      -2.285   8.917 132.875  0.00  0.00    +0.000 A 
ATOM     14  C   UNK A   2      -0.978   9.176 133.280  0.00  0.00    +0.000 A 
ATOM     15  C   UNK A   2      -0.003   8.164 133.258  0.00  0.00    +0.000 A 
ATOM     16  C   UNK A   2      -0.324   6.874 132.841  0.00  0.00    +0.000 A 
ATOM     17  C   UNK A   2      -1.615   6.637 132.414  0.00  0.00    +0.000 A 
ATOM     18  C   UNK A   2      -2.187   5.343 131.962  0.00  0.00    +0.000 C 
ENDBRANCH   4  10
BRANCH   1  19
ATOM     19  C   UNK A   0      -8.008   4.570 129.461  0.00  0.00    +0.000 C 
BRANCH  19  20
ATOM     20  C   UNK A   0      -8.102   3.225 128.405  0.00  0.00    +0.000 C 
ATOM     21  O   UNK A   0      -8.916   2.319 128.648  0.00  0.00    +0.000 OA
ATOM     22  N   UNK A   0      -7.439   3.113 127.168  0.00  0.00    +0.000 N 
ATOM     23  C   UNK A   0      -6.055   3.496 126.773  0.00  0.00    +0.000 C 
ATOM     24  C   UNK A   0      -6.086   4.386 125.456  0.00  0.00    +0.000 C 
ATOM     25  O   UNK A   0      -6.806   3.729 124.412  0.00  0.00    +0.000 OA
ATOM     26  C   UNK A   0      -8.174   3.559 124.858  0.00  0.00    +0.000 C 
ATOM     27  C   UNK A   0      -8.181   2.550 126.021  0.00  0.00    +0.000 C 
ENDBRANCH  19  20
BRANCH  19  31
ATOM     28  C   UNK A   0     -11.710   6.746 130.299  0.00  0.00    +0.000 A 
ATOM     29  C   UNK A   0     -11.763   5.353 130.377  0.00  0.00    +0.000 A 
ATOM     30  C   UNK A   0     -10.553   4.561 130.374  0.00  0.00    +0.000 A 
ATOM     31  C   UNK A   0      -9.351   5.135 129.957  0.00  0.00    +0.000 A 
ATOM     32  C   UNK A   0      -9.559   6.439 129.688  0.00  0.00    +0.000 A 
ATOM     33  N   UNK A   0     -10.546   7.287 130.051  0.00  0.00    +0.000 NA
BRANCH  28  35
ATOM     34  C   UNK A   0     -13.345   6.978 128.686  0.00  0.00    +0.000 C 
ATOM     35  O   UNK A   0     -12.693   7.553 129.784  0.00  0.00    +0.000 OA
ENDBRANCH  28  35
ENDBRANCH  19  31
ENDBRANCH   1  19
BRANCH   8  36
ATOM     36  CB  LEU A   1      -8.154   2.843 132.138  0.00  0.00    +0.000 C 
BRANCH  36  37
ATOM     37  CG  LEU A   1      -8.089   1.332 132.188  0.00  0.00    +0.000 C 
ATOM     38  CD1 LEU A   1      -9.339   0.645 131.776  0.00  0.00    +0.000 C 
ATOM     39  CD2 LEU A   1      -7.023   0.839 131.260  0.00  0.00    +0.000 C 
ENDBRANCH  36  37
ENDBRANCH   8  36
TORSDOF 7
ENDMDL
MODEL 2
REMARK VINA RESULT:      -8.8      2.317      7.214
REMARK  Name = CHEMBL2037487
REMARK  10 active torsions:
REMARK  status: ('A' for Active; 'I' for Inactive)
REMARK    1  A    between atoms: C_1  and  O_2
REMARK    2  A    between atoms: O_2  and  C_3
REMARK    3  A    between atoms: C_6  and  C_7
REMARK    4  A    between atoms: C_7  and  C_8
REMARK    5  A    between atoms: C_7  and  N_16
REMARK    6  A    between atoms: C_19  and  C_20
REMARK    7  A    between atoms: CA_32  and  CB_33
REMARK    8  A    between atoms: CB_33  and  CG_34
REMARK    9  A    between atoms: CG_34  and  CD1_35
REMARK   10  A    between atoms: CG_34  and  CD2_36
REMARK                            x       y       z     vdW  Elec       q    Type
REMARK                         _______ _______ _______ _____ _____    ______ ____
ROOT
ATOM      1  N   LEU A   1      -7.542   3.113 128.509  0.00  0.00    +0.000 N 
ATOM      2  C   UNK A   2      -7.683   3.776 127.290  0.00  0.00    +0.000 C 
ATOM      3  O   UNK A   2      -7.841   5.001 127.241  0.00  0.00    +0.000 OA
ATOM      4  C   UNK A   2      -7.600   2.877 126.010  0.00  0.00    +0.000 C 
ATOM      5  N   UNK A   2      -6.458   1.989 126.166  0.00  0.00    +0.000 N 
ATOM      6  C   LEU A   1      -6.345   1.270 127.304  0.00  0.00    +0.000 C 
ATOM      7  O   LEU A   1      -5.512   0.348 127.376  0.00  0.00    +0.000 OA
ATOM      8  CA  LEU A   1      -7.400   1.622 128.365  0.00  0.00    +0.000 C 
ATOM      9  H   UNK A   2      -5.862   1.702 125.397  0.00  0.00    +0.000 HD
ENDROOT
BRANCH   4  10
ATOM     10  C   UNK A   2      -7.418   3.711 124.763  0.00  0.00    +0.000 C 
ATOM     11  C   UNK A   2      -5.931   3.889 124.398  0.00  0.00    +0.000 C 
ATOM     12  C   UNK A   2      -6.023   3.959 122.912  0.00  0.00    +0.000 A 
ATOM     13  C   UNK A   2      -5.030   4.354 122.041  0.00  0.00    +0.000 A 
ATOM     14  C   UNK A   2      -5.321   4.362 120.679  0.00  0.00    +0.000 A 
ATOM     15  C   UNK A   2      -6.576   3.941 120.209  0.00  0.00    +0.000 A 
ATOM     16  C   UNK A   2      -7.556   3.496 121.092  0.00  0.00    +0.000 A 
ATOM     17  C   UNK A   2      -7.268   3.522 122.442  0.00  0.00    +0.000 A 
ATOM     18  C   UNK A   2      -8.140   3.067 123.554  0.00  0.00    +0.000 C 
ENDBRANCH   4  10
BRANCH   1  19
ATOM     19  C   UNK A   0      -7.622   4.008 129.782  0.00  0.00    +0.000 C 
BRANCH  19  20
ATOM     20  C   UNK A   0      -6.079   4.671 130.114  0.00  0.00    +0.000 C 
ATOM     21  O   UNK A   0      -5.613   5.534 129.352  0.00  0.00    +0.000 OA
ATOM     22  N   UNK A   0      -5.328   4.442 131.283  0.00  0.00    +0.000 N 
ATOM     23  C   UNK A   0      -5.106   3.192 132.062  0.00  0.00    +0.000 C 
ATOM     24  C   UNK A   0      -5.417   3.443 133.601  0.00  0.00    +0.000 C 
ATOM     25  O   UNK A   0      -4.671   4.554 134.099  0.00  0.00    +0.000 OA
ATOM     26  C   UNK A   0      -5.094   5.732 133.370  0.00  0.00    +0.000 C 
ATOM     27  C   UNK A   0      -4.634   5.587 131.908  0.00  0.00    +0.000 C 
ENDBRANCH  19  20
BRANCH  19  31
ATOM     28  C   UNK A   0     -11.363   6.146 130.541  0.00  0.00    +0.000 A 
ATOM     29  C   UNK A   0     -10.183   6.890 130.608  0.00  0.00    +0.000 A 
ATOM     30  C   UNK A   0      -8.933   6.347 130.126  0.00  0.00    +0.000 A 
ATOM     31  C   UNK A   0      -8.813   4.975 129.906  0.00  0.00    +0.000 A 
ATOM     32  C   UNK A   0     -10.006   4.389 130.133  0.00  0.00    +0.000 A 
ATOM     33  N   UNK A   0     -11.259   4.891 130.190  0.00  0.00    +0.000 NA
BRANCH  28  35
ATOM     34  C   UNK A   0     -12.936   7.594 131.411  0.00  0.00    +0.000 C 
ATOM     35  O   UNK A   0     -12.441   6.284 131.379  0.00  0.00    +0.000 OA
ENDBRANCH  28  35
ENDBRANCH  19  31
ENDBRANCH   1  19
BRANCH   8  36
ATOM     36  CB  LEU A   1      -6.960   0.894 129.588  0.00  0.00    +0.000 C 
BRANCH  36  37
ATOM     37  CG  LEU A   1      -8.105   0.082 130.152  0.00  0.00    +0.000 C 
ATOM     38  CD1 LEU A   1      -7.766  -1.328 130.475  0.00  0.00    +0.000 C 
ATOM     39  CD2 LEU A   1      -8.579   0.694 131.433  0.00  0.00    +0.000 C 
ENDBRANCH  36  37
ENDBRANCH   8  36
TORSDOF 7
ENDMDL
MODEL 3
REMARK VINA RESULT:      -8.7      2.881      8.377
REMARK  Name = CHEMBL2037487
REMARK  10 active torsions:
REMARK  status: ('A' for Active; 'I' for Inactive)
REMARK    1  A    between atoms: C_1  and  O_2
REMARK    2  A    between atoms: O_2  and  C_3
REMARK    3  A    between atoms: C_6  and  C_7
REMARK    4  A    between atoms: C_7  and  C_8
REMARK    5  A    between atoms: C_7  and  N_16
REMARK    6  A    between atoms: C_19  and  C_20
REMARK    7  A    between atoms: CA_32  and  CB_33
REMARK    8  A    between atoms: CB_33  and  CG_34
REMARK    9  A    between atoms: CG_34  and  CD1_35
REMARK   10  A    between atoms: CG_34  and  CD2_36
REMARK                            x       y       z     vdW  Elec       q    Type
REMARK                         _______ _______ _______ _____ _____    ______ ____
ROOT
ATOM      1  N   LEU A   1      -7.104   2.644 127.520  0.00  0.00    +0.000 N 
ATOM      2  C   UNK A   2      -7.347   3.431 126.394  0.00  0.00    +0.000 C 
ATOM      3  O   UNK A   2      -7.481   4.657 126.485  0.00  0.00    +0.000 OA
ATOM      4  C   UNK A   2      -7.408   2.669 125.027  0.00  0.00    +0.000 C 
ATOM      5  N   UNK A   2      -6.276   1.755 124.980  0.00  0.00    +0.000 N 
ATOM      6  C   LEU A   1      -6.070   0.921 126.023  0.00  0.00    +0.000 C 
ATOM      7  O   LEU A   1      -5.255  -0.014 125.919  0.00  0.00    +0.000 OA
ATOM      8  CA  LEU A   1      -7.010   1.175 127.212  0.00  0.00    +0.000 C 
ATOM      9  H   UNK A   2      -5.763   1.541 124.131  0.00  0.00    +0.000 HD
ENDROOT
BRANCH   4  10
ATOM     10  C   UNK A   2      -7.328   3.624 123.860  0.00  0.00    +0.000 C 
ATOM     11  C   UNK A   2      -5.883   3.798 123.352  0.00  0.00    +0.000 C 
ATOM     12  C   UNK A   2      -6.132   4.027 121.900  0.00  0.00    +0.000 A 
ATOM     13  C   UNK A   2      -5.223   4.485 120.970  0.00  0.00    +0.000 A 
ATOM     14  C   UNK A   2      -5.658   4.644 119.656  0.00  0.00    +0.000 A 
ATOM     15  C   UNK A   2      -6.972   4.311 119.287  0.00  0.00    +0.000 A 
ATOM     16  C   UNK A   2      -7.868   3.802 120.224  0.00  0.00    +0.000 A 
ATOM     17  C   UNK A   2      -7.436   3.677 121.529  0.00  0.00    +0.000 A 
ATOM     18  C   UNK A   2      -8.200   3.131 122.679  0.00  0.00    +0.000 C 
ENDBRANCH   4  10
BRANCH   1  19
ATOM     19  C   UNK A   0      -7.041   3.404 128.878  0.00  0.00    +0.000 C 
BRANCH  19  20
ATOM     20  C   UNK A   0      -8.575   3.354 129.635  0.00  0.00    +0.000 C 
ATOM     21  O   UNK A   0      -9.070   2.254 129.932  0.00  0.00    +0.000 OA
ATOM     22  N   UNK A   0      -9.286   4.473 130.110  0.00  0.00    +0.000 N 
ATOM     23  C   UNK A   0      -9.477   5.825 129.512  0.00  0.00    +0.000 C 
ATOM     24  C   UNK A   0      -9.117   6.950 130.576  0.00  0.00    +0.000 C 
ATOM     25  O   UNK A   0      -9.852   6.764 131.786  0.00  0.00    +0.000 OA
ATOM     26  C   UNK A   0      -9.459   5.488 132.349  0.00  0.00    +0.000 C 
ATOM     27  C   UNK A   0      -9.966   4.372 131.418  0.00  0.00    +0.000 C 
ENDBRANCH  19  20
BRANCH  19  31
ATOM     28  C   UNK A   0      -3.417   3.442 131.330  0.00  0.00    +0.000 A 
ATOM     29  C   UNK A   0      -4.496   2.696 131.807  0.00  0.00    +0.000 A 
ATOM     30  C   UNK A   0      -5.633   2.409 130.962  0.00  0.00    +0.000 A 
ATOM     31  C   UNK A   0      -5.829   3.142 129.791  0.00  0.00    +0.000 A 
ATOM     32  C   UNK A   0      -4.795   3.992 129.629  0.00  0.00    +0.000 A 
ATOM     33  N   UNK A   0      -3.552   4.010 130.160  0.00  0.00    +0.000 NA
BRANCH  28  35
ATOM     34  C   UNK A   0      -2.922   4.196 133.455  0.00  0.00    +0.000 C 
ATOM     35  O   UNK A   0      -2.575   4.206 132.098  0.00  0.00    +0.000 OA
ENDBRANCH  28  35
ENDBRANCH  19  31
ENDBRANCH   1  19
BRANCH   8  36
ATOM     36  CB  LEU A   1      -6.471   0.319 128.306  0.00  0.00    +0.000 C 
BRANCH  36  37
ATOM     37  CG  LEU A   1      -7.531  -0.649 128.782  0.00  0.00    +0.000 C 
ATOM     38  CD1 LEU A   1      -7.506  -1.974 128.111  0.00  0.00    +0.000 C 
ATOM     39  CD2 LEU A   1      -7.348  -0.924 130.242  0.00  0.00    +0.000 C 
ENDBRANCH  36  37
ENDBRANCH   8  36
TORSDOF 7
ENDMDL
MODEL 4
REMARK VINA RESULT:      -8.7      2.860      8.001
REMARK  Name = CHEMBL2037487
REMARK  10 active torsions:
REMARK  status: ('A' for Active; 'I' for Inactive)
REMARK    1  A    between atoms: C_1  and  O_2
REMARK    2  A    between atoms: O_2  and  C_3
REMARK    3  A    between atoms: C_6  and  C_7
REMARK    4  A    between atoms: C_7  and  C_8
REMARK    5  A    between atoms: C_7  and  N_16
REMARK    6  A    between atoms: C_19  and  C_20
REMARK    7  A    between atoms: CA_32  and  CB_33
REMARK    8  A    between atoms: CB_33  and  CG_34
REMARK    9  A    between atoms: CG_34  and  CD1_35
REMARK   10  A    between atoms: CG_34  and  CD2_36
REMARK                            x       y       z     vdW  Elec       q    Type
REMARK                         _______ _______ _______ _____ _____    ______ ____
ROOT
ATOM      1  N   LEU A   1      -6.123   3.144 129.125  0.00  0.00    +0.000 N 
ATOM      2  C   UNK A   2      -6.448   1.931 128.515  0.00  0.00    +0.000 C 
ATOM      3  O   UNK A   2      -7.382   1.235 128.930  0.00  0.00    +0.000 OA
ATOM      4  C   UNK A   2      -5.580   1.537 127.272  0.00  0.00    +0.000 C 
ATOM      5  N   UNK A   2      -5.468   2.711 126.420  0.00  0.00    +0.000 N 
ATOM      6  C   LEU A   1      -5.072   3.878 126.972  0.00  0.00    +0.000 C 
ATOM      7  O   LEU A   1      -4.755   4.835 126.241  0.00  0.00    +0.000 OA
ATOM      8  CA  LEU A   1      -4.936   3.825 128.502  0.00  0.00    +0.000 C 
ATOM      9  H   UNK A   2      -5.450   2.669 125.407  0.00  0.00    +0.000 HD
ENDROOT
BRANCH   4  10
ATOM     10  C   UNK A   2      -6.217   0.412 126.492  0.00  0.00    +0.000 C 
ATOM     11  C   UNK A   2      -6.556   0.828 125.047  0.00  0.00    +0.000 C 
ATOM     12  C   UNK A   2      -6.368  -0.469 124.339  0.00  0.00    +0.000 A 
ATOM     13  C   UNK A   2      -6.761  -0.773 123.053  0.00  0.00    +0.000 A 
ATOM     14  C   UNK A   2      -6.502  -2.055 122.576  0.00  0.00    +0.000 A 
ATOM     15  C   UNK A   2      -5.825  -2.996 123.370  0.00  0.00    +0.000 A 
ATOM     16  C   UNK A   2      -5.387  -2.665 124.650  0.00  0.00    +0.000 A 
ATOM     17  C   UNK A   2      -5.676  -1.401 125.124  0.00  0.00    +0.000 A 
ATOM     18  C   UNK A   2      -5.282  -0.822 126.433  0.00  0.00    +0.000 C 
ENDBRANCH   4  10
BRANCH   1  19
ATOM     19  C   UNK A   0      -6.989   3.537 130.358  0.00  0.00    +0.000 C 
BRANCH  19  20
ATOM     20  C   UNK A   0      -6.088   3.290 131.793  0.00  0.00    +0.000 C 
ATOM     21  O   UNK A   0      -4.867   3.075 131.713  0.00  0.00    +0.000 OA
ATOM     22  N   UNK A   0      -6.577   3.464 133.102  0.00  0.00    +0.000 N 
ATOM     23  C   UNK A   0      -7.889   3.093 133.703  0.00  0.00    +0.000 C 
ATOM     24  C   UNK A   0      -8.521   4.344 134.453  0.00  0.00    +0.000 C 
ATOM     25  O   UNK A   0      -7.603   4.889 135.402  0.00  0.00    +0.000 OA
ATOM     26  C   UNK A   0      -6.441   5.357 134.674  0.00  0.00    +0.000 C 
ATOM     27  C   UNK A   0      -5.710   4.133 134.094  0.00  0.00    +0.000 C 
ENDBRANCH  19  20
BRANCH  19  31
ATOM     28  C   UNK A   0      -9.912   6.775 130.021  0.00  0.00    +0.000 A 
ATOM     29  C   UNK A   0      -8.896   6.935 130.965  0.00  0.00    +0.000 A 
ATOM     30  C   UNK A   0      -7.747   6.057 130.977  0.00  0.00    +0.000 A 
ATOM     31  C   UNK A   0      -7.792   4.848 130.283  0.00  0.00    +0.000 A 
ATOM     32  C   UNK A   0      -8.965   4.764 129.625  0.00  0.00    +0.000 A 
ATOM     33  N   UNK A   0      -9.868   5.706 129.270  0.00  0.00    +0.000 NA
BRANCH  28  35
ATOM     34  C   UNK A   0     -11.784   6.616 131.363  0.00  0.00    +0.000 C 
ATOM     35  O   UNK A   0     -11.223   7.142 130.192  0.00  0.00    +0.000 OA
ENDBRANCH  28  35
ENDBRANCH  19  31
ENDBRANCH   1  19
BRANCH   8  36
ATOM     36  CB  LEU A   1      -4.717   5.241 128.909  0.00  0.00    +0.000 C 
BRANCH  36  37
ATOM     37  CG  LEU A   1      -3.381   5.383 129.607  0.00  0.00    +0.000 C 
ATOM     38  CD1 LEU A   1      -2.326   6.042 128.797  0.00  0.00    +0.000 C 
ATOM     39  CD2 LEU A   1      -3.539   6.221 130.837  0.00  0.00    +0.000 C 
ENDBRANCH  36  37
ENDBRANCH   8  36
TORSDOF 7
ENDMDL
MODEL 5
REMARK VINA RESULT:      -8.7      2.991      8.459
REMARK  Name = CHEMBL2037487
REMARK  10 active torsions:
REMARK  status: ('A' for Active; 'I' for Inactive)
REMARK    1  A    between atoms: C_1  and  O_2
REMARK    2  A    between atoms: O_2  and  C_3
REMARK    3  A    between atoms: C_6  and  C_7
REMARK    4  A    between atoms: C_7  and  C_8
REMARK    5  A    between atoms: C_7  and  N_16
REMARK    6  A    between atoms: C_19  and  C_20
REMARK    7  A    between atoms: CA_32  and  CB_33
REMARK    8  A    between atoms: CB_33  and  CG_34
REMARK    9  A    between atoms: CG_34  and  CD1_35
REMARK   10  A    between atoms: CG_34  and  CD2_36
REMARK                            x       y       z     vdW  Elec       q    Type
REMARK                         _______ _______ _______ _____ _____    ______ ____
ROOT
ATOM      1  N   LEU A   1      -6.579   2.890 128.645  0.00  0.00    +0.000 N 
ATOM      2  C   UNK A   2      -7.340   1.816 128.181  0.00  0.00    +0.000 C 
ATOM      3  O   UNK A   2      -8.265   1.347 128.855  0.00  0.00    +0.000 OA
ATOM      4  C   UNK A   2      -6.964   1.274 126.761  0.00  0.00    +0.000 C 
ATOM      5  N   UNK A   2      -6.808   2.420 125.877  0.00  0.00    +0.000 N 
ATOM      6  C   LEU A   1      -6.007   3.436 126.267  0.00  0.00    +0.000 C 
ATOM      7  O   LEU A   1      -5.680   4.318 125.450  0.00  0.00    +0.000 OA
ATOM      8  CA  LEU A   1      -5.478   3.291 127.703  0.00  0.00    +0.000 C 
ATOM      9  H   UNK A   2      -7.076   2.415 124.899  0.00  0.00    +0.000 HD
ENDROOT
BRANCH   4  10
ATOM     10  C   UNK A   2      -8.041   0.366 126.215  0.00  0.00    +0.000 C 
ATOM     11  C   UNK A   2      -8.082   0.376 124.675  0.00  0.00    +0.000 C 
ATOM     12  C   UNK A   2      -8.526  -1.021 124.406  0.00  0.00    +0.000 A 
ATOM     13  C   UNK A   2      -8.972  -1.528 123.204  0.00  0.00    +0.000 A 
ATOM     14  C   UNK A   2      -9.355  -2.866 123.162  0.00  0.00    +0.000 A 
ATOM     15  C   UNK A   2      -9.251  -3.681 124.302  0.00  0.00    +0.000 A 
ATOM     16  C   UNK A   2      -8.753  -3.172 125.499  0.00  0.00    +0.000 A 
ATOM     17  C   UNK A   2      -8.405  -1.837 125.537  0.00  0.00    +0.000 A 
ATOM     18  C   UNK A   2      -7.825  -1.094 126.684  0.00  0.00    +0.000 C 
ENDBRANCH   4  10
BRANCH   1  19
ATOM     19  C   UNK A   0      -6.956   3.430 130.057  0.00  0.00    +0.000 C 
BRANCH  19  20
ATOM     20  C   UNK A   0      -5.681   3.107 131.152  0.00  0.00    +0.000 C 
ATOM     21  O   UNK A   0      -4.803   3.967 131.333  0.00  0.00    +0.000 OA
ATOM     22  N   UNK A   0      -5.608   1.994 132.013  0.00  0.00    +0.000 N 
ATOM     23  C   UNK A   0      -5.945   0.563 131.775  0.00  0.00    +0.000 C 
ATOM     24  C   UNK A   0      -6.911   0.028 132.919  0.00  0.00    +0.000 C 
ATOM     25  O   UNK A   0      -6.350   0.265 134.212  0.00  0.00    +0.000 OA
ATOM     26  C   UNK A   0      -6.222   1.699 134.381  0.00  0.00    +0.000 C 
ATOM     27  C   UNK A   0      -5.149   2.206 133.400  0.00  0.00    +0.000 C 
ENDBRANCH  19  20
BRANCH  19  31
ATOM     28  C   UNK A   0      -9.385   7.067 129.959  0.00  0.00    +0.000 A 
ATOM     29  C   UNK A   0      -8.579   6.874 131.082  0.00  0.00    +0.000 A 
ATOM     30  C   UNK A   0      -7.557   5.851 131.097  0.00  0.00    +0.000 A 
ATOM     31  C   UNK A   0      -7.582   4.833 130.144  0.00  0.00    +0.000 A 
ATOM     32  C   UNK A   0      -8.593   5.064 129.283  0.00  0.00    +0.000 A 
ATOM     33  N   UNK A   0      -9.296   6.183 129.000  0.00  0.00    +0.000 NA
BRANCH  28  35
ATOM     34  C   UNK A   0     -11.009   8.179 128.752  0.00  0.00    +0.000 C 
ATOM     35  O   UNK A   0     -10.656   7.583 129.970  0.00  0.00    +0.000 OA
ENDBRANCH  28  35
ENDBRANCH  19  31
ENDBRANCH   1  19
BRANCH   8  36
ATOM     36  CB  LEU A   1      -4.821   4.596 127.995  0.00  0.00    +0.000 C 
BRANCH  36  37
ATOM     37  CG  LEU A   1      -3.352   4.387 128.289  0.00  0.00    +0.000 C 
ATOM     38  CD1 LEU A   1      -2.637   3.534 127.306  0.00  0.00    +0.000 C 
ATOM     39  CD2 LEU A   1      -2.641   5.704 128.283  0.00  0.00    +0.000 C 
ENDBRANCH  36  37
ENDBRANCH   8  36
TORSDOF 7
ENDMDL
MODEL 6
REMARK VINA RESULT:      -8.6      3.628      6.914
REMARK  Name = CHEMBL2037487
REMARK  10 active torsions:
REMARK  status: ('A' for Active; 'I' for Inactive)
REMARK    1  A    between atoms: C_1  and  O_2
REMARK    2  A    between atoms: O_2  and  C_3
REMARK    3  A    between atoms: C_6  and  C_7
REMARK    4  A    between atoms: C_7  and  C_8
REMARK    5  A    between atoms: C_7  and  N_16
REMARK    6  A    between atoms: C_19  and  C_20
REMARK    7  A    between atoms: CA_32  and  CB_33
REMARK    8  A    between atoms: CB_33  and  CG_34
REMARK    9  A    between atoms: CG_34  and  CD1_35
REMARK   10  A    between atoms: CG_34  and  CD2_36
REMARK                            x       y       z     vdW  Elec       q    Type
REMARK                         _______ _______ _______ _____ _____    ______ ____
ROOT
ATOM      1  N   LEU A   1      -8.049   2.423 129.691  0.00  0.00    +0.000 N 
ATOM      2  C   UNK A   2      -8.639   3.687 129.726  0.00  0.00    +0.000 C 
ATOM      3  O   UNK A   2      -8.647   4.419 128.729  0.00  0.00    +0.000 OA
ATOM      4  C   UNK A   2      -9.304   4.094 131.084  0.00  0.00    +0.000 C 
ATOM      5  N   UNK A   2     -10.100   2.966 131.543  0.00  0.00    +0.000 N 
ATOM      6  C   LEU A   1      -9.524   1.745 131.600  0.00  0.00    +0.000 C 
ATOM      7  O   LEU A   1     -10.102   0.812 132.189  0.00  0.00    +0.000 OA
ATOM      8  CA  LEU A   1      -8.106   1.702 131.010  0.00  0.00    +0.000 C 
ATOM      9  H   UNK A   2     -10.983   3.064 132.032  0.00  0.00    +0.000 HD
ENDROOT
BRANCH   4  10
ATOM     10  C   UNK A   2     -10.196   5.301 130.920  0.00  0.00    +0.000 C 
ATOM     11  C   UNK A   2      -9.495   6.441 130.155  0.00  0.00    +0.000 C 
ATOM     12  C   UNK A   2     -10.659   7.053 129.453  0.00  0.00    +0.000 A 
ATOM     13  C   UNK A   2     -10.684   8.268 128.802  0.00  0.00    +0.000 A 
ATOM     14  C   UNK A   2     -11.881   8.670 128.215  0.00  0.00    +0.000 A 
ATOM     15  C   UNK A   2     -13.016   7.842 128.255  0.00  0.00    +0.000 A 
ATOM     16  C   UNK A   2     -12.967   6.594 128.872  0.00  0.00    +0.000 A 
ATOM     17  C   UNK A   2     -11.784   6.219 129.476  0.00  0.00    +0.000 A 
ATOM     18  C   UNK A   2     -11.493   4.933 130.158  0.00  0.00    +0.000 C 
ENDBRANCH   4  10
BRANCH   1  19
ATOM     19  C   UNK A   0      -7.390   2.018 128.339  0.00  0.00    +0.000 C 
BRANCH  19  20
ATOM     20  C   UNK A   0      -5.697   1.880 128.544  0.00  0.00    +0.000 C 
ATOM     21  O   UNK A   0      -5.183   0.751 128.607  0.00  0.00    +0.000 OA
ATOM     22  N   UNK A   0      -4.780   2.948 128.493  0.00  0.00    +0.000 N 
ATOM     23  C   UNK A   0      -4.869   4.328 129.046  0.00  0.00    +0.000 C 
ATOM     24  C   UNK A   0      -4.529   5.395 127.917  0.00  0.00    +0.000 C 
ATOM     25  O   UNK A   0      -3.266   5.114 127.312  0.00  0.00    +0.000 OA
ATOM     26  C   UNK A   0      -3.362   3.816 126.675  0.00  0.00    +0.000 C 
ATOM     27  C   UNK A   0      -3.506   2.747 127.773  0.00  0.00    +0.000 C 
ENDBRANCH  19  20
BRANCH  19  31
ATOM     28  C   UNK A   0      -9.300  -0.604 125.403  0.00  0.00    +0.000 A 
ATOM     29  C   UNK A   0      -8.384  -1.192 126.276  0.00  0.00    +0.000 A 
ATOM     30  C   UNK A   0      -7.897  -0.479 127.435  0.00  0.00    +0.000 A 
ATOM     31  C   UNK A   0      -8.064   0.903 127.518  0.00  0.00    +0.000 A 
ATOM     32  C   UNK A   0      -8.768   1.324 126.449  0.00  0.00    +0.000 A 
ATOM     33  N   UNK A   0      -9.564   0.664 125.578  0.00  0.00    +0.000 NA
BRANCH  28  35
ATOM     34  C   UNK A   0      -8.474  -1.814 123.619  0.00  0.00    +0.000 C 
ATOM     35  O   UNK A   0      -9.439  -0.905 124.071  0.00  0.00    +0.000 OA
ENDBRANCH  28  35
ENDBRANCH  19  31
ENDBRANCH   1  19
BRANCH   8  36
ATOM     36  CB  LEU A   1      -7.760   0.253 130.969  0.00  0.00    +0.000 C 
BRANCH  36  37
ATOM     37  CG  LEU A   1      -6.516  -0.010 131.790  0.00  0.00    +0.000 C 
ATOM     38  CD1 LEU A   1      -5.819   1.211 132.268  0.00  0.00    +0.000 C 
ATOM     39  CD2 LEU A   1      -6.875  -0.785 133.019  0.00  0.00    +0.000 C 
ENDBRANCH  36  37
ENDBRANCH   8  36
TORSDOF 7
ENDMDL
MODEL 7
REMARK VINA RESULT:      -8.2      2.035      5.455
REMARK  Name = CHEMBL2037487
REMARK  10 active torsions:
REMARK  status: ('A' for Active; 'I' for Inactive)
REMARK    1  A    between atoms: C_1  and  O_2
REMARK    2  A    between atoms: O_2  and  C_3
REMARK    3  A    between atoms: C_6  and  C_7
REMARK    4  A    between atoms: C_7  and  C_8
REMARK    5  A    between atoms: C_7  and  N_16
REMARK    6  A    between atoms: C_19  and  C_20
REMARK    7  A    between atoms: CA_32  and  CB_33
REMARK    8  A    between atoms: CB_33  and  CG_34
REMARK    9  A    between atoms: CG_34  and  CD1_35
REMARK   10  A    between atoms: CG_34  and  CD2_36
REMARK                            x       y       z     vdW  Elec       q    Type
REMARK                         _______ _______ _______ _____ _____    ______ ____
ROOT
ATOM      1  N   LEU A   1      -5.699   4.602 129.536  0.00  0.00    +0.000 N 
ATOM      2  C   UNK A   2      -5.185   5.383 130.572  0.00  0.00    +0.000 C 
ATOM      3  O   UNK A   2      -5.799   5.520 131.637  0.00  0.00    +0.000 OA
ATOM      4  C   UNK A   2      -3.788   6.039 130.306  0.00  0.00    +0.000 C 
ATOM      5  N   UNK A   2      -2.921   5.017 129.738  0.00  0.00    +0.000 N 
ATOM      6  C   LEU A   1      -3.364   4.306 128.678  0.00  0.00    +0.000 C 
ATOM      7  O   LEU A   1      -2.572   3.588 128.037  0.00  0.00    +0.000 OA
ATOM      8  CA  LEU A   1      -4.829   4.590 128.310  0.00  0.00    +0.000 C 
ATOM      9  H   UNK A   2      -1.928   4.952 129.935  0.00  0.00    +0.000 HD
ENDROOT
BRANCH   4  10
ATOM     10  C   UNK A   2      -3.174   6.562 131.582  0.00  0.00    +0.000 C 
ATOM     11  C   UNK A   2      -1.674   6.222 131.685  0.00  0.00    +0.000 C 
ATOM     12  C   UNK A   2      -1.179   7.405 132.445  0.00  0.00    +0.000 A 
ATOM     13  C   UNK A   2       0.054   7.544 133.044  0.00  0.00    +0.000 A 
ATOM     14  C   UNK A   2       0.321   8.731 133.722  0.00  0.00    +0.000 A 
ATOM     15  C   UNK A   2      -0.626   9.769 133.757  0.00  0.00    +0.000 A 
ATOM     16  C   UNK A   2      -1.850   9.639 133.107  0.00  0.00    +0.000 A 
ATOM     17  C   UNK A   2      -2.116   8.446 132.464  0.00  0.00    +0.000 A 
ATOM     18  C   UNK A   2      -3.330   8.099 131.683  0.00  0.00    +0.000 C 
ENDBRANCH   4  10
BRANCH   1  19
ATOM     19  C   UNK A   0      -7.087   3.947 129.803  0.00  0.00    +0.000 C 
BRANCH  19  20
ATOM     20  C   UNK A   0      -8.325   4.955 129.184  0.00  0.00    +0.000 C 
ATOM     21  O   UNK A   0      -8.585   4.921 127.970  0.00  0.00    +0.000 OA
ATOM     22  N   UNK A   0      -9.210   5.729 129.960  0.00  0.00    +0.000 N 
ATOM     23  C   UNK A   0      -8.964   6.552 131.177  0.00  0.00    +0.000 C 
ATOM     24  C   UNK A   0     -10.004   6.170 132.317  0.00  0.00    +0.000 C 
ATOM     25  O   UNK A   0     -11.346   6.266 131.837  0.00  0.00    +0.000 OA
ATOM     26  C   UNK A   0     -11.500   5.304 130.764  0.00  0.00    +0.000 C 
ATOM     27  C   UNK A   0     -10.636   5.764 129.576  0.00  0.00    +0.000 C 
ENDBRANCH  19  20
BRANCH  19  31
ATOM     28  C   UNK A   0      -7.580  -0.400 129.806  0.00  0.00    +0.000 A 
ATOM     29  C   UNK A   0      -8.195   0.306 128.771  0.00  0.00    +0.000 A 
ATOM     30  C   UNK A   0      -7.884   1.698 128.533  0.00  0.00    +0.000 A 
ATOM     31  C   UNK A   0      -7.237   2.442 129.519  0.00  0.00    +0.000 A 
ATOM     32  C   UNK A   0      -6.940   1.631 130.554  0.00  0.00    +0.000 A 
ATOM     33  N   UNK A   0      -6.852   0.285 130.648  0.00  0.00    +0.000 NA
BRANCH  28  35
ATOM     34  C   UNK A   0      -7.243  -2.021 131.414  0.00  0.00    +0.000 C 
ATOM     35  O   UNK A   0      -8.115  -1.481 130.460  0.00  0.00    +0.000 OA
ENDBRANCH  28  35
ENDBRANCH  19  31
ENDBRANCH   1  19
BRANCH   8  36
ATOM     36  CB  LEU A   1      -5.166   3.559 127.288  0.00  0.00    +0.000 C 
BRANCH  36  37
ATOM     37  CG  LEU A   1      -5.636   4.223 126.012  0.00  0.00    +0.000 C 
ATOM     38  CD1 LEU A   1      -4.633   4.242 124.917  0.00  0.00    +0.000 C 
ATOM     39  CD2 LEU A   1      -6.825   3.494 125.469  0.00  0.00    +0.000 C 
ENDBRANCH  36  37
ENDBRANCH   8  36
TORSDOF 7
ENDMDL
MODEL 8
REMARK VINA RESULT:      -8.2      2.417      4.350
REMARK  Name = CHEMBL2037487
REMARK  10 active torsions:
REMARK  status: ('A' for Active; 'I' for Inactive)
REMARK    1  A    between atoms: C_1  and  O_2
REMARK    2  A    between atoms: O_2  and  C_3
REMARK    3  A    between atoms: C_6  and  C_7
REMARK    4  A    between atoms: C_7  and  C_8
REMARK    5  A    between atoms: C_7  and  N_16
REMARK    6  A    between atoms: C_19  and  C_20
REMARK    7  A    between atoms: CA_32  and  CB_33
REMARK    8  A    between atoms: CB_33  and  CG_34
REMARK    9  A    between atoms: CG_34  and  CD1_35
REMARK   10  A    between atoms: CG_34  and  CD2_36
REMARK                            x       y       z     vdW  Elec       q    Type
REMARK                         _______ _______ _______ _____ _____    ______ ____
ROOT
ATOM      1  N   LEU A   1      -5.379   3.632 128.879  0.00  0.00    +0.000 N 
ATOM      2  C   UNK A   2      -5.051   4.416 129.986  0.00  0.00    +0.000 C 
ATOM      3  O   UNK A   2      -5.642   4.283 131.064  0.00  0.00    +0.000 OA
ATOM      4  C   UNK A   2      -3.884   5.439 129.777  0.00  0.00    +0.000 C 
ATOM      5  N   UNK A   2      -2.800   4.742 129.100  0.00  0.00    +0.000 N 
ATOM      6  C   LEU A   1      -3.078   4.046 127.976  0.00  0.00    +0.000 C 
ATOM      7  O   LEU A   1      -2.150   3.628 127.259  0.00  0.00    +0.000 OA
ATOM      8  CA  LEU A   1      -4.578   3.969 127.651  0.00  0.00    +0.000 C 
ATOM      9  H   UNK A   2      -1.819   4.922 129.281  0.00  0.00    +0.000 HD
ENDROOT
BRANCH   4  10
ATOM     10  C   UNK A   2      -3.384   5.980 131.095  0.00  0.00    +0.000 C 
ATOM     11  C   UNK A   2      -1.873   5.739 131.284  0.00  0.00    +0.000 C 
ATOM     12  C   UNK A   2      -1.506   6.939 132.089  0.00  0.00    +0.000 A 
ATOM     13  C   UNK A   2      -0.322   7.149 132.764  0.00  0.00    +0.000 A 
ATOM     14  C   UNK A   2      -0.177   8.339 133.474  0.00  0.00    +0.000 A 
ATOM     15  C   UNK A   2      -1.193   9.310 133.466  0.00  0.00    +0.000 A 
ATOM     16  C   UNK A   2      -2.365   9.110 132.741  0.00  0.00    +0.000 A 
ATOM     17  C   UNK A   2      -2.510   7.914 132.067  0.00  0.00    +0.000 A 
ATOM     18  C   UNK A   2      -3.650   7.501 131.209  0.00  0.00    +0.000 C 
ENDBRANCH   4  10
BRANCH   1  19
ATOM     19  C   UNK A   0      -6.538   2.613 129.088  0.00  0.00    +0.000 C 
BRANCH  19  20
ATOM     20  C   UNK A   0      -5.902   1.134 129.669  0.00  0.00    +0.000 C 
ATOM     21  O   UNK A   0      -5.337   1.108 130.775  0.00  0.00    +0.000 OA
ATOM     22  N   UNK A   0      -6.097  -0.127 129.072  0.00  0.00    +0.000 N 
ATOM     23  C   UNK A   0      -6.087  -0.532 127.639  0.00  0.00    +0.000 C 
ATOM     24  C   UNK A   0      -7.397  -1.363 127.294  0.00  0.00    +0.000 C 
ATOM     25  O   UNK A   0      -7.552  -2.467 128.187  0.00  0.00    +0.000 OA
ATOM     26  C   UNK A   0      -7.711  -1.933 129.525  0.00  0.00    +0.000 C 
ATOM     27  C   UNK A   0      -6.381  -1.283 129.947  0.00  0.00    +0.000 C 
ENDBRANCH  19  20
BRANCH  19  31
ATOM     28  C   UNK A   0     -10.376   4.320 130.312  0.00  0.00    +0.000 A 
ATOM     29  C   UNK A   0     -10.007   3.107 130.897  0.00  0.00    +0.000 A 
ATOM     30  C   UNK A   0      -8.662   2.594 130.760  0.00  0.00    +0.000 A 
ATOM     31  C   UNK A   0      -7.819   3.115 129.779  0.00  0.00    +0.000 A 
ATOM     32  C   UNK A   0      -8.451   4.126 129.150  0.00  0.00    +0.000 A 
ATOM     33  N   UNK A   0      -9.517   4.879 129.501  0.00  0.00    +0.000 NA
BRANCH  28  35
ATOM     34  C   UNK A   0     -11.783   6.029 129.659  0.00  0.00    +0.000 C 
ATOM     35  O   UNK A   0     -11.645   4.659 129.915  0.00  0.00    +0.000 OA
ENDBRANCH  28  35
ENDBRANCH  19  31
ENDBRANCH   1  19
BRANCH   8  36
ATOM     36  CB  LEU A   1      -4.670   2.990 126.531  0.00  0.00    +0.000 C 
BRANCH  36  37
ATOM     37  CG  LEU A   1      -5.809   3.361 125.606  0.00  0.00    +0.000 C 
ATOM     38  CD1 LEU A   1      -5.409   4.160 124.420  0.00  0.00    +0.000 C 
ATOM     39  CD2 LEU A   1      -6.450   2.120 125.068  0.00  0.00    +0.000 C 
ENDBRANCH  36  37
ENDBRANCH   8  36
TORSDOF 7
ENDMDL
MODEL 9
REMARK VINA RESULT:      -8.2      2.928      4.305
REMARK  Name = CHEMBL2037487
REMARK  10 active torsions:
REMARK  status: ('A' for Active; 'I' for Inactive)
REMARK    1  A    between atoms: C_1  and  O_2
REMARK    2  A    between atoms: O_2  and  C_3
REMARK    3  A    between atoms: C_6  and  C_7
REMARK    4  A    between atoms: C_7  and  C_8
REMARK    5  A    between atoms: C_7  and  N_16
REMARK    6  A    between atoms: C_19  and  C_20
REMARK    7  A    between atoms: CA_32  and  CB_33
REMARK    8  A    between atoms: CB_33  and  CG_34
REMARK    9  A    between atoms: CG_34  and  CD1_35
REMARK   10  A    between atoms: CG_34  and  CD2_36
REMARK                            x       y       z     vdW  Elec       q    Type
REMARK                         _______ _______ _______ _____ _____    ______ ____
ROOT
ATOM      1  N   LEU A   1      -7.604   4.468 131.175  0.00  0.00    +0.000 N 
ATOM      2  C   UNK A   2      -7.058   5.194 132.235  0.00  0.00    +0.000 C 
ATOM      3  O   UNK A   2      -6.824   6.403 132.130  0.00  0.00    +0.000 OA
ATOM      4  C   UNK A   2      -6.796   4.388 133.552  0.00  0.00    +0.000 C 
ATOM      5  N   UNK A   2      -7.979   3.586 133.823  0.00  0.00    +0.000 N 
ATOM      6  C   LEU A   1      -8.476   2.807 132.837  0.00  0.00    +0.000 C 
ATOM      7  O   LEU A   1      -9.342   1.951 133.098  0.00  0.00    +0.000 OA
ATOM      8  CA  LEU A   1      -7.779   3.006 131.481  0.00  0.00    +0.000 C 
ATOM      9  H   UNK A   2      -8.326   3.396 134.757  0.00  0.00    +0.000 HD
ENDROOT
BRANCH   4  10
ATOM     10  C   UNK A   2      -6.540   5.311 134.720  0.00  0.00    +0.000 C 
ATOM     11  C   UNK A   2      -7.848   5.858 135.324  0.00  0.00    +0.000 C 
ATOM     12  C   UNK A   2      -7.452   5.988 136.755  0.00  0.00    +0.000 A 
ATOM     13  C   UNK A   2      -8.142   6.658 137.744  0.00  0.00    +0.000 A 
ATOM     14  C   UNK A   2      -7.595   6.674 139.024  0.00  0.00    +0.000 A 
ATOM     15  C   UNK A   2      -6.397   5.994 139.305  0.00  0.00    +0.000 A 
ATOM     16  C   UNK A   2      -5.734   5.279 138.310  0.00  0.00    +0.000 A 
ATOM     17  C   UNK A   2      -6.269   5.296 137.038  0.00  0.00    +0.000 A 
ATOM     18  C   UNK A   2      -5.756   4.584 135.840  0.00  0.00    +0.000 C 
ENDBRANCH   4  10
BRANCH   1  19
ATOM     19  C   UNK A   0      -7.867   5.271 129.867  0.00  0.00    +0.000 C 
BRANCH  19  20
ATOM     20  C   UNK A   0      -6.966   4.587 128.583  0.00  0.00    +0.000 C 
ATOM     21  O   UNK A   0      -7.527   4.369 127.496  0.00  0.00    +0.000 OA
ATOM     22  N   UNK A   0      -5.573   4.382 128.584  0.00  0.00    +0.000 N 
ATOM     23  C   UNK A   0      -4.667   3.889 129.659  0.00  0.00    +0.000 C 
ATOM     24  C   UNK A   0      -3.438   4.882 129.840  0.00  0.00    +0.000 C 
ATOM     25  O   UNK A   0      -2.768   5.096 128.597  0.00  0.00    +0.000 OA
ATOM     26  C   UNK A   0      -3.709   5.724 127.691  0.00  0.00    +0.000 C 
ATOM     27  C   UNK A   0      -4.813   4.704 127.358  0.00  0.00    +0.000 C 
ENDBRANCH  19  20
BRANCH  19  31
ATOM     28  C   UNK A   0     -12.090   6.410 129.750  0.00  0.00    +0.000 A 
ATOM     29  C   UNK A   0     -11.262   6.945 128.762  0.00  0.00    +0.000 A 
ATOM     30  C   UNK A   0      -9.924   6.438 128.556  0.00  0.00    +0.000 A 
ATOM     31  C   UNK A   0      -9.322   5.654 129.541  0.00  0.00    +0.000 A 
ATOM     32  C   UNK A   0     -10.206   5.448 130.538  0.00  0.00    +0.000 A 
ATOM     33  N   UNK A   0     -11.552   5.560 130.585  0.00  0.00    +0.000 NA
BRANCH  28  35
ATOM     34  C   UNK A   0     -12.849   8.450 130.518  0.00  0.00    +0.000 C 
ATOM     35  O   UNK A   0     -13.103   7.079 130.390  0.00  0.00    +0.000 OA
ENDBRANCH  28  35
ENDBRANCH  19  31
ENDBRANCH   1  19
BRANCH   8  36
ATOM     36  CB  LEU A   1      -8.613   2.239 130.514  0.00  0.00    +0.000 C 
BRANCH  36  37
ATOM     37  CG  LEU A   1      -7.813   1.097 129.926  0.00  0.00    +0.000 C 
ATOM     38  CD1 LEU A   1      -8.136  -0.240 130.485  0.00  0.00    +0.000 C 
ATOM     39  CD2 LEU A   1      -8.074   1.001 128.455  0.00  0.00    +0.000 C 
ENDBRANCH  36  37
ENDBRANCH   8  36
TORSDOF 7
ENDMDL
