MODEL 1
REMARK VINA RESULT:      -9.2      0.000      0.000
REMARK  Name = CHEMBL2369425
REMARK  24 active torsions:
REMARK  status: ('A' for Active; 'I' for Inactive)
REMARK    1  A    between atoms: CD1_1  and  CG1_2
REMARK    2  A    between atoms: CG1_2  and  CB_3
REMARK    3  A    between atoms: CB_3  and  CG2_4
REMARK    4  A    between atoms: CB_3  and  CA_5
REMARK    5  A    between atoms: CA_9  and  CB_10
REMARK    6  A    between atoms: CB_10  and  CG_11
REMARK    7  A    between atoms: CZ_14  and  OH_15
REMARK    8  A    between atoms: CA_21  and  N_22
REMARK    9  A    between atoms: CA_27  and  C_28
REMARK   10  A    between atoms: CA_34  and  C_35
REMARK   11  A    between atoms: N_37  and  CA_38
REMARK   12  A    between atoms: CA_38  and  CB_39
REMARK   13  A    between atoms: CA_38  and  C_43
REMARK   14  A    between atoms: CB_39  and  CG_40
REMARK   15  A    between atoms: CG_40  and  CD1_41
REMARK   16  A    between atoms: CG_40  and  CD2_42
REMARK   17  A    between atoms: N_45  and  CA_46
REMARK   18  A    between atoms: CA_46  and  C_47
REMARK   19  A    between atoms: C_47  and  OXT_49
REMARK   20  A    between atoms: CA_53  and  CB_54
REMARK   21  A    between atoms: CB_54  and  CG_55
REMARK   22  A    between atoms: CA_61  and  CB_62
REMARK   23  A    between atoms: CB_62  and  CG_63
REMARK   24  A    between atoms: CG_63  and  CD_64
REMARK                            x       y       z     vdW  Elec       q    Type
REMARK                         _______ _______ _______ _____ _____    ______ ____
ROOT
ATOM      1  CA  ILE A   3      -3.807   4.109 134.222  0.00  0.00    +0.000 C 
ATOM      2  N   ILE A   3      -3.649   2.165 135.108  0.00  0.00    +0.000 N 
ATOM      3  C   TYR A   2      -4.011   0.306 135.664  0.00  0.00    +0.000 C 
ATOM      4  O   TYR A   2      -4.885  -0.165 136.553  0.00  0.00    +0.000 OA
ATOM      5  CA  TYR A   2      -3.291  -1.634 135.445  0.00  0.00    +0.000 C 
ATOM      6  N   TYR A   2      -3.659  -2.771 134.366  0.00  0.00    +0.000 N 
ATOM      7  C   MET A   1      -4.763  -2.571 133.615  0.00  0.00    +0.000 C 
ATOM      8  O   MET A   1      -5.075  -3.232 132.639  0.00  0.00    +0.000 OA
ATOM      9  CA  MET A   1      -5.487  -1.357 134.004  0.00  0.00    +0.000 C 
ATOM     10  CB  MET A   1      -5.245  -0.260 133.079  0.00  0.00    +0.000 C 
ATOM     11  CG  MET A   1      -6.008  -0.655 131.861  0.00  0.00    +0.000 C 
ATOM     12  SG  CYS A   6      -5.411   0.028 130.397  0.00  0.00    +0.000 S 
ATOM     13  CB  CYS A   6      -6.743   0.346 129.250  0.00  0.00    +0.000 C 
ATOM     14  CA  CYS A   6      -6.527   1.429 128.200  0.00  0.00    +0.000 C 
ATOM     15  N   CYS A   6      -7.081   2.697 128.689  0.00  0.00    +0.000 N 
ATOM     16  C   ASN A   5      -6.711   3.293 129.816  0.00  0.00    +0.000 C 
ATOM     17  O   ASN A   5      -7.266   4.320 130.162  0.00  0.00    +0.000 OA
ATOM     18  CA  ASN A   5      -5.540   2.674 130.466  0.00  0.00    +0.000 C 
ATOM     19  N   ASN A   5      -4.559   3.548 130.117  0.00  0.00    +0.000 N 
ATOM     20  C   GLN A   4      -4.506   4.080 131.268  0.00  0.00    +0.000 C 
ATOM     21  O   GLN A   4      -3.230   3.875 131.420  0.00  0.00    +0.000 OA
ATOM     22  CA  GLN A   4      -5.891   5.099 132.146  0.00  0.00    +0.000 C 
ATOM     23  N   GLN A   4      -5.929   5.370 133.790  0.00  0.00    +0.000 N 
ATOM     24  C   ILE A   3      -4.796   5.363 134.642  0.00  0.00    +0.000 C 
ATOM     25  O   ILE A   3      -4.431   6.397 135.224  0.00  0.00    +0.000 OA
ATOM     26  H   ILE A   3      -3.862   1.875 136.217  0.00  0.00    +0.000 HD
ATOM     27  H   TYR A   2      -3.211  -3.697 134.137  0.00  0.00    +0.000 HD
ATOM     28  H   CYS A   6      -7.847   3.168 128.224  0.00  0.00    +0.000 HD
ATOM     29  H   ASN A   5      -3.551   3.297 129.972  0.00  0.00    +0.000 HD
ATOM     30  H   GLN A   4      -6.380   4.614 134.216  0.00  0.00    +0.000 HD
ENDROOT
BRANCH  14  31
ATOM     31  C   CYS A   6      -7.215   1.068 126.885  0.00  0.00    +0.000 C 
ATOM     32  O   CYS A   6      -8.121   0.249 127.046  0.00  0.00    +0.000 OA
ATOM     33  N   PRO A   7      -6.888   1.785 125.711  0.00  0.00    +0.000 N 
ATOM     34  CD  PRO A   7      -5.560   2.121 125.239  0.00  0.00    +0.000 C 
ATOM     35  CG  PRO A   7      -5.758   3.442 124.552  0.00  0.00    +0.000 C 
ATOM     36  CB  PRO A   7      -7.011   3.208 123.757  0.00  0.00    +0.000 C 
ATOM     37  CA  PRO A   7      -7.797   2.174 124.566  0.00  0.00    +0.000 C 
BRANCH  37  38
ATOM     38  C   PRO A   7      -7.917   1.108 123.418  0.00  0.00    +0.000 C 
ATOM     39  O   PRO A   7      -7.132   1.170 122.466  0.00  0.00    +0.000 OA
ATOM     40  N   LEU A   8      -8.728  -0.027 123.690  0.00  0.00    +0.000 N 
ATOM     41  H   LEU A   8      -9.441  -0.024 124.418  0.00  0.00    +0.000 HD
BRANCH  40  42
ATOM     42  CA  LEU A   8      -8.493  -1.365 123.031  0.00  0.00    +0.000 C 
BRANCH  42  43
ATOM     43  C   LEU A   8      -9.026  -2.518 123.949  0.00  0.00    +0.000 C 
ATOM     44  O   LEU A   8      -9.449  -3.563 123.445  0.00  0.00    +0.000 OA
ATOM     45  N   GLY A   9      -9.019  -2.341 125.324  0.00  0.00    +0.000 N 
ATOM     46  H   GLY A   9      -8.684  -1.482 125.759  0.00  0.00    +0.000 HD
BRANCH  45  47
ATOM     47  CA  GLY A   9      -9.491  -3.392 126.257  0.00  0.00    +0.000 C 
BRANCH  47  48
ATOM     48  C   GLY A   9      -8.693  -3.385 127.567  0.00  0.00    +0.000 C 
ATOM     49  O   GLY A   9      -9.085  -3.979 128.567  0.00  0.00    +0.000 OA
BRANCH  48  50
ATOM     50  OXT GLY A   9      -7.529  -2.695 127.585  0.00  0.00    +0.000 OA
ATOM     51  HXT GLY A   9      -6.853  -2.837 126.895  0.00  0.00    +0.000 HD
ENDBRANCH  48  50
ENDBRANCH  47  48
ENDBRANCH  45  47
ENDBRANCH  42  43
BRANCH  42  52
ATOM     52  CB  LEU A   8      -7.008  -1.677 122.678  0.00  0.00    +0.000 C 
BRANCH  52  53
ATOM     53  CG  LEU A   8      -6.245  -2.402 123.776  0.00  0.00    +0.000 C 
ATOM     54  CD1 LEU A   8      -5.035  -3.061 123.231  0.00  0.00    +0.000 C 
ATOM     55  CD2 LEU A   8      -5.533  -1.530 124.747  0.00  0.00    +0.000 C 
ENDBRANCH  52  53
ENDBRANCH  42  52
ENDBRANCH  40  42
ENDBRANCH  37  38
ENDBRANCH  14  31
BRANCH   9  56
ATOM     56  N   MET A   1      -6.819  -1.495 134.520  0.00  0.00    +0.000 NA
ATOM     57  H1  MET A   1      -7.244  -2.172 133.914  0.00  0.00    +0.000 HD
ATOM     58  H2  MET A   1      -7.303  -0.592 134.415  0.00  0.00    +0.000 HD
ENDBRANCH   9  56
BRANCH   1  59
ATOM     59  CB  ILE A   3      -3.771   5.954 132.909  0.00  0.00    +0.000 C 
ATOM     60  CG2 ILE A   3      -3.255   7.715 131.814  0.00  0.00    +0.000 C 
BRANCH  59  62
ATOM     61  CD1 ILE A   3      -3.391   7.578 132.032  0.00  0.00    +0.000 C 
ATOM     62  CG1 ILE A   3      -2.539   6.592 132.667  0.00  0.00    +0.000 C 
ENDBRANCH  59  62
ENDBRANCH   1  59
BRANCH  18  63
ATOM     63  CB  ASN A   5      -5.798   2.320 131.918  0.00  0.00    +0.000 C 
BRANCH  63  64
ATOM     64  CG  ASN A   5      -7.216   2.337 132.340  0.00  0.00    +0.000 C 
ATOM     65  ND2 ASN A   5      -8.374   2.001 131.617  0.00  0.00    +0.000 N 
ATOM     66  OD1 ASN A   5      -7.034   2.622 133.525  0.00  0.00    +0.000 OA
ATOM     67 HD21 ASN A   5      -8.172   1.331 130.860  0.00  0.00    +0.000 HD
ATOM     68 HD22 ASN A   5      -9.078   1.346 132.039  0.00  0.00    +0.000 HD
ENDBRANCH  63  64
ENDBRANCH  18  63
BRANCH   5  69
ATOM     69  CB  TYR A   2      -2.125  -0.929 135.127  0.00  0.00    +0.000 C 
BRANCH  69  70
ATOM     70  CG  TYR A   2      -1.093  -1.833 135.756  0.00  0.00    +0.000 A 
ATOM     71  CD1 TYR A   2      -0.192  -2.728 135.111  0.00  0.00    +0.000 A 
ATOM     72  CE1 TYR A   2       0.723  -3.462 135.861  0.00  0.00    +0.000 A 
ATOM     73  CZ  TYR A   2       0.678  -3.354 137.243  0.00  0.00    +0.000 A 
ATOM     74  CE2 TYR A   2      -0.298  -2.597 137.868  0.00  0.00    +0.000 A 
ATOM     75  CD2 TYR A   2      -1.171  -1.845 137.128  0.00  0.00    +0.000 A 
BRANCH  73  76
ATOM     76  OH  TYR A   2       1.568  -3.956 138.074  0.00  0.00    +0.000 OA
ATOM     77  HH  TYR A   2       2.359  -4.235 137.589  0.00  0.00    +0.000 HD
ENDBRANCH  73  76
ENDBRANCH  69  70
ENDBRANCH   5  69
BRANCH  22  78
ATOM     78  CB  GLN A   4      -6.516   6.516 131.479  0.00  0.00    +0.000 C 
BRANCH  78  79
ATOM     79  CG  GLN A   4      -7.985   6.853 131.518  0.00  0.00    +0.000 C 
BRANCH  79  80
ATOM     80  CD  GLN A   4      -9.018   7.057 130.475  0.00  0.00    +0.000 C 
ATOM     81  NE2 GLN A   4      -9.819   5.995 130.533  0.00  0.00    +0.000 N 
ATOM     82  OE1 GLN A   4      -9.084   7.947 129.639  0.00  0.00    +0.000 OA
ATOM     83 HE21 GLN A   4      -9.627   5.285 131.224  0.00  0.00    +0.000 HD
ATOM     84 HE22 GLN A   4     -10.611   6.008 129.935  0.00  0.00    +0.000 HD
ENDBRANCH  79  80
ENDBRANCH  78  79
ENDBRANCH  22  78
TORSDOF 20
ENDMDL
MODEL 2
REMARK VINA RESULT:      -8.8      3.456     10.437
REMARK  Name = CHEMBL2369425
REMARK  24 active torsions:
REMARK  status: ('A' for Active; 'I' for Inactive)
REMARK    1  A    between atoms: CD1_1  and  CG1_2
REMARK    2  A    between atoms: CG1_2  and  CB_3
REMARK    3  A    between atoms: CB_3  and  CG2_4
REMARK    4  A    between atoms: CB_3  and  CA_5
REMARK    5  A    between atoms: CA_9  and  CB_10
REMARK    6  A    between atoms: CB_10  and  CG_11
REMARK    7  A    between atoms: CZ_14  and  OH_15
REMARK    8  A    between atoms: CA_21  and  N_22
REMARK    9  A    between atoms: CA_27  and  C_28
REMARK   10  A    between atoms: CA_34  and  C_35
REMARK   11  A    between atoms: N_37  and  CA_38
REMARK   12  A    between atoms: CA_38  and  CB_39
REMARK   13  A    between atoms: CA_38  and  C_43
REMARK   14  A    between atoms: CB_39  and  CG_40
REMARK   15  A    between atoms: CG_40  and  CD1_41
REMARK   16  A    between atoms: CG_40  and  CD2_42
REMARK   17  A    between atoms: N_45  and  CA_46
REMARK   18  A    between atoms: CA_46  and  C_47
REMARK   19  A    between atoms: C_47  and  OXT_49
REMARK   20  A    between atoms: CA_53  and  CB_54
REMARK   21  A    between atoms: CB_54  and  CG_55
REMARK   22  A    between atoms: CA_61  and  CB_62
REMARK   23  A    between atoms: CB_62  and  CG_63
REMARK   24  A    between atoms: CG_63  and  CD_64
REMARK                            x       y       z     vdW  Elec       q    Type
REMARK                         _______ _______ _______ _____ _____    ______ ____
ROOT
ATOM      1  CA  ILE A   3      -8.790   5.373 128.927  0.00  0.00    +0.000 C 
ATOM      2  N   ILE A   3      -7.735   4.702 127.188  0.00  0.00    +0.000 N 
ATOM      3  C   TYR A   2      -6.426   3.843 125.986  0.00  0.00    +0.000 C 
ATOM      4  O   TYR A   2      -5.161   4.171 125.727  0.00  0.00    +0.000 OA
ATOM      5  CA  TYR A   2      -6.270   2.366 124.528  0.00  0.00    +0.000 C 
ATOM      6  N   TYR A   2      -5.918   0.801 124.658  0.00  0.00    +0.000 N 
ATOM      7  C   MET A   1      -5.409   0.382 125.836  0.00  0.00    +0.000 C 
ATOM      8  O   MET A   1      -5.264  -0.785 126.161  0.00  0.00    +0.000 OA
ATOM      9  CA  MET A   1      -5.184   1.489 126.770  0.00  0.00    +0.000 C 
ATOM     10  CB  MET A   1      -6.218   1.559 127.791  0.00  0.00    +0.000 C 
ATOM     11  CG  MET A   1      -5.917   0.394 128.671  0.00  0.00    +0.000 C 
ATOM     12  SG  CYS A   6      -7.279  -0.213 129.535  0.00  0.00    +0.000 S 
ATOM     13  CB  CYS A   6      -6.793  -0.843 131.134  0.00  0.00    +0.000 C 
ATOM     14  CA  CYS A   6      -7.851  -0.875 132.231  0.00  0.00    +0.000 C 
ATOM     15  N   CYS A   6      -7.746   0.344 133.042  0.00  0.00    +0.000 N 
ATOM     16  C   ASN A   5      -7.849   1.576 132.561  0.00  0.00    +0.000 C 
ATOM     17  O   ASN A   5      -7.699   2.526 133.308  0.00  0.00    +0.000 OA
ATOM     18  CA  ASN A   5      -8.275   1.637 131.150  0.00  0.00    +0.000 C 
ATOM     19  N   ASN A   5      -9.583   1.979 131.290  0.00  0.00    +0.000 N 
ATOM     20  C   GLN A   4      -9.393   3.185 130.943  0.00  0.00    +0.000 C 
ATOM     21  O   GLN A   4     -10.279   3.162 129.991  0.00  0.00    +0.000 OA
ATOM     22  CA  GLN A   4      -8.353   4.516 131.878  0.00  0.00    +0.000 C 
ATOM     23  N   GLN A   4      -7.779   5.905 131.157  0.00  0.00    +0.000 N 
ATOM     24  C   ILE A   3      -8.354   6.530 130.022  0.00  0.00    +0.000 C 
ATOM     25  O   ILE A   3      -8.859   7.662 130.105  0.00  0.00    +0.000 OA
ATOM     26  H   ILE A   3      -6.995   5.317 126.530  0.00  0.00    +0.000 HD
ATOM     27  H   TYR A   2      -5.979   0.005 123.970  0.00  0.00    +0.000 HD
ATOM     28  H   CYS A   6      -7.511   0.320 134.027  0.00  0.00    +0.000 HD
ATOM     29  H   ASN A   5     -10.352   1.707 130.630  0.00  0.00    +0.000 HD
ATOM     30  H   GLN A   4      -6.921   5.702 130.736  0.00  0.00    +0.000 HD
ENDROOT
BRANCH  14  31
ATOM     31  C   CYS A   6      -7.664  -2.088 133.141  0.00  0.00    +0.000 C 
ATOM     32  O   CYS A   6      -8.699  -2.380 133.742  0.00  0.00    +0.000 OA
ATOM     33  N   PRO A   7      -6.455  -2.818 133.085  0.00  0.00    +0.000 N 
ATOM     34  CD  PRO A   7      -5.111  -2.276 133.075  0.00  0.00    +0.000 C 
ATOM     35  CG  PRO A   7      -4.346  -3.256 132.232  0.00  0.00    +0.000 C 
ATOM     36  CB  PRO A   7      -4.826  -4.578 132.758  0.00  0.00    +0.000 C 
ATOM     37  CA  PRO A   7      -6.251  -4.309 133.245  0.00  0.00    +0.000 C 
BRANCH  37  38
ATOM     38  C   PRO A   7      -6.027  -4.796 134.722  0.00  0.00    +0.000 C 
ATOM     39  O   PRO A   7      -4.937  -5.294 135.023  0.00  0.00    +0.000 OA
ATOM     40  N   LEU A   8      -6.983  -4.370 135.683  0.00  0.00    +0.000 N 
ATOM     41  H   LEU A   8      -7.916  -4.055 135.418  0.00  0.00    +0.000 HD
BRANCH  40  42
ATOM     42  CA  LEU A   8      -6.643  -4.205 137.144  0.00  0.00    +0.000 C 
BRANCH  42  43
ATOM     43  C   LEU A   8      -7.955  -4.043 137.986  0.00  0.00    +0.000 C 
ATOM     44  O   LEU A   8      -7.923  -4.188 139.212  0.00  0.00    +0.000 OA
ATOM     45  N   GLY A   9      -9.141  -3.743 137.334  0.00  0.00    +0.000 N 
ATOM     46  H   GLY A   9      -9.191  -3.630 136.322  0.00  0.00    +0.000 HD
BRANCH  45  47
ATOM     47  CA  GLY A   9     -10.418  -3.557 138.064  0.00  0.00    +0.000 C 
BRANCH  47  48
ATOM     48  C   GLY A   9     -10.750  -2.072 138.254  0.00  0.00    +0.000 C 
ATOM     49  O   GLY A   9      -9.900  -1.259 138.606  0.00  0.00    +0.000 OA
BRANCH  48  50
ATOM     50  OXT GLY A   9     -12.024  -1.682 138.018  0.00  0.00    +0.000 OA
ATOM     51  HXT GLY A   9     -12.747  -2.337 137.973  0.00  0.00    +0.000 HD
ENDBRANCH  48  50
ENDBRANCH  47  48
ENDBRANCH  45  47
ENDBRANCH  42  43
BRANCH  42  52
ATOM     52  CB  LEU A   8      -5.707  -3.004 137.473  0.00  0.00    +0.000 C 
BRANCH  52  53
ATOM     53  CG  LEU A   8      -6.363  -1.641 137.320  0.00  0.00    +0.000 C 
ATOM     54  CD1 LEU A   8      -6.126  -0.803 138.520  0.00  0.00    +0.000 C 
ATOM     55  CD2 LEU A   8      -5.715  -0.722 136.349  0.00  0.00    +0.000 C 
ENDBRANCH  52  53
ENDBRANCH  42  52
ENDBRANCH  40  42
ENDBRANCH  37  38
ENDBRANCH  14  31
BRANCH   9  56
ATOM     56  N   MET A   1      -3.838   1.768 127.183  0.00  0.00    +0.000 NA
ATOM     57  H1  MET A   1      -3.335   0.932 126.950  0.00  0.00    +0.000 HD
ATOM     58  H2  MET A   1      -3.832   1.897 128.204  0.00  0.00    +0.000 HD
ENDBRANCH   9  56
BRANCH   1  59
ATOM     59  CB  ILE A   3     -10.131   5.665 130.728  0.00  0.00    +0.000 C 
ATOM     60  CG2 ILE A   3     -11.730   6.090 132.080  0.00  0.00    +0.000 C 
BRANCH  59  62
ATOM     61  CD1 ILE A   3     -11.399   6.404 131.910  0.00  0.00    +0.000 C 
ATOM     62  CG1 ILE A   3     -11.485   5.999 130.521  0.00  0.00    +0.000 C 
ENDBRANCH  59  62
ENDBRANCH   1  59
BRANCH  18  63
ATOM     63  CB  ASN A   5      -7.334   2.459 130.291  0.00  0.00    +0.000 C 
BRANCH  63  64
ATOM     64  CG  ASN A   5      -6.024   2.780 130.901  0.00  0.00    +0.000 C 
ATOM     65  ND2 ASN A   5      -5.222   2.012 131.764  0.00  0.00    +0.000 N 
ATOM     66  OD1 ASN A   5      -5.830   3.852 130.326  0.00  0.00    +0.000 OA
ATOM     67 HD21 ASN A   5      -5.394   1.002 131.651  0.00  0.00    +0.000 HD
ATOM     68 HD22 ASN A   5      -4.202   1.886 131.550  0.00  0.00    +0.000 HD
ENDBRANCH  63  64
ENDBRANCH  18  63
BRANCH   5  69
ATOM     69  CB  TYR A   2      -7.644   2.617 124.441  0.00  0.00    +0.000 C 
BRANCH  69  70
ATOM     70  CG  TYR A   2      -7.741   3.050 122.998  0.00  0.00    +0.000 A 
ATOM     71  CD1 TYR A   2      -8.878   3.021 122.142  0.00  0.00    +0.000 A 
ATOM     72  CE1 TYR A   2      -8.785   3.500 120.838  0.00  0.00    +0.000 A 
ATOM     73  CZ  TYR A   2      -7.548   3.929 120.381  0.00  0.00    +0.000 A 
ATOM     74  CE2 TYR A   2      -6.417   3.815 121.171  0.00  0.00    +0.000 A 
ATOM     75  CD2 TYR A   2      -6.517   3.381 122.466  0.00  0.00    +0.000 A 
BRANCH  73  76
ATOM     76  OH  TYR A   2      -7.349   4.489 119.159  0.00  0.00    +0.000 OA
ATOM     77  HH  TYR A   2      -7.138   3.812 118.500  0.00  0.00    +0.000 HD
ENDBRANCH  73  76
ENDBRANCH  69  70
ENDBRANCH   5  69
BRANCH  22  78
ATOM     78  CB  GLN A   4      -8.717   4.988 133.455  0.00  0.00    +0.000 C 
BRANCH  78  79
ATOM     79  CG  GLN A   4      -7.732   5.720 134.332  0.00  0.00    +0.000 C 
BRANCH  79  80
ATOM     80  CD  GLN A   4      -7.081   5.406 135.625  0.00  0.00    +0.000 C 
ATOM     81  NE2 GLN A   4      -6.387   4.287 135.430  0.00  0.00    +0.000 N 
ATOM     82  OE1 GLN A   4      -7.224   5.971 136.701  0.00  0.00    +0.000 OA
ATOM     83 HE21 GLN A   4      -6.397   3.869 134.511  0.00  0.00    +0.000 HD
ATOM     84 HE22 GLN A   4      -5.833   3.974 136.192  0.00  0.00    +0.000 HD
ENDBRANCH  79  80
ENDBRANCH  78  79
ENDBRANCH  22  78
TORSDOF 20
ENDMDL
MODEL 3
REMARK VINA RESULT:      -8.2      1.905      2.476
REMARK  Name = CHEMBL2369425
REMARK  24 active torsions:
REMARK  status: ('A' for Active; 'I' for Inactive)
REMARK    1  A    between atoms: CD1_1  and  CG1_2
REMARK    2  A    between atoms: CG1_2  and  CB_3
REMARK    3  A    between atoms: CB_3  and  CG2_4
REMARK    4  A    between atoms: CB_3  and  CA_5
REMARK    5  A    between atoms: CA_9  and  CB_10
REMARK    6  A    between atoms: CB_10  and  CG_11
REMARK    7  A    between atoms: CZ_14  and  OH_15
REMARK    8  A    between atoms: CA_21  and  N_22
REMARK    9  A    between atoms: CA_27  and  C_28
REMARK   10  A    between atoms: CA_34  and  C_35
REMARK   11  A    between atoms: N_37  and  CA_38
REMARK   12  A    between atoms: CA_38  and  CB_39
REMARK   13  A    between atoms: CA_38  and  C_43
REMARK   14  A    between atoms: CB_39  and  CG_40
REMARK   15  A    between atoms: CG_40  and  CD1_41
REMARK   16  A    between atoms: CG_40  and  CD2_42
REMARK   17  A    between atoms: N_45  and  CA_46
REMARK   18  A    between atoms: CA_46  and  C_47
REMARK   19  A    between atoms: C_47  and  OXT_49
REMARK   20  A    between atoms: CA_53  and  CB_54
REMARK   21  A    between atoms: CB_54  and  CG_55
REMARK   22  A    between atoms: CA_61  and  CB_62
REMARK   23  A    between atoms: CB_62  and  CG_63
REMARK   24  A    between atoms: CG_63  and  CD_64
REMARK                            x       y       z     vdW  Elec       q    Type
REMARK                         _______ _______ _______ _____ _____    ______ ____
ROOT
ATOM      1  CA  ILE A   3      -3.834   2.672 135.580  0.00  0.00    +0.000 C 
ATOM      2  N   ILE A   3      -3.393   0.576 135.571  0.00  0.00    +0.000 N 
ATOM      3  C   TYR A   2      -3.492  -1.375 135.290  0.00  0.00    +0.000 C 
ATOM      4  O   TYR A   2      -4.258  -2.286 135.889  0.00  0.00    +0.000 OA
ATOM      5  CA  TYR A   2      -2.544  -2.931 134.286  0.00  0.00    +0.000 C 
ATOM      6  N   TYR A   2      -2.813  -3.552 132.826  0.00  0.00    +0.000 N 
ATOM      7  C   MET A   1      -3.966  -3.206 132.214  0.00  0.00    +0.000 C 
ATOM      8  O   MET A   1      -4.236  -3.435 131.047  0.00  0.00    +0.000 OA
ATOM      9  CA  MET A   1      -4.819  -2.374 133.068  0.00  0.00    +0.000 C 
ATOM     10  CB  MET A   1      -4.759  -0.969 132.692  0.00  0.00    +0.000 C 
ATOM     11  CG  MET A   1      -5.520  -0.918 131.411  0.00  0.00    +0.000 C 
ATOM     12  SG  CYS A   6      -5.081   0.387 130.376  0.00  0.00    +0.000 S 
ATOM     13  CB  CYS A   6      -6.492   0.974 129.452  0.00  0.00    +0.000 C 
ATOM     14  CA  CYS A   6      -6.462   2.415 128.956  0.00  0.00    +0.000 C 
ATOM     15  N   CYS A   6      -7.149   3.276 129.926  0.00  0.00    +0.000 N 
ATOM     16  C   ASN A   5      -6.807   3.391 131.203  0.00  0.00    +0.000 C 
ATOM     17  O   ASN A   5      -7.471   4.095 131.941  0.00  0.00    +0.000 OA
ATOM     18  CA  ASN A   5      -5.539   2.719 131.548  0.00  0.00    +0.000 C 
ATOM     19  N   ASN A   5      -4.694   3.782 131.610  0.00  0.00    +0.000 N 
ATOM     20  C   GLN A   4      -4.656   3.786 132.878  0.00  0.00    +0.000 C 
ATOM     21  O   GLN A   4      -3.359   3.708 132.946  0.00  0.00    +0.000 OA
ATOM     22  CA  GLN A   4      -6.118   4.151 134.086  0.00  0.00    +0.000 C 
ATOM     23  N   GLN A   4      -6.116   3.703 135.691  0.00  0.00    +0.000 N 
ATOM     24  C   ILE A   3      -4.954   3.492 136.475  0.00  0.00    +0.000 C 
ATOM     25  O   ILE A   3      -4.696   4.227 137.442  0.00  0.00    +0.000 OA
ATOM     26  H   ILE A   3      -3.517  -0.175 136.453  0.00  0.00    +0.000 HD
ATOM     27  H   TYR A   2      -2.262  -4.230 132.234  0.00  0.00    +0.000 HD
ATOM     28  H   CYS A   6      -7.989   3.792 129.692  0.00  0.00    +0.000 HD
ATOM     29  H   ASN A   5      -3.669   3.751 131.386  0.00  0.00    +0.000 HD
ATOM     30  H   GLN A   4      -6.448   2.786 135.756  0.00  0.00    +0.000 HD
ENDROOT
BRANCH  14  31
ATOM     31  C   CYS A   6      -7.158   2.547 127.603  0.00  0.00    +0.000 C 
ATOM     32  O   CYS A   6      -8.361   2.292 127.673  0.00  0.00    +0.000 OA
ATOM     33  N   PRO A   7      -6.444   3.080 126.505  0.00  0.00    +0.000 N 
ATOM     34  CD  PRO A   7      -5.101   2.729 126.088  0.00  0.00    +0.000 C 
ATOM     35  CG  PRO A   7      -4.565   4.012 125.521  0.00  0.00    +0.000 C 
ATOM     36  CB  PRO A   7      -5.714   4.503 124.688  0.00  0.00    +0.000 C 
ATOM     37  CA  PRO A   7      -6.962   3.956 125.386  0.00  0.00    +0.000 C 
BRANCH  37  38
ATOM     38  C   PRO A   7      -7.533   3.183 124.144  0.00  0.00    +0.000 C 
ATOM     39  O   PRO A   7      -7.267   3.601 123.011  0.00  0.00    +0.000 OA
ATOM     40  N   LEU A   8      -8.076   1.894 124.394  0.00  0.00    +0.000 N 
ATOM     41  H   LEU A   8      -8.383   1.605 125.322  0.00  0.00    +0.000 HD
BRANCH  40  42
ATOM     42  CA  LEU A   8      -8.097   0.808 123.346  0.00  0.00    +0.000 C 
BRANCH  42  43
ATOM     43  C   LEU A   8      -9.029  -0.365 123.804  0.00  0.00    +0.000 C 
ATOM     44  O   LEU A   8      -9.926  -0.769 123.058  0.00  0.00    +0.000 OA
ATOM     45  N   GLY A   9      -8.833  -0.930 125.055  0.00  0.00    +0.000 N 
ATOM     46  H   GLY A   9      -8.106  -0.605 125.690  0.00  0.00    +0.000 HD
BRANCH  45  47
ATOM     47  CA  GLY A   9      -9.663  -2.054 125.551  0.00  0.00    +0.000 C 
BRANCH  47  48
ATOM     48  C   GLY A   9      -9.342  -3.362 124.817  0.00  0.00    +0.000 C 
ATOM     49  O   GLY A   9      -8.431  -4.101 125.180  0.00  0.00    +0.000 OA
BRANCH  48  50
ATOM     50  OXT GLY A   9     -10.103  -3.678 123.744  0.00  0.00    +0.000 OA
ATOM     51  HXT GLY A   9     -10.147  -4.596 123.415  0.00  0.00    +0.000 HD
ENDBRANCH  48  50
ENDBRANCH  47  48
ENDBRANCH  45  47
ENDBRANCH  42  43
BRANCH  42  52
ATOM     52  CB  LEU A   8      -6.705   0.207 122.989  0.00  0.00    +0.000 C 
BRANCH  52  53
ATOM     53  CG  LEU A   8      -6.557  -1.268 123.330  0.00  0.00    +0.000 C 
ATOM     54  CD1 LEU A   8      -5.892  -2.001 122.226  0.00  0.00    +0.000 C 
ATOM     55  CD2 LEU A   8      -5.546  -1.588 124.371  0.00  0.00    +0.000 C 
ENDBRANCH  52  53
ENDBRANCH  42  52
ENDBRANCH  40  42
ENDBRANCH  37  38
ENDBRANCH  14  31
BRANCH   9  56
ATOM     56  N   MET A   1      -6.098  -2.890 133.462  0.00  0.00    +0.000 NA
ATOM     57  H1  MET A   1      -6.022  -3.877 133.297  0.00  0.00    +0.000 HD
ATOM     58  H2  MET A   1      -6.815  -2.496 132.837  0.00  0.00    +0.000 HD
ENDBRANCH   9  56
BRANCH   1  59
ATOM     59  CB  ILE A   3      -4.090   4.883 135.163  0.00  0.00    +0.000 C 
ATOM     60  CG2 ILE A   3      -3.854   6.994 134.927  0.00  0.00    +0.000 C 
BRANCH  59  62
ATOM     61  CD1 ILE A   3      -3.977   6.764 135.178  0.00  0.00    +0.000 C 
ATOM     62  CG1 ILE A   3      -2.967   5.728 135.258  0.00  0.00    +0.000 C 
ENDBRANCH  59  62
ENDBRANCH   1  59
BRANCH  18  63
ATOM     63  CB  ASN A   5      -5.685   1.760 132.714  0.00  0.00    +0.000 C 
BRANCH  63  64
ATOM     64  CG  ASN A   5      -7.073   1.409 133.086  0.00  0.00    +0.000 C 
ATOM     65  ND2 ASN A   5      -8.218   1.289 132.277  0.00  0.00    +0.000 N 
ATOM     66  OD1 ASN A   5      -6.869   1.156 134.273  0.00  0.00    +0.000 OA
ATOM     67 HD21 ASN A   5      -7.976   1.059 131.302  0.00  0.00    +0.000 HD
ATOM     68 HD22 ASN A   5      -8.820   0.432 132.355  0.00  0.00    +0.000 HD
ENDBRANCH  63  64
ENDBRANCH  18  63
BRANCH   5  69
ATOM     69  CB  TYR A   2      -1.491  -2.009 134.308  0.00  0.00    +0.000 C 
BRANCH  69  70
ATOM     70  CG  TYR A   2      -0.734  -2.505 135.516  0.00  0.00    +0.000 A 
ATOM     71  CD1 TYR A   2       0.055  -1.753 136.433  0.00  0.00    +0.000 A 
ATOM     72  CE1 TYR A   2       0.656  -2.383 137.519  0.00  0.00    +0.000 A 
ATOM     73  CZ  TYR A   2       0.528  -3.759 137.636  0.00  0.00    +0.000 A 
ATOM     74  CE2 TYR A   2      -0.114  -4.501 136.659  0.00  0.00    +0.000 A 
ATOM     75  CD2 TYR A   2      -0.738  -3.876 135.613  0.00  0.00    +0.000 A 
BRANCH  73  76
ATOM     76  OH  TYR A   2       1.000  -4.473 138.691  0.00  0.00    +0.000 OA
ATOM     77  HH  TYR A   2       0.360  -5.146 138.966  0.00  0.00    +0.000 HD
ENDBRANCH  73  76
ENDBRANCH  69  70
ENDBRANCH   5  69
BRANCH  22  78
ATOM     78  CB  GLN A   4      -6.946   5.620 134.067  0.00  0.00    +0.000 C 
BRANCH  78  79
ATOM     79  CG  GLN A   4      -7.973   5.986 135.109  0.00  0.00    +0.000 C 
BRANCH  79  80
ATOM     80  CD  GLN A   4      -7.889   6.497 136.497  0.00  0.00    +0.000 C 
ATOM     81  NE2 GLN A   4      -8.810   7.454 136.596  0.00  0.00    +0.000 N 
ATOM     82  OE1 GLN A   4      -7.076   6.206 137.362  0.00  0.00    +0.000 OA
ATOM     83 HE21 GLN A   4      -9.382   7.656 135.790  0.00  0.00    +0.000 HD
ATOM     84 HE22 GLN A   4      -8.928   7.859 137.494  0.00  0.00    +0.000 HD
ENDBRANCH  79  80
ENDBRANCH  78  79
ENDBRANCH  22  78
TORSDOF 20
ENDMDL
MODEL 4
REMARK VINA RESULT:      -8.0      2.744      4.448
REMARK  Name = CHEMBL2369425
REMARK  24 active torsions:
REMARK  status: ('A' for Active; 'I' for Inactive)
REMARK    1  A    between atoms: CD1_1  and  CG1_2
REMARK    2  A    between atoms: CG1_2  and  CB_3
REMARK    3  A    between atoms: CB_3  and  CG2_4
REMARK    4  A    between atoms: CB_3  and  CA_5
REMARK    5  A    between atoms: CA_9  and  CB_10
REMARK    6  A    between atoms: CB_10  and  CG_11
REMARK    7  A    between atoms: CZ_14  and  OH_15
REMARK    8  A    between atoms: CA_21  and  N_22
REMARK    9  A    between atoms: CA_27  and  C_28
REMARK   10  A    between atoms: CA_34  and  C_35
REMARK   11  A    between atoms: N_37  and  CA_38
REMARK   12  A    between atoms: CA_38  and  CB_39
REMARK   13  A    between atoms: CA_38  and  C_43
REMARK   14  A    between atoms: CB_39  and  CG_40
REMARK   15  A    between atoms: CG_40  and  CD1_41
REMARK   16  A    between atoms: CG_40  and  CD2_42
REMARK   17  A    between atoms: N_45  and  CA_46
REMARK   18  A    between atoms: CA_46  and  C_47
REMARK   19  A    between atoms: C_47  and  OXT_49
REMARK   20  A    between atoms: CA_53  and  CB_54
REMARK   21  A    between atoms: CB_54  and  CG_55
REMARK   22  A    between atoms: CA_61  and  CB_62
REMARK   23  A    between atoms: CB_62  and  CG_63
REMARK   24  A    between atoms: CG_63  and  CD_64
REMARK                            x       y       z     vdW  Elec       q    Type
REMARK                         _______ _______ _______ _____ _____    ______ ____
ROOT
ATOM      1  CA  ILE A   3      -3.684   2.896 136.356  0.00  0.00    +0.000 C 
ATOM      2  N   ILE A   3      -3.139   0.831 136.527  0.00  0.00    +0.000 N 
ATOM      3  C   TYR A   2      -3.108  -1.135 136.362  0.00  0.00    +0.000 C 
ATOM      4  O   TYR A   2      -3.888  -2.052 136.933  0.00  0.00    +0.000 OA
ATOM      5  CA  TYR A   2      -1.978  -2.691 135.566  0.00  0.00    +0.000 C 
ATOM      6  N   TYR A   2      -2.053  -3.409 134.127  0.00  0.00    +0.000 N 
ATOM      7  C   MET A   1      -3.148  -3.165 133.376  0.00  0.00    +0.000 C 
ATOM      8  O   MET A   1      -3.277  -3.476 132.204  0.00  0.00    +0.000 OA
ATOM      9  CA  MET A   1      -4.131  -2.335 134.079  0.00  0.00    +0.000 C 
ATOM     10  CB  MET A   1      -4.101  -0.954 133.624  0.00  0.00    +0.000 C 
ATOM     11  CG  MET A   1      -4.719  -1.020 132.268  0.00  0.00    +0.000 C 
ATOM     12  SG  CYS A   6      -4.235   0.246 131.205  0.00  0.00    +0.000 S 
ATOM     13  CB  CYS A   6      -5.564   0.698 130.101  0.00  0.00    +0.000 C 
ATOM     14  CA  CYS A   6      -5.553   2.106 129.520  0.00  0.00    +0.000 C 
ATOM     15  N   CYS A   6      -6.385   2.982 130.355  0.00  0.00    +0.000 N 
ATOM     16  C   ASN A   5      -6.192   3.189 131.651  0.00  0.00    +0.000 C 
ATOM     17  O   ASN A   5      -6.967   3.896 132.268  0.00  0.00    +0.000 OA
ATOM     18  CA  ASN A   5      -4.937   2.612 132.171  0.00  0.00    +0.000 C 
ATOM     19  N   ASN A   5      -4.158   3.723 132.255  0.00  0.00    +0.000 N 
ATOM     20  C   GLN A   4      -4.260   3.803 133.517  0.00  0.00    +0.000 C 
ATOM     21  O   GLN A   4      -2.976   3.803 133.727  0.00  0.00    +0.000 OA
ATOM     22  CA  GLN A   4      -5.862   4.153 134.536  0.00  0.00    +0.000 C 
ATOM     23  N   GLN A   4      -6.013   3.799 136.158  0.00  0.00    +0.000 N 
ATOM     24  C   ILE A   3      -4.935   3.701 137.073  0.00  0.00    +0.000 C 
ATOM     25  O   ILE A   3      -4.823   4.504 138.014  0.00  0.00    +0.000 OA
ATOM     26  H   ILE A   3      -3.321   0.126 137.437  0.00  0.00    +0.000 HD
ATOM     27  H   TYR A   2      -1.407  -4.087 133.643  0.00  0.00    +0.000 HD
ATOM     28  H   CYS A   6      -7.219   3.434 130.000  0.00  0.00    +0.000 HD
ATOM     29  H   ASN A   5      -3.114   3.738 132.143  0.00  0.00    +0.000 HD
ATOM     30  H   GLN A   4      -6.304   2.870 136.245  0.00  0.00    +0.000 HD
ENDROOT
BRANCH  14  31
ATOM     31  C   CYS A   6      -6.101   2.120 128.095  0.00  0.00    +0.000 C 
ATOM     32  O   CYS A   6      -6.996   1.289 127.934  0.00  0.00    +0.000 OA
ATOM     33  N   PRO A   7      -5.683   3.132 127.200  0.00  0.00    +0.000 N 
ATOM     34  CD  PRO A   7      -4.325   3.586 126.974  0.00  0.00    +0.000 C 
ATOM     35  CG  PRO A   7      -4.493   5.045 126.658  0.00  0.00    +0.000 C 
ATOM     36  CB  PRO A   7      -5.657   5.037 125.708  0.00  0.00    +0.000 C 
ATOM     37  CA  PRO A   7      -6.488   3.821 126.120  0.00  0.00    +0.000 C 
BRANCH  37  38
ATOM     38  C   PRO A   7      -6.469   3.111 124.719  0.00  0.00    +0.000 C 
ATOM     39  O   PRO A   7      -5.865   2.039 124.606  0.00  0.00    +0.000 OA
ATOM     40  N   LEU A   8      -7.384   3.599 123.748  0.00  0.00    +0.000 N 
ATOM     41  H   LEU A   8      -7.796   4.529 123.809  0.00  0.00    +0.000 HD
BRANCH  40  42
ATOM     42  CA  LEU A   8      -7.933   2.727 122.645  0.00  0.00    +0.000 C 
BRANCH  42  43
ATOM     43  C   LEU A   8      -7.936   3.513 121.289  0.00  0.00    +0.000 C 
ATOM     44  O   LEU A   8      -9.006   3.831 120.762  0.00  0.00    +0.000 OA
ATOM     45  N   GLY A   9      -6.725   3.835 120.696  0.00  0.00    +0.000 N 
ATOM     46  H   GLY A   9      -5.831   3.573 121.109  0.00  0.00    +0.000 HD
BRANCH  45  47
ATOM     47  CA  GLY A   9      -6.647   4.592 119.423  0.00  0.00    +0.000 C 
BRANCH  47  48
ATOM     48  C   GLY A   9      -5.569   5.682 119.479  0.00  0.00    +0.000 C 
ATOM     49  O   GLY A   9      -4.818   5.800 120.443  0.00  0.00    +0.000 OA
BRANCH  48  50
ATOM     50  OXT GLY A   9      -5.472   6.518 118.420  0.00  0.00    +0.000 OA
ATOM     51  HXT GLY A   9      -5.887   7.401 118.441  0.00  0.00    +0.000 HD
ENDBRANCH  48  50
ENDBRANCH  47  48
ENDBRANCH  45  47
ENDBRANCH  42  43
BRANCH  42  52
ATOM     52  CB  LEU A   8      -9.371   2.180 122.889  0.00  0.00    +0.000 C 
BRANCH  52  53
ATOM     53  CG  LEU A   8      -9.418   0.732 123.351  0.00  0.00    +0.000 C 
ATOM     54  CD1 LEU A   8     -10.151  -0.111 122.377  0.00  0.00    +0.000 C 
ATOM     55  CD2 LEU A   8      -8.132  -0.010 123.272  0.00  0.00    +0.000 C 
ENDBRANCH  52  53
ENDBRANCH  42  52
ENDBRANCH  40  42
ENDBRANCH  37  38
ENDBRANCH  14  31
BRANCH   9  56
ATOM     56  N   MET A   1      -5.418  -2.901 134.367  0.00  0.00    +0.000 NA
ATOM     57  H1  MET A   1      -5.208  -3.709 134.923  0.00  0.00    +0.000 HD
ATOM     58  H2  MET A   1      -5.847  -3.198 133.480  0.00  0.00    +0.000 HD
ENDBRANCH   9  56
BRANCH   1  59
ATOM     59  CB  ILE A   3      -4.005   5.061 135.775  0.00  0.00    +0.000 C 
ATOM     60  CG2 ILE A   3      -3.872   7.172 135.473  0.00  0.00    +0.000 C 
BRANCH  59  62
ATOM     61  CD1 ILE A   3      -3.867   6.882 135.310  0.00  0.00    +0.000 C 
ATOM     62  CG1 ILE A   3      -2.984   5.995 136.041  0.00  0.00    +0.000 C 
ENDBRANCH  59  62
ENDBRANCH   1  59
BRANCH  18  63
ATOM     63  CB  ASN A   5      -5.161   1.715 133.373  0.00  0.00    +0.000 C 
BRANCH  63  64
ATOM     64  CG  ASN A   5      -6.558   1.283 133.599  0.00  0.00    +0.000 C 
ATOM     65  ND2 ASN A   5      -7.604   1.101 132.677  0.00  0.00    +0.000 N 
ATOM     66  OD1 ASN A   5      -6.463   1.036 134.802  0.00  0.00    +0.000 OA
ATOM     67 HD21 ASN A   5      -7.249   0.891 131.732  0.00  0.00    +0.000 HD
ATOM     68 HD22 ASN A   5      -8.160   0.210 132.692  0.00  0.00    +0.000 HD
ENDBRANCH  63  64
ENDBRANCH  18  63
BRANCH   5  69
ATOM     69  CB  TYR A   2      -0.982  -1.710 135.641  0.00  0.00    +0.000 C 
BRANCH  69  70
ATOM     70  CG  TYR A   2      -0.249  -2.175 136.876  0.00  0.00    +0.000 A 
ATOM     71  CD1 TYR A   2       0.536  -1.403 137.780  0.00  0.00    +0.000 A 
ATOM     72  CE1 TYR A   2       1.112  -2.004 138.896  0.00  0.00    +0.000 A 
ATOM     73  CZ  TYR A   2       0.964  -3.373 139.056  0.00  0.00    +0.000 A 
ATOM     74  CE2 TYR A   2       0.326  -4.140 138.095  0.00  0.00    +0.000 A 
ATOM     75  CD2 TYR A   2      -0.274  -3.542 137.019  0.00  0.00    +0.000 A 
BRANCH  73  76
ATOM     76  OH  TYR A   2       1.410  -4.057 140.142  0.00  0.00    +0.000 OA
ATOM     77  HH  TYR A   2       2.378  -4.048 140.181  0.00  0.00    +0.000 HD
ENDBRANCH  73  76
ENDBRANCH  69  70
ENDBRANCH   5  69
BRANCH  22  78
ATOM     78  CB  GLN A   4      -6.756   5.569 134.336  0.00  0.00    +0.000 C 
BRANCH  78  79
ATOM     79  CG  GLN A   4      -7.755   6.049 135.359  0.00  0.00    +0.000 C 
BRANCH  79  80
ATOM     80  CD  GLN A   4      -7.634   6.729 136.670  0.00  0.00    +0.000 C 
ATOM     81  NE2 GLN A   4      -8.878   6.975 137.076  0.00  0.00    +0.000 N 
ATOM     82  OE1 GLN A   4      -6.618   7.107 137.235  0.00  0.00    +0.000 OA
ATOM     83 HE21 GLN A   4      -9.643   6.676 136.490  0.00  0.00    +0.000 HD
ATOM     84 HE22 GLN A   4      -8.974   7.375 137.979  0.00  0.00    +0.000 HD
ENDBRANCH  79  80
ENDBRANCH  78  79
ENDBRANCH  22  78
TORSDOF 20
ENDMDL
MODEL 5
REMARK VINA RESULT:      -8.0      3.908     12.237
REMARK  Name = CHEMBL2369425
REMARK  24 active torsions:
REMARK  status: ('A' for Active; 'I' for Inactive)
REMARK    1  A    between atoms: CD1_1  and  CG1_2
REMARK    2  A    between atoms: CG1_2  and  CB_3
REMARK    3  A    between atoms: CB_3  and  CG2_4
REMARK    4  A    between atoms: CB_3  and  CA_5
REMARK    5  A    between atoms: CA_9  and  CB_10
REMARK    6  A    between atoms: CB_10  and  CG_11
REMARK    7  A    between atoms: CZ_14  and  OH_15
REMARK    8  A    between atoms: CA_21  and  N_22
REMARK    9  A    between atoms: CA_27  and  C_28
REMARK   10  A    between atoms: CA_34  and  C_35
REMARK   11  A    between atoms: N_37  and  CA_38
REMARK   12  A    between atoms: CA_38  and  CB_39
REMARK   13  A    between atoms: CA_38  and  C_43
REMARK   14  A    between atoms: CB_39  and  CG_40
REMARK   15  A    between atoms: CG_40  and  CD1_41
REMARK   16  A    between atoms: CG_40  and  CD2_42
REMARK   17  A    between atoms: N_45  and  CA_46
REMARK   18  A    between atoms: CA_46  and  C_47
REMARK   19  A    between atoms: C_47  and  OXT_49
REMARK   20  A    between atoms: CA_53  and  CB_54
REMARK   21  A    between atoms: CB_54  and  CG_55
REMARK   22  A    between atoms: CA_61  and  CB_62
REMARK   23  A    between atoms: CB_62  and  CG_63
REMARK   24  A    between atoms: CG_63  and  CD_64
REMARK                            x       y       z     vdW  Elec       q    Type
REMARK                         _______ _______ _______ _____ _____    ______ ____
ROOT
ATOM      1  CA  ILE A   3      -6.916  -0.729 130.853  0.00  0.00    +0.000 C 
ATOM      2  N   ILE A   3      -7.458  -0.268 128.832  0.00  0.00    +0.000 N 
ATOM      3  C   TYR A   2      -7.964   0.692 127.183  0.00  0.00    +0.000 C 
ATOM      4  O   TYR A   2      -9.119   1.265 126.849  0.00  0.00    +0.000 OA
ATOM      5  CA  TYR A   2      -7.271   1.131 125.271  0.00  0.00    +0.000 C 
ATOM      6  N   TYR A   2      -6.407   2.378 124.731  0.00  0.00    +0.000 N 
ATOM      7  C   MET A   1      -6.289   3.444 125.552  0.00  0.00    +0.000 C 
ATOM      8  O   MET A   1      -5.528   4.381 125.378  0.00  0.00    +0.000 OA
ATOM      9  CA  MET A   1      -7.074   3.288 126.780  0.00  0.00    +0.000 C 
ATOM     10  CB  MET A   1      -6.239   2.929 127.917  0.00  0.00    +0.000 C 
ATOM     11  CG  MET A   1      -5.502   4.189 128.220  0.00  0.00    +0.000 C 
ATOM     12  SG  CYS A   6      -3.992   3.954 129.015  0.00  0.00    +0.000 S 
ATOM     13  CB  CYS A   6      -3.645   5.295 130.141  0.00  0.00    +0.000 C 
ATOM     14  CA  CYS A   6      -2.712   5.012 131.312  0.00  0.00    +0.000 C 
ATOM     15  N   CYS A   6      -3.508   4.657 132.493  0.00  0.00    +0.000 N 
ATOM     16  C   ASN A   5      -4.369   3.649 132.543  0.00  0.00    +0.000 C 
ATOM     17  O   ASN A   5      -5.020   3.465 133.555  0.00  0.00    +0.000 OA
ATOM     18  CA  ASN A   5      -4.332   2.768 131.360  0.00  0.00    +0.000 C 
ATOM     19  N   ASN A   5      -3.631   1.710 131.849  0.00  0.00    +0.000 N 
ATOM     20  C   GLN A   4      -4.658   0.972 131.958  0.00  0.00    +0.000 C 
ATOM     21  O   GLN A   4      -4.169   0.002 131.241  0.00  0.00    +0.000 OA
ATOM     22  CA  GLN A   4      -6.169   1.245 133.129  0.00  0.00    +0.000 C 
ATOM     23  N   GLN A   4      -7.650   0.514 132.901  0.00  0.00    +0.000 N 
ATOM     24  C   ILE A   3      -7.858  -0.705 132.210  0.00  0.00    +0.000 C 
ATOM     25  O   ILE A   3      -8.280  -1.711 132.804  0.00  0.00    +0.000 OA
ATOM     26  H   ILE A   3      -8.507  -0.387 128.337  0.00  0.00    +0.000 HD
ATOM     27  H   TYR A   2      -5.917   2.552 123.814  0.00  0.00    +0.000 HD
ATOM     28  H   CYS A   6      -3.503   5.218 133.337  0.00  0.00    +0.000 HD
ATOM     29  H   ASN A   5      -3.005   1.087 131.282  0.00  0.00    +0.000 HD
ATOM     30  H   GLN A   4      -8.175   1.067 132.290  0.00  0.00    +0.000 HD
ENDROOT
BRANCH  14  31
ATOM     31  C   CYS A   6      -1.857   6.233 131.645  0.00  0.00    +0.000 C 
ATOM     32  O   CYS A   6      -1.136   6.565 130.703  0.00  0.00    +0.000 OA
ATOM     33  N   PRO A   7      -2.081   6.927 132.856  0.00  0.00    +0.000 N 
ATOM     34  CD  PRO A   7      -2.250   6.346 134.173  0.00  0.00    +0.000 C 
ATOM     35  CG  PRO A   7      -3.203   7.289 134.851  0.00  0.00    +0.000 C 
ATOM     36  CB  PRO A   7      -2.647   8.633 134.476  0.00  0.00    +0.000 C 
ATOM     37  CA  PRO A   7      -1.978   8.414 133.118  0.00  0.00    +0.000 C 
BRANCH  37  38
ATOM     38  C   PRO A   7      -0.552   8.919 133.541  0.00  0.00    +0.000 C 
ATOM     39  O   PRO A   7       0.441   8.306 133.131  0.00  0.00    +0.000 OA
ATOM     40  N   LEU A   8      -0.485  10.212 134.126  0.00  0.00    +0.000 N 
ATOM     41  H   LEU A   8      -1.297  10.659 134.549  0.00  0.00    +0.000 HD
BRANCH  40  42
ATOM     42  CA  LEU A   8       0.747  11.080 134.030  0.00  0.00    +0.000 C 
BRANCH  42  43
ATOM     43  C   LEU A   8       0.579  12.353 134.929  0.00  0.00    +0.000 C 
ATOM     44  O   LEU A   8       1.548  13.083 135.152  0.00  0.00    +0.000 OA
ATOM     45  N   GLY A   9      -0.667  12.636 135.468  0.00  0.00    +0.000 N 
ATOM     46  H   GLY A   9      -1.477  12.040 135.305  0.00  0.00    +0.000 HD
BRANCH  45  47
ATOM     47  CA  GLY A   9      -0.907  13.830 136.313  0.00  0.00    +0.000 C 
BRANCH  47  48
ATOM     48  C   GLY A   9      -1.333  15.041 135.473  0.00  0.00    +0.000 C 
ATOM     49  O   GLY A   9      -2.112  14.932 134.530  0.00  0.00    +0.000 OA
BRANCH  48  50
ATOM     50  OXT GLY A   9      -0.817  16.246 135.808  0.00  0.00    +0.000 OA
ATOM     51  HXT GLY A   9       0.141  16.355 135.961  0.00  0.00    +0.000 HD
ENDBRANCH  48  50
ENDBRANCH  47  48
ENDBRANCH  45  47
ENDBRANCH  42  43
BRANCH  42  52
ATOM     52  CB  LEU A   8       1.114  11.550 132.591  0.00  0.00    +0.000 C 
BRANCH  52  53
ATOM     53  CG  LEU A   8       0.278  12.714 132.083  0.00  0.00    +0.000 C 
ATOM     54  CD1 LEU A   8       0.701  13.112 130.719  0.00  0.00    +0.000 C 
ATOM     55  CD2 LEU A   8      -1.129  12.390 131.730  0.00  0.00    +0.000 C 
ENDBRANCH  52  53
ENDBRANCH  42  52
ENDBRANCH  40  42
ENDBRANCH  37  38
ENDBRANCH  14  31
BRANCH   9  56
ATOM     56  N   MET A   1      -8.147   4.209 127.023  0.00  0.00    +0.000 NA
ATOM     57  H1  MET A   1      -8.149   4.799 126.212  0.00  0.00    +0.000 HD
ATOM     58  H2  MET A   1      -7.911   4.772 127.853  0.00  0.00    +0.000 HD
ENDBRANCH   9  56
BRANCH   1  59
ATOM     59  CB  ILE A   3      -5.901  -1.132 132.836  0.00  0.00    +0.000 C 
ATOM     60  CG2 ILE A   3      -4.823  -1.951 134.489  0.00  0.00    +0.000 C 
BRANCH  59  62
ATOM     61  CD1 ILE A   3      -5.383  -2.078 134.381  0.00  0.00    +0.000 C 
ATOM     62  CG1 ILE A   3      -5.114  -2.292 132.973  0.00  0.00    +0.000 C 
ENDBRANCH  59  62
ENDBRANCH   1  59
BRANCH  18  63
ATOM     63  CB  ASN A   5      -5.697   2.583 130.726  0.00  0.00    +0.000 C 
BRANCH  63  64
ATOM     64  CG  ASN A   5      -6.742   3.532 131.168  0.00  0.00    +0.000 C 
ATOM     65  ND2 ASN A   5      -6.634   4.890 131.520  0.00  0.00    +0.000 N 
ATOM     66  OD1 ASN A   5      -7.715   2.792 131.017  0.00  0.00    +0.000 OA
ATOM     67 HD21 ASN A   5      -5.826   5.340 131.065  0.00  0.00    +0.000 HD
ATOM     68 HD22 ASN A   5      -7.292   5.590 131.096  0.00  0.00    +0.000 HD
ENDBRANCH  63  64
ENDBRANCH  18  63
BRANCH   5  69
ATOM     69  CB  TYR A   2      -6.496  -0.005 125.530  0.00  0.00    +0.000 C 
BRANCH  69  70
ATOM     70  CG  TYR A   2      -7.416  -1.077 124.996  0.00  0.00    +0.000 A 
ATOM     71  CD1 TYR A   2      -7.558  -2.422 125.443  0.00  0.00    +0.000 A 
ATOM     72  CE1 TYR A   2      -8.493  -3.263 124.845  0.00  0.00    +0.000 A 
ATOM     73  CZ  TYR A   2      -9.216  -2.780 123.765  0.00  0.00    +0.000 A 
ATOM     74  CE2 TYR A   2      -8.965  -1.523 123.242  0.00  0.00    +0.000 A 
ATOM     75  CD2 TYR A   2      -8.074  -0.684 123.855  0.00  0.00    +0.000 A 
BRANCH  73  76
ATOM     76  OH  TYR A   2     -10.209  -3.477 123.152  0.00  0.00    +0.000 OA
ATOM     77  HH  TYR A   2     -10.962  -3.599 123.749  0.00  0.00    +0.000 HD
ENDBRANCH  73  76
ENDBRANCH  69  70
ENDBRANCH   5  69
BRANCH  22  78
ATOM     78  CB  GLN A   4      -5.998   1.320 134.805  0.00  0.00    +0.000 C 
BRANCH  78  79
ATOM     79  CG  GLN A   4      -4.651   1.354 135.482  0.00  0.00    +0.000 C 
BRANCH  79  80
ATOM     80  CD  GLN A   4      -4.094   2.128 136.616  0.00  0.00    +0.000 C 
ATOM     81  NE2 GLN A   4      -3.386   3.118 136.077  0.00  0.00    +0.000 N 
ATOM     82  OE1 GLN A   4      -4.153   1.870 137.810  0.00  0.00    +0.000 OA
ATOM     83 HE21 GLN A   4      -3.352   3.193 135.071  0.00  0.00    +0.000 HD
ATOM     84 HE22 GLN A   4      -2.995   3.775 136.710  0.00  0.00    +0.000 HD
ENDBRANCH  79  80
ENDBRANCH  78  79
ENDBRANCH  22  78
TORSDOF 20
ENDMDL
MODEL 6
REMARK VINA RESULT:      -8.0      4.029     12.218
REMARK  Name = CHEMBL2369425
REMARK  24 active torsions:
REMARK  status: ('A' for Active; 'I' for Inactive)
REMARK    1  A    between atoms: CD1_1  and  CG1_2
REMARK    2  A    between atoms: CG1_2  and  CB_3
REMARK    3  A    between atoms: CB_3  and  CG2_4
REMARK    4  A    between atoms: CB_3  and  CA_5
REMARK    5  A    between atoms: CA_9  and  CB_10
REMARK    6  A    between atoms: CB_10  and  CG_11
REMARK    7  A    between atoms: CZ_14  and  OH_15
REMARK    8  A    between atoms: CA_21  and  N_22
REMARK    9  A    between atoms: CA_27  and  C_28
REMARK   10  A    between atoms: CA_34  and  C_35
REMARK   11  A    between atoms: N_37  and  CA_38
REMARK   12  A    between atoms: CA_38  and  CB_39
REMARK   13  A    between atoms: CA_38  and  C_43
REMARK   14  A    between atoms: CB_39  and  CG_40
REMARK   15  A    between atoms: CG_40  and  CD1_41
REMARK   16  A    between atoms: CG_40  and  CD2_42
REMARK   17  A    between atoms: N_45  and  CA_46
REMARK   18  A    between atoms: CA_46  and  C_47
REMARK   19  A    between atoms: C_47  and  OXT_49
REMARK   20  A    between atoms: CA_53  and  CB_54
REMARK   21  A    between atoms: CB_54  and  CG_55
REMARK   22  A    between atoms: CA_61  and  CB_62
REMARK   23  A    between atoms: CB_62  and  CG_63
REMARK   24  A    between atoms: CG_63  and  CD_64
REMARK                            x       y       z     vdW  Elec       q    Type
REMARK                         _______ _______ _______ _____ _____    ______ ____
ROOT
ATOM      1  CA  ILE A   3      -7.755   0.186 130.057  0.00  0.00    +0.000 C 
ATOM      2  N   ILE A   3      -7.972   0.579 127.962  0.00  0.00    +0.000 N 
ATOM      3  C   TYR A   2      -8.127   1.484 126.215  0.00  0.00    +0.000 C 
ATOM      4  O   TYR A   2      -9.137   2.187 125.704  0.00  0.00    +0.000 OA
ATOM      5  CA  TYR A   2      -7.147   1.694 124.391  0.00  0.00    +0.000 C 
ATOM      6  N   TYR A   2      -6.052   2.771 123.909  0.00  0.00    +0.000 N 
ATOM      7  C   MET A   1      -5.884   3.864 124.684  0.00  0.00    +0.000 C 
ATOM      8  O   MET A   1      -4.980   4.674 124.565  0.00  0.00    +0.000 OA
ATOM      9  CA  MET A   1      -6.828   3.901 125.805  0.00  0.00    +0.000 C 
ATOM     10  CB  MET A   1      -6.200   3.509 127.057  0.00  0.00    +0.000 C 
ATOM     11  CG  MET A   1      -5.332   4.673 127.392  0.00  0.00    +0.000 C 
ATOM     12  SG  CYS A   6      -3.981   4.288 128.389  0.00  0.00    +0.000 S 
ATOM     13  CB  CYS A   6      -3.586   5.643 129.484  0.00  0.00    +0.000 C 
ATOM     14  CA  CYS A   6      -2.854   5.314 130.779  0.00  0.00    +0.000 C 
ATOM     15  N   CYS A   6      -3.833   5.153 131.861  0.00  0.00    +0.000 N 
ATOM     16  C   ASN A   5      -4.830   4.277 131.848  0.00  0.00    +0.000 C 
ATOM     17  O   ASN A   5      -5.620   4.253 132.774  0.00  0.00    +0.000 OA
ATOM     18  CA  ASN A   5      -4.775   3.321 130.726  0.00  0.00    +0.000 C 
ATOM     19  N   ASN A   5      -4.300   2.213 131.354  0.00  0.00    +0.000 N 
ATOM     20  C   GLN A   4      -5.428   1.632 131.364  0.00  0.00    +0.000 C 
ATOM     21  O   GLN A   4      -5.000   0.558 130.767  0.00  0.00    +0.000 OA
ATOM     22  CA  GLN A   4      -7.016   2.188 132.311  0.00  0.00    +0.000 C 
ATOM     23  N   GLN A   4      -8.548   1.653 131.927  0.00  0.00    +0.000 N 
ATOM     24  C   ILE A   3      -8.843   0.430 131.275  0.00  0.00    +0.000 C 
ATOM     25  O   ILE A   3      -9.476  -0.466 131.858  0.00  0.00    +0.000 OA
ATOM     26  H   ILE A   3      -8.958   0.570 127.340  0.00  0.00    +0.000 HD
ATOM     27  H   TYR A   2      -5.433   2.815 123.057  0.00  0.00    +0.000 HD
ATOM     28  H   CYS A   6      -3.851   5.763 132.670  0.00  0.00    +0.000 HD
ATOM     29  H   ASN A   5      -3.705   1.474 130.905  0.00  0.00    +0.000 HD
ATOM     30  H   GLN A   4      -8.909   2.230 131.225  0.00  0.00    +0.000 HD
ENDROOT
BRANCH  14  31
ATOM     31  C   CYS A   6      -1.880   6.427 131.160  0.00  0.00    +0.000 C 
ATOM     32  O   CYS A   6      -1.131   6.727 130.229  0.00  0.00    +0.000 OA
ATOM     33  N   PRO A   7      -2.028   7.084 132.403  0.00  0.00    +0.000 N 
ATOM     34  CD  PRO A   7      -2.252   6.463 133.694  0.00  0.00    +0.000 C 
ATOM     35  CG  PRO A   7      -3.103   7.465 134.420  0.00  0.00    +0.000 C 
ATOM     36  CB  PRO A   7      -2.415   8.763 134.103  0.00  0.00    +0.000 C 
ATOM     37  CA  PRO A   7      -1.775   8.539 132.731  0.00  0.00    +0.000 C 
BRANCH  37  38
ATOM     38  C   PRO A   7      -0.304   8.878 133.166  0.00  0.00    +0.000 C 
ATOM     39  O   PRO A   7       0.620   8.186 132.724  0.00  0.00    +0.000 OA
ATOM     40  N   LEU A   8      -0.105  10.130 133.806  0.00  0.00    +0.000 N 
ATOM     41  H   LEU A   8      -0.866  10.639 134.253  0.00  0.00    +0.000 HD
BRANCH  40  42
ATOM     42  CA  LEU A   8       1.208  10.872 133.740  0.00  0.00    +0.000 C 
BRANCH  42  43
ATOM     43  C   LEU A   8       1.243  12.003 134.825  0.00  0.00    +0.000 C 
ATOM     44  O   LEU A   8       2.283  12.637 135.023  0.00  0.00    +0.000 OA
ATOM     45  N   GLY A   9       0.095  12.269 135.556  0.00  0.00    +0.000 N 
ATOM     46  H   GLY A   9      -0.771  11.750 135.416  0.00  0.00    +0.000 HD
BRANCH  45  47
ATOM     47  CA  GLY A   9       0.045  13.334 136.587  0.00  0.00    +0.000 C 
BRANCH  47  48
ATOM     48  C   GLY A   9      -0.654  14.595 136.063  0.00  0.00    +0.000 C 
ATOM     49  O   GLY A   9      -1.199  14.623 134.963  0.00  0.00    +0.000 OA
BRANCH  48  50
ATOM     50  OXT GLY A   9      -0.650  15.687 136.862  0.00  0.00    +0.000 OA
ATOM     51  HXT GLY A   9      -0.235  15.660 137.744  0.00  0.00    +0.000 HD
ENDBRANCH  48  50
ENDBRANCH  47  48
ENDBRANCH  45  47
ENDBRANCH  42  43
BRANCH  42  52
ATOM     52  CB  LEU A   8       1.534  11.518 132.360  0.00  0.00    +0.000 C 
BRANCH  52  53
ATOM     53  CG  LEU A   8       0.665  12.717 132.012  0.00  0.00    +0.000 C 
ATOM     54  CD1 LEU A   8       0.882  13.136 130.607  0.00  0.00    +0.000 C 
ATOM     55  CD2 LEU A   8      -0.789  12.440 131.877  0.00  0.00    +0.000 C 
ENDBRANCH  52  53
ENDBRANCH  42  52
ENDBRANCH  40  42
ENDBRANCH  37  38
ENDBRANCH  14  31
BRANCH   9  56
ATOM     56  N   MET A   1      -7.779   4.975 125.859  0.00  0.00    +0.000 NA
ATOM     57  H1  MET A   1      -8.537   4.655 125.286  0.00  0.00    +0.000 HD
ATOM     58  H2  MET A   1      -7.353   5.808 125.428  0.00  0.00    +0.000 HD
ENDBRANCH   9  56
BRANCH   1  59
ATOM     59  CB  ILE A   3      -7.061  -0.218 132.174  0.00  0.00    +0.000 C 
ATOM     60  CG2 ILE A   3      -6.355  -1.071 134.002  0.00  0.00    +0.000 C 
BRANCH  59  62
ATOM     61  CD1 ILE A   3      -6.543  -0.947 133.833  0.00  0.00    +0.000 C 
ATOM     62  CG1 ILE A   3      -6.545  -1.490 132.490  0.00  0.00    +0.000 C 
ENDBRANCH  59  62
ENDBRANCH   1  59
BRANCH  18  63
ATOM     63  CB  ASN A   5      -6.064   3.283 129.927  0.00  0.00    +0.000 C 
BRANCH  63  64
ATOM     64  CG  ASN A   5      -7.015   4.384 130.193  0.00  0.00    +0.000 C 
ATOM     65  ND2 ASN A   5      -6.766   5.728 130.526  0.00  0.00    +0.000 N 
ATOM     66  OD1 ASN A   5      -8.052   3.779 129.921  0.00  0.00    +0.000 OA
ATOM     67 HD21 ASN A   5      -5.847   6.043 130.182  0.00  0.00    +0.000 HD
ATOM     68 HD22 ASN A   5      -7.253   6.493 129.996  0.00  0.00    +0.000 HD
ENDBRANCH  63  64
ENDBRANCH  18  63
BRANCH   5  69
ATOM     69  CB  TYR A   2      -6.583   0.483 124.806  0.00  0.00    +0.000 C 
BRANCH  69  70
ATOM     70  CG  TYR A   2      -7.610  -0.483 124.267  0.00  0.00    +0.000 A 
ATOM     71  CD1 TYR A   2      -8.522  -0.292 123.190  0.00  0.00    +0.000 A 
ATOM     72  CE1 TYR A   2      -9.380  -1.320 122.809  0.00  0.00    +0.000 A 
ATOM     73  CZ  TYR A   2      -9.374  -2.492 123.550  0.00  0.00    +0.000 A 
ATOM     74  CE2 TYR A   2      -8.592  -2.614 124.687  0.00  0.00    +0.000 A 
ATOM     75  CD2 TYR A   2      -7.720  -1.617 125.036  0.00  0.00    +0.000 A 
BRANCH  73  76
ATOM     76  OH  TYR A   2     -10.105  -3.591 123.229  0.00  0.00    +0.000 OA
ATOM     77  HH  TYR A   2     -10.041  -3.782 122.282  0.00  0.00    +0.000 HD
ENDBRANCH  73  76
ENDBRANCH  69  70
ENDBRANCH   5  69
BRANCH  22  78
ATOM     78  CB  GLN A   4      -7.044   2.352 133.989  0.00  0.00    +0.000 C 
BRANCH  78  79
ATOM     79  CG  GLN A   4      -7.752   3.488 134.682  0.00  0.00    +0.000 C 
BRANCH  79  80
ATOM     80  CD  GLN A   4      -8.632   4.585 134.214  0.00  0.00    +0.000 C 
ATOM     81  NE2 GLN A   4      -9.837   4.047 134.043  0.00  0.00    +0.000 N 
ATOM     82  OE1 GLN A   4      -8.321   5.731 133.922  0.00  0.00    +0.000 OA
ATOM     83 HE21 GLN A   4      -9.961   3.068 134.253  0.00  0.00    +0.000 HD
ATOM     84 HE22 GLN A   4     -10.566   4.671 133.790  0.00  0.00    +0.000 HD
ENDBRANCH  79  80
ENDBRANCH  78  79
ENDBRANCH  22  78
TORSDOF 20
ENDMDL
MODEL 7
REMARK VINA RESULT:      -7.9      3.195     10.424
REMARK  Name = CHEMBL2369425
REMARK  24 active torsions:
REMARK  status: ('A' for Active; 'I' for Inactive)
REMARK    1  A    between atoms: CD1_1  and  CG1_2
REMARK    2  A    between atoms: CG1_2  and  CB_3
REMARK    3  A    between atoms: CB_3  and  CG2_4
REMARK    4  A    between atoms: CB_3  and  CA_5
REMARK    5  A    between atoms: CA_9  and  CB_10
REMARK    6  A    between atoms: CB_10  and  CG_11
REMARK    7  A    between atoms: CZ_14  and  OH_15
REMARK    8  A    between atoms: CA_21  and  N_22
REMARK    9  A    between atoms: CA_27  and  C_28
REMARK   10  A    between atoms: CA_34  and  C_35
REMARK   11  A    between atoms: N_37  and  CA_38
REMARK   12  A    between atoms: CA_38  and  CB_39
REMARK   13  A    between atoms: CA_38  and  C_43
REMARK   14  A    between atoms: CB_39  and  CG_40
REMARK   15  A    between atoms: CG_40  and  CD1_41
REMARK   16  A    between atoms: CG_40  and  CD2_42
REMARK   17  A    between atoms: N_45  and  CA_46
REMARK   18  A    between atoms: CA_46  and  C_47
REMARK   19  A    between atoms: C_47  and  OXT_49
REMARK   20  A    between atoms: CA_53  and  CB_54
REMARK   21  A    between atoms: CB_54  and  CG_55
REMARK   22  A    between atoms: CA_61  and  CB_62
REMARK   23  A    between atoms: CB_62  and  CG_63
REMARK   24  A    between atoms: CG_63  and  CD_64
REMARK                            x       y       z     vdW  Elec       q    Type
REMARK                         _______ _______ _______ _____ _____    ______ ____
ROOT
ATOM      1  CA  ILE A   3      -8.773   5.348 128.923  0.00  0.00    +0.000 C 
ATOM      2  N   ILE A   3      -7.732   4.693 127.170  0.00  0.00    +0.000 N 
ATOM      3  C   TYR A   2      -6.432   3.846 125.949  0.00  0.00    +0.000 C 
ATOM      4  O   TYR A   2      -5.171   4.181 125.680  0.00  0.00    +0.000 OA
ATOM      5  CA  TYR A   2      -6.285   2.379 124.481  0.00  0.00    +0.000 C 
ATOM      6  N   TYR A   2      -5.926   0.815 124.597  0.00  0.00    +0.000 N 
ATOM      7  C   MET A   1      -5.404   0.390 125.767  0.00  0.00    +0.000 C 
ATOM      8  O   MET A   1      -5.251  -0.778 126.083  0.00  0.00    +0.000 OA
ATOM      9  CA  MET A   1      -5.173   1.492 126.705  0.00  0.00    +0.000 C 
ATOM     10  CB  MET A   1      -6.198   1.551 127.737  0.00  0.00    +0.000 C 
ATOM     11  CG  MET A   1      -5.884   0.382 128.607  0.00  0.00    +0.000 C 
ATOM     12  SG  CYS A   6      -7.235  -0.235 129.481  0.00  0.00    +0.000 S 
ATOM     13  CB  CYS A   6      -6.731  -0.874 131.070  0.00  0.00    +0.000 C 
ATOM     14  CA  CYS A   6      -7.777  -0.918 132.177  0.00  0.00    +0.000 C 
ATOM     15  N   CYS A   6      -7.669   0.297 132.995  0.00  0.00    +0.000 N 
ATOM     16  C   ASN A   5      -7.781   1.532 132.524  0.00  0.00    +0.000 C 
ATOM     17  O   ASN A   5      -7.627   2.477 133.275  0.00  0.00    +0.000 OA
ATOM     18  CA  ASN A   5      -8.222   1.600 131.117  0.00  0.00    +0.000 C 
ATOM     19  N   ASN A   5      -9.530   1.937 131.272  0.00  0.00    +0.000 N 
ATOM     20  C   GLN A   4      -9.347   3.146 130.931  0.00  0.00    +0.000 C 
ATOM     21  O   GLN A   4     -10.243   3.125 129.987  0.00  0.00    +0.000 OA
ATOM     22  CA  GLN A   4      -8.303   4.474 131.865  0.00  0.00    +0.000 C 
ATOM     23  N   GLN A   4      -7.742   5.870 131.147  0.00  0.00    +0.000 N 
ATOM     24  C   ILE A   3      -8.330   6.500 130.022  0.00  0.00    +0.000 C 
ATOM     25  O   ILE A   3      -8.838   7.629 130.117  0.00  0.00    +0.000 OA
ATOM     26  H   ILE A   3      -7.001   5.314 126.508  0.00  0.00    +0.000 HD
ATOM     27  H   TYR A   2      -5.991   0.023 123.904  0.00  0.00    +0.000 HD
ATOM     28  H   CYS A   6      -7.425   0.267 133.978  0.00  0.00    +0.000 HD
ATOM     29  H   ASN A   5     -10.304   1.665 130.618  0.00  0.00    +0.000 HD
ATOM     30  H   GLN A   4      -6.887   5.673 130.716  0.00  0.00    +0.000 HD
ENDROOT
BRANCH  14  31
ATOM     31  C   CYS A   6      -7.578  -2.135 133.078  0.00  0.00    +0.000 C 
ATOM     32  O   CYS A   6      -8.542  -2.327 133.820  0.00  0.00    +0.000 OA
ATOM     33  N   PRO A   7      -6.458  -2.974 132.872  0.00  0.00    +0.000 N 
ATOM     34  CD  PRO A   7      -5.085  -2.557 132.669  0.00  0.00    +0.000 C 
ATOM     35  CG  PRO A   7      -4.534  -3.609 131.749  0.00  0.00    +0.000 C 
ATOM     36  CB  PRO A   7      -5.055  -4.878 132.362  0.00  0.00    +0.000 C 
ATOM     37  CA  PRO A   7      -6.369  -4.476 133.033  0.00  0.00    +0.000 C 
BRANCH  37  38
ATOM     38  C   PRO A   7      -5.989  -4.970 134.475  0.00  0.00    +0.000 C 
ATOM     39  O   PRO A   7      -4.963  -5.645 134.620  0.00  0.00    +0.000 OA
ATOM     40  N   LEU A   8      -6.688  -4.370 135.556  0.00  0.00    +0.000 N 
ATOM     41  H   LEU A   8      -7.586  -3.903 135.430  0.00  0.00    +0.000 HD
BRANCH  40  42
ATOM     42  CA  LEU A   8      -6.089  -4.243 136.936  0.00  0.00    +0.000 C 
BRANCH  42  43
ATOM     43  C   LEU A   8      -5.892  -2.731 137.299  0.00  0.00    +0.000 C 
ATOM     44  O   LEU A   8      -5.945  -2.367 138.478  0.00  0.00    +0.000 OA
ATOM     45  N   GLY A   9      -5.665  -1.818 136.280  0.00  0.00    +0.000 N 
ATOM     46  H   GLY A   9      -5.628  -2.096 135.300  0.00  0.00    +0.000 HD
BRANCH  45  47
ATOM     47  CA  GLY A   9      -5.452  -0.375 136.547  0.00  0.00    +0.000 C 
BRANCH  47  48
ATOM     48  C   GLY A   9      -4.590   0.279 135.460  0.00  0.00    +0.000 C 
ATOM     49  O   GLY A   9      -5.012   0.458 134.321  0.00  0.00    +0.000 OA
BRANCH  48  50
ATOM     50  OXT GLY A   9      -3.336   0.657 135.801  0.00  0.00    +0.000 OA
ATOM     51  HXT GLY A   9      -3.123   0.911 136.719  0.00  0.00    +0.000 HD
ENDBRANCH  48  50
ENDBRANCH  47  48
ENDBRANCH  45  47
ENDBRANCH  42  43
BRANCH  42  52
ATOM     52  CB  LEU A   8      -4.725  -4.968 137.134  0.00  0.00    +0.000 C 
BRANCH  52  53
ATOM     53  CG  LEU A   8      -4.732  -6.021 138.231  0.00  0.00    +0.000 C 
ATOM     54  CD1 LEU A   8      -4.125  -5.490 139.475  0.00  0.00    +0.000 C 
ATOM     55  CD2 LEU A   8      -6.062  -6.329 138.818  0.00  0.00    +0.000 C 
ENDBRANCH  52  53
ENDBRANCH  42  52
ENDBRANCH  40  42
ENDBRANCH  37  38
ENDBRANCH  14  31
BRANCH   9  56
ATOM     56  N   MET A   1      -3.825   1.774 127.107  0.00  0.00    +0.000 NA
ATOM     57  H1  MET A   1      -3.921   2.518 127.772  0.00  0.00    +0.000 HD
ATOM     58  H2  MET A   1      -3.306   2.114 126.286  0.00  0.00    +0.000 HD
ENDBRANCH   9  56
BRANCH   1  59
ATOM     59  CB  ILE A   3     -10.097   5.624 130.740  0.00  0.00    +0.000 C 
ATOM     60  CG2 ILE A   3     -11.685   6.031 132.110  0.00  0.00    +0.000 C 
BRANCH  59  62
ATOM     61  CD1 ILE A   3     -11.347   6.389 131.924  0.00  0.00    +0.000 C 
ATOM     62  CG1 ILE A   3     -11.455   5.945 130.548  0.00  0.00    +0.000 C 
ENDBRANCH  59  62
ENDBRANCH   1  59
BRANCH  18  63
ATOM     63  CB  ASN A   5      -7.292   2.431 130.254  0.00  0.00    +0.000 C 
BRANCH  63  64
ATOM     64  CG  ASN A   5      -5.978   2.753 130.853  0.00  0.00    +0.000 C 
ATOM     65  ND2 ASN A   5      -5.176   1.994 131.723  0.00  0.00    +0.000 N 
ATOM     66  OD1 ASN A   5      -5.782   3.817 130.264  0.00  0.00    +0.000 OA
ATOM     67 HD21 ASN A   5      -5.353   0.983 131.624  0.00  0.00    +0.000 HD
ATOM     68 HD22 ASN A   5      -4.157   1.860 131.506  0.00  0.00    +0.000 HD
ENDBRANCH  63  64
ENDBRANCH  18  63
BRANCH   5  69
ATOM     69  CB  TYR A   2      -7.661   2.626 124.409  0.00  0.00    +0.000 C 
BRANCH  69  70
ATOM     70  CG  TYR A   2      -7.775   3.058 122.967  0.00  0.00    +0.000 A 
ATOM     71  CD1 TYR A   2      -8.921   3.020 122.122  0.00  0.00    +0.000 A 
ATOM     72  CE1 TYR A   2      -8.845   3.499 120.817  0.00  0.00    +0.000 A 
ATOM     73  CZ  TYR A   2      -7.615   3.935 120.347  0.00  0.00    +0.000 A 
ATOM     74  CE2 TYR A   2      -6.475   3.829 121.125  0.00  0.00    +0.000 A 
ATOM     75  CD2 TYR A   2      -6.559   3.395 122.421  0.00  0.00    +0.000 A 
BRANCH  73  76
ATOM     76  OH  TYR A   2      -7.432   4.496 119.123  0.00  0.00    +0.000 OA
ATOM     77  HH  TYR A   2      -7.821   3.943 118.429  0.00  0.00    +0.000 HD
ENDBRANCH  73  76
ENDBRANCH  69  70
ENDBRANCH   5  69
BRANCH  22  78
ATOM     78  CB  GLN A   4      -8.653   4.935 133.448  0.00  0.00    +0.000 C 
BRANCH  78  79
ATOM     79  CG  GLN A   4      -7.652   5.640 134.329  0.00  0.00    +0.000 C 
BRANCH  79  80
ATOM     80  CD  GLN A   4      -6.213   5.433 134.614  0.00  0.00    +0.000 C 
ATOM     81  NE2 GLN A   4      -6.114   4.227 135.169  0.00  0.00    +0.000 N 
ATOM     82  OE1 GLN A   4      -5.295   6.231 134.488  0.00  0.00    +0.000 OA
ATOM     83 HE21 GLN A   4      -6.955   3.681 135.286  0.00  0.00    +0.000 HD
ATOM     84 HE22 GLN A   4      -5.196   3.906 135.363  0.00  0.00    +0.000 HD
ENDBRANCH  79  80
ENDBRANCH  78  79
ENDBRANCH  22  78
TORSDOF 20
ENDMDL
MODEL 8
REMARK VINA RESULT:      -7.8      3.576     12.181
REMARK  Name = CHEMBL2369425
REMARK  24 active torsions:
REMARK  status: ('A' for Active; 'I' for Inactive)
REMARK    1  A    between atoms: CD1_1  and  CG1_2
REMARK    2  A    between atoms: CG1_2  and  CB_3
REMARK    3  A    between atoms: CB_3  and  CG2_4
REMARK    4  A    between atoms: CB_3  and  CA_5
REMARK    5  A    between atoms: CA_9  and  CB_10
REMARK    6  A    between atoms: CB_10  and  CG_11
REMARK    7  A    between atoms: CZ_14  and  OH_15
REMARK    8  A    between atoms: CA_21  and  N_22
REMARK    9  A    between atoms: CA_27  and  C_28
REMARK   10  A    between atoms: CA_34  and  C_35
REMARK   11  A    between atoms: N_37  and  CA_38
REMARK   12  A    between atoms: CA_38  and  CB_39
REMARK   13  A    between atoms: CA_38  and  C_43
REMARK   14  A    between atoms: CB_39  and  CG_40
REMARK   15  A    between atoms: CG_40  and  CD1_41
REMARK   16  A    between atoms: CG_40  and  CD2_42
REMARK   17  A    between atoms: N_45  and  CA_46
REMARK   18  A    between atoms: CA_46  and  C_47
REMARK   19  A    between atoms: C_47  and  OXT_49
REMARK   20  A    between atoms: CA_53  and  CB_54
REMARK   21  A    between atoms: CB_54  and  CG_55
REMARK   22  A    between atoms: CA_61  and  CB_62
REMARK   23  A    between atoms: CB_62  and  CG_63
REMARK   24  A    between atoms: CG_63  and  CD_64
REMARK                            x       y       z     vdW  Elec       q    Type
REMARK                         _______ _______ _______ _____ _____    ______ ____
ROOT
ATOM      1  CA  ILE A   3      -6.169  -1.824 129.442  0.00  0.00    +0.000 C 
ATOM      2  N   ILE A   3      -6.993  -0.409 128.062  0.00  0.00    +0.000 N 
ATOM      3  C   TYR A   2      -8.003   1.090 127.269  0.00  0.00    +0.000 C 
ATOM      4  O   TYR A   2      -9.310   1.213 127.042  0.00  0.00    +0.000 OA
ATOM      5  CA  TYR A   2      -7.732   2.913 126.302  0.00  0.00    +0.000 C 
ATOM      6  N   TYR A   2      -7.616   4.404 126.895  0.00  0.00    +0.000 N 
ATOM      7  C   MET A   1      -7.977   4.583 128.184  0.00  0.00    +0.000 C 
ATOM      8  O   MET A   1      -7.777   5.595 128.834  0.00  0.00    +0.000 OA
ATOM      9  CA  MET A   1      -8.508   3.357 128.787  0.00  0.00    +0.000 C 
ATOM     10  CB  MET A   1      -7.533   2.709 129.651  0.00  0.00    +0.000 C 
ATOM     11  CG  MET A   1      -7.480   3.600 130.845  0.00  0.00    +0.000 C 
ATOM     12  SG  CYS A   6      -5.998   3.527 131.720  0.00  0.00    +0.000 S 
ATOM     13  CB  CYS A   6      -6.273   3.769 133.468  0.00  0.00    +0.000 C 
ATOM     14  CA  CYS A   6      -5.246   3.186 134.431  0.00  0.00    +0.000 C 
ATOM     15  N   CYS A   6      -5.695   1.860 134.875  0.00  0.00    +0.000 N 
ATOM     16  C   ASN A   5      -5.955   0.845 134.062  0.00  0.00    +0.000 C 
ATOM     17  O   ASN A   5      -6.370  -0.203 134.524  0.00  0.00    +0.000 OA
ATOM     18  CA  ASN A   5      -5.571   1.086 132.658  0.00  0.00    +0.000 C 
ATOM     19  N   ASN A   5      -4.418   0.371 132.580  0.00  0.00    +0.000 N 
ATOM     20  C   GLN A   4      -4.950  -0.578 131.928  0.00  0.00    +0.000 C 
ATOM     21  O   GLN A   4      -4.099  -0.522 130.945  0.00  0.00    +0.000 OA
ATOM     22  CA  GLN A   4      -6.326  -1.785 132.542  0.00  0.00    +0.000 C 
ATOM     23  N   GLN A   4      -7.280  -2.688 131.516  0.00  0.00    +0.000 N 
ATOM     24  C   ILE A   3      -6.915  -3.085 130.205  0.00  0.00    +0.000 C 
ATOM     25  O   ILE A   3      -6.760  -4.284 129.923  0.00  0.00    +0.000 OA
ATOM     26  H   ILE A   3      -7.882  -0.576 127.326  0.00  0.00    +0.000 HD
ATOM     27  H   TYR A   2      -7.331   5.319 126.454  0.00  0.00    +0.000 HD
ATOM     28  H   CYS A   6      -5.908   1.658 135.845  0.00  0.00    +0.000 HD
ATOM     29  H   ASN A   5      -3.606   0.603 131.956  0.00  0.00    +0.000 HD
ATOM     30  H   GLN A   4      -8.045  -2.142 131.246  0.00  0.00    +0.000 HD
ENDROOT
BRANCH  14  31
ATOM     31  C   CYS A   6      -5.070   4.080 135.657  0.00  0.00    +0.000 C 
ATOM     32  O   CYS A   6      -5.365   3.498 136.702  0.00  0.00    +0.000 OA
ATOM     33  N   PRO A   7      -4.463   5.348 135.510  0.00  0.00    +0.000 N 
ATOM     34  CD  PRO A   7      -4.751   6.337 134.490  0.00  0.00    +0.000 C 
ATOM     35  CG  PRO A   7      -3.426   7.008 134.269  0.00  0.00    +0.000 C 
ATOM     36  CB  PRO A   7      -2.931   7.215 135.673  0.00  0.00    +0.000 C 
ATOM     37  CA  PRO A   7      -3.549   6.069 136.476  0.00  0.00    +0.000 C 
BRANCH  37  38
ATOM     38  C   PRO A   7      -4.279   6.971 137.536  0.00  0.00    +0.000 C 
ATOM     39  O   PRO A   7      -4.088   8.192 137.508  0.00  0.00    +0.000 OA
ATOM     40  N   LEU A   8      -5.331   6.361 138.271  0.00  0.00    +0.000 N 
ATOM     41  H   LEU A   8      -5.412   5.349 138.364  0.00  0.00    +0.000 HD
BRANCH  40  42
ATOM     42  CA  LEU A   8      -6.486   7.151 138.836  0.00  0.00    +0.000 C 
BRANCH  42  43
ATOM     43  C   LEU A   8      -6.739   6.743 140.327  0.00  0.00    +0.000 C 
ATOM     44  O   LEU A   8      -6.762   7.607 141.209  0.00  0.00    +0.000 OA
ATOM     45  N   GLY A   9      -6.929   5.404 140.636  0.00  0.00    +0.000 N 
ATOM     46  H   GLY A   9      -6.903   4.674 139.925  0.00  0.00    +0.000 HD
BRANCH  45  47
ATOM     47  CA  GLY A   9      -7.190   4.943 142.020  0.00  0.00    +0.000 C 
BRANCH  47  48
ATOM     48  C   GLY A   9      -8.159   3.754 142.046  0.00  0.00    +0.000 C 
ATOM     49  O   GLY A   9      -9.298   3.837 141.597  0.00  0.00    +0.000 OA
BRANCH  48  50
ATOM     50  OXT GLY A   9      -7.712   2.596 142.586  0.00  0.00    +0.000 OA
ATOM     51  HXT GLY A   9      -8.273   2.078 143.193  0.00  0.00    +0.000 HD
ENDBRANCH  48  50
ENDBRANCH  47  48
ENDBRANCH  45  47
ENDBRANCH  42  43
BRANCH  42  52
ATOM     52  CB  LEU A   8      -7.829   7.004 138.061  0.00  0.00    +0.000 C 
BRANCH  52  53
ATOM     53  CG  LEU A   8      -8.310   8.285 137.396  0.00  0.00    +0.000 C 
ATOM     54  CD1 LEU A   8      -9.677   8.634 137.849  0.00  0.00    +0.000 C 
ATOM     55  CD2 LEU A   8      -7.658   9.535 137.865  0.00  0.00    +0.000 C 
ENDBRANCH  52  53
ENDBRANCH  42  52
ENDBRANCH  40  42
ENDBRANCH  37  38
ENDBRANCH  14  31
BRANCH   9  56
ATOM     56  N   MET A   1      -9.875   3.350 129.224  0.00  0.00    +0.000 NA
ATOM     57  H1  MET A   1     -10.369   2.918 128.465  0.00  0.00    +0.000 HD
ATOM     58  H2  MET A   1     -10.189   4.326 129.324  0.00  0.00    +0.000 HD
ENDBRANCH   9  56
BRANCH   1  59
ATOM     59  CB  ILE A   3      -4.961  -2.989 130.963  0.00  0.00    +0.000 C 
ATOM     60  CG2 ILE A   3      -3.548  -4.215 131.994  0.00  0.00    +0.000 C 
BRANCH  59  62
ATOM     61  CD1 ILE A   3      -3.821  -4.173 131.885  0.00  0.00    +0.000 C 
ATOM     62  CG1 ILE A   3      -3.764  -3.607 130.552  0.00  0.00    +0.000 C 
ENDBRANCH  59  62
ENDBRANCH   1  59
BRANCH  18  63
ATOM     63  CB  ASN A   5      -6.714   0.844 131.691  0.00  0.00    +0.000 C 
BRANCH  63  64
ATOM     64  CG  ASN A   5      -8.070   0.857 132.284  0.00  0.00    +0.000 C 
ATOM     65  ND2 ASN A   5      -8.656   1.780 133.169  0.00  0.00    +0.000 N 
ATOM     66  OD1 ASN A   5      -8.528  -0.109 131.673  0.00  0.00    +0.000 OA
ATOM     67 HD21 ASN A   5      -8.225   2.713 133.089  0.00  0.00    +0.000 HD
ATOM     68 HD22 ASN A   5      -9.605   2.174 132.954  0.00  0.00    +0.000 HD
ENDBRANCH  63  64
ENDBRANCH  18  63
BRANCH   5  69
ATOM     69  CB  TYR A   2      -6.490   2.330 126.027  0.00  0.00    +0.000 C 
BRANCH  69  70
ATOM     70  CG  TYR A   2      -6.237   2.892 124.648  0.00  0.00    +0.000 A 
ATOM     71  CD1 TYR A   2      -5.383   3.970 124.277  0.00  0.00    +0.000 A 
ATOM     72  CE1 TYR A   2      -5.249   4.327 122.939  0.00  0.00    +0.000 A 
ATOM     73  CZ  TYR A   2      -6.021   3.661 121.999  0.00  0.00    +0.000 A 
ATOM     74  CE2 TYR A   2      -6.958   2.717 122.384  0.00  0.00    +0.000 A 
ATOM     75  CD2 TYR A   2      -7.060   2.339 123.696  0.00  0.00    +0.000 A 
BRANCH  73  76
ATOM     76  OH  TYR A   2      -5.919   3.865 120.659  0.00  0.00    +0.000 OA
ATOM     77  HH  TYR A   2      -5.561   3.081 120.218  0.00  0.00    +0.000 HD
ENDBRANCH  73  76
ENDBRANCH  69  70
ENDBRANCH   5  69
BRANCH  22  78
ATOM     78  CB  GLN A   4      -6.107  -2.780 133.886  0.00  0.00    +0.000 C 
BRANCH  78  79
ATOM     79  CG  GLN A   4      -6.893  -4.050 134.092  0.00  0.00    +0.000 C 
BRANCH  79  80
ATOM     80  CD  GLN A   4      -8.120  -4.384 134.853  0.00  0.00    +0.000 C 
ATOM     81  NE2 GLN A   4      -8.957  -3.364 134.674  0.00  0.00    +0.000 N 
ATOM     82  OE1 GLN A   4      -8.313  -5.335 135.598  0.00  0.00    +0.000 OA
ATOM     83 HE21 GLN A   4      -8.661  -2.597 134.089  0.00  0.00    +0.000 HD
ATOM     84 HE22 GLN A   4      -9.861  -3.462 135.071  0.00  0.00    +0.000 HD
ENDBRANCH  79  80
ENDBRANCH  78  79
ENDBRANCH  22  78
TORSDOF 20
ENDMDL
MODEL 9
REMARK VINA RESULT:      -7.8      3.641     10.746
REMARK  Name = CHEMBL2369425
REMARK  24 active torsions:
REMARK  status: ('A' for Active; 'I' for Inactive)
REMARK    1  A    between atoms: CD1_1  and  CG1_2
REMARK    2  A    between atoms: CG1_2  and  CB_3
REMARK    3  A    between atoms: CB_3  and  CG2_4
REMARK    4  A    between atoms: CB_3  and  CA_5
REMARK    5  A    between atoms: CA_9  and  CB_10
REMARK    6  A    between atoms: CB_10  and  CG_11
REMARK    7  A    between atoms: CZ_14  and  OH_15
REMARK    8  A    between atoms: CA_21  and  N_22
REMARK    9  A    between atoms: CA_27  and  C_28
REMARK   10  A    between atoms: CA_34  and  C_35
REMARK   11  A    between atoms: N_37  and  CA_38
REMARK   12  A    between atoms: CA_38  and  CB_39
REMARK   13  A    between atoms: CA_38  and  C_43
REMARK   14  A    between atoms: CB_39  and  CG_40
REMARK   15  A    between atoms: CG_40  and  CD1_41
REMARK   16  A    between atoms: CG_40  and  CD2_42
REMARK   17  A    between atoms: N_45  and  CA_46
REMARK   18  A    between atoms: CA_46  and  C_47
REMARK   19  A    between atoms: C_47  and  OXT_49
REMARK   20  A    between atoms: CA_53  and  CB_54
REMARK   21  A    between atoms: CB_54  and  CG_55
REMARK   22  A    between atoms: CA_61  and  CB_62
REMARK   23  A    between atoms: CB_62  and  CG_63
REMARK   24  A    between atoms: CG_63  and  CD_64
REMARK                            x       y       z     vdW  Elec       q    Type
REMARK                         _______ _______ _______ _____ _____    ______ ____
ROOT
ATOM      1  CA  ILE A   3      -5.797   3.544 129.184  0.00  0.00    +0.000 C 
ATOM      2  N   ILE A   3      -6.307   2.398 127.448  0.00  0.00    +0.000 N 
ATOM      3  C   TYR A   2      -6.513   0.927 126.147  0.00  0.00    +0.000 C 
ATOM      4  O   TYR A   2      -5.605   0.350 125.361  0.00  0.00    +0.000 OA
ATOM      5  CA  TYR A   2      -7.962  -0.242 125.219  0.00  0.00    +0.000 C 
ATOM      6  N   TYR A   2      -8.601  -1.655 125.651  0.00  0.00    +0.000 N 
ATOM      7  C   MET A   1      -7.969  -2.341 126.627  0.00  0.00    +0.000 C 
ATOM      8  O   MET A   1      -8.417  -3.325 127.194  0.00  0.00    +0.000 OA
ATOM      9  CA  MET A   1      -6.731  -1.685 127.056  0.00  0.00    +0.000 C 
ATOM     10  CB  MET A   1      -6.898  -0.983 128.320  0.00  0.00    +0.000 C 
ATOM     11  CG  MET A   1      -6.984  -2.085 129.321  0.00  0.00    +0.000 C 
ATOM     12  SG  CYS A   6      -7.840  -1.671 130.758  0.00  0.00    +0.000 S 
ATOM     13  CB  CYS A   6      -7.155  -2.514 132.176  0.00  0.00    +0.000 C 
ATOM     14  CA  CYS A   6      -7.362  -1.876 133.545  0.00  0.00    +0.000 C 
ATOM     15  N   CYS A   6      -6.194  -1.052 133.878  0.00  0.00    +0.000 N 
ATOM     16  C   ASN A   5      -5.751  -0.043 133.139  0.00  0.00    +0.000 C 
ATOM     17  O   ASN A   5      -4.743   0.550 133.475  0.00  0.00    +0.000 OA
ATOM     18  CA  ASN A   5      -6.649   0.327 132.028  0.00  0.00    +0.000 C 
ATOM     19  N   ASN A   5      -7.241   1.441 132.534  0.00  0.00    +0.000 N 
ATOM     20  C   GLN A   4      -6.560   2.233 131.813  0.00  0.00    +0.000 C 
ATOM     21  O   GLN A   4      -7.598   2.828 131.301  0.00  0.00    +0.000 OA
ATOM     22  CA  GLN A   4      -4.652   2.521 131.882  0.00  0.00    +0.000 C 
ATOM     23  N   GLN A   4      -3.783   3.211 130.638  0.00  0.00    +0.000 N 
ATOM     24  C   ILE A   3      -4.316   4.094 129.666  0.00  0.00    +0.000 C 
ATOM     25  O   ILE A   3      -3.937   5.275 129.602  0.00  0.00    +0.000 OA
ATOM     26  H   ILE A   3      -5.760   2.394 126.419  0.00  0.00    +0.000 HD
ATOM     27  H   TYR A   2      -9.433  -2.193 125.290  0.00  0.00    +0.000 HD
ATOM     28  H   CYS A   6      -5.597  -1.255 134.671  0.00  0.00    +0.000 HD
ATOM     29  H   ASN A   5      -8.215   1.762 132.308  0.00  0.00    +0.000 HD
ATOM     30  H   GLN A   4      -3.535   2.507 130.008  0.00  0.00    +0.000 HD
ENDROOT
BRANCH  14  31
ATOM     31  C   CYS A   6      -7.538  -2.939 134.627  0.00  0.00    +0.000 C 
ATOM     32  O   CYS A   6      -8.657  -2.896 135.141  0.00  0.00    +0.000 OA
ATOM     33  N   PRO A   7      -6.534  -3.917 134.810  0.00  0.00    +0.000 N 
ATOM     34  CD  PRO A   7      -5.104  -3.692 134.879  0.00  0.00    +0.000 C 
ATOM     35  CG  PRO A   7      -4.525  -4.938 134.270  0.00  0.00    +0.000 C 
ATOM     36  CB  PRO A   7      -5.343  -6.021 134.914  0.00  0.00    +0.000 C 
ATOM     37  CA  PRO A   7      -6.699  -5.371 135.195  0.00  0.00    +0.000 C 
BRANCH  37  38
ATOM     38  C   PRO A   7      -6.714  -5.653 136.740  0.00  0.00    +0.000 C 
ATOM     39  O   PRO A   7      -5.735  -6.208 137.251  0.00  0.00    +0.000 OA
ATOM     40  N   LEU A   8      -7.721  -4.996 137.496  0.00  0.00    +0.000 N 
ATOM     41  H   LEU A   8      -8.571  -4.632 137.067  0.00  0.00    +0.000 HD
BRANCH  40  42
ATOM     42  CA  LEU A   8      -7.543  -4.651 138.954  0.00  0.00    +0.000 C 
BRANCH  42  43
ATOM     43  C   LEU A   8      -8.940  -4.529 139.654  0.00  0.00    +0.000 C 
ATOM     44  O   LEU A   8      -9.020  -4.564 140.885  0.00  0.00    +0.000 OA
ATOM     45  N   GLY A   9     -10.075  -4.388 138.869  0.00  0.00    +0.000 N 
ATOM     46  H   GLY A   9     -10.032  -4.368 137.851  0.00  0.00    +0.000 HD
BRANCH  45  47
ATOM     47  CA  GLY A   9     -11.428  -4.250 139.458  0.00  0.00    +0.000 C 
BRANCH  47  48
ATOM     48  C   GLY A   9     -12.286  -3.249 138.673  0.00  0.00    +0.000 C 
ATOM     49  O   GLY A   9     -13.431  -2.969 139.018  0.00  0.00    +0.000 OA
BRANCH  48  50
ATOM     50  OXT GLY A   9     -11.735  -2.680 137.576  0.00  0.00    +0.000 OA
ATOM     51  HXT GLY A   9     -11.663  -3.175 136.739  0.00  0.00    +0.000 HD
ENDBRANCH  48  50
ENDBRANCH  47  48
ENDBRANCH  45  47
ENDBRANCH  42  43
BRANCH  42  52
ATOM     52  CB  LEU A   8      -6.748  -3.340 139.231  0.00  0.00    +0.000 C 
BRANCH  52  53
ATOM     53  CG  LEU A   8      -7.286  -2.119 138.501  0.00  0.00    +0.000 C 
ATOM     54  CD1 LEU A   8      -7.583  -1.023 139.453  0.00  0.00    +0.000 C 
ATOM     55  CD2 LEU A   8      -6.293  -1.366 137.690  0.00  0.00    +0.000 C 
ENDBRANCH  52  53
ENDBRANCH  42  52
ENDBRANCH  40  42
ENDBRANCH  37  38
ENDBRANCH  14  31
BRANCH   9  56
ATOM     56  N   MET A   1      -5.489  -2.373 126.850  0.00  0.00    +0.000 NA
ATOM     57  H1  MET A   1      -5.198  -2.630 127.775  0.00  0.00    +0.000 HD
ATOM     58  H2  MET A   1      -4.812  -1.708 126.451  0.00  0.00    +0.000 HD
ENDBRANCH   9  56
BRANCH   1  59
ATOM     59  CB  ILE A   3      -5.672   4.591 131.188  0.00  0.00    +0.000 C 
ATOM     60  CG2 ILE A   3      -5.852   5.918 132.854  0.00  0.00    +0.000 C 
BRANCH  59  62
ATOM     61  CD1 ILE A   3      -5.591   5.892 132.550  0.00  0.00    +0.000 C 
ATOM     62  CG1 ILE A   3      -6.476   5.727 131.414  0.00  0.00    +0.000 C 
ENDBRANCH  59  62
ENDBRANCH   1  59
BRANCH  18  63
ATOM     63  CB  ASN A   5      -5.939   0.352 130.688  0.00  0.00    +0.000 C 
BRANCH  63  64
ATOM     64  CG  ASN A   5      -4.602  -0.281 130.659  0.00  0.00    +0.000 C 
ATOM     65  ND2 ASN A   5      -4.132  -1.422 131.334  0.00  0.00    +0.000 N 
ATOM     66  OD1 ASN A   5      -4.098   0.432 129.790  0.00  0.00    +0.000 OA
ATOM     67 HD21 ASN A   5      -4.897  -2.072 131.565  0.00  0.00    +0.000 HD
ATOM     68 HD22 ASN A   5      -3.626  -2.170 130.798  0.00  0.00    +0.000 HD
ENDBRANCH  63  64
ENDBRANCH  18  63
BRANCH   5  69
ATOM     69  CB  TYR A   2      -8.757   0.854 125.575  0.00  0.00    +0.000 C 
BRANCH  69  70
ATOM     70  CG  TYR A   2      -8.872   1.539 124.234  0.00  0.00    +0.000 A 
ATOM     71  CD1 TYR A   2      -9.637   1.140 123.101  0.00  0.00    +0.000 A 
ATOM     72  CE1 TYR A   2      -9.647   1.926 121.952  0.00  0.00    +0.000 A 
ATOM     73  CZ  TYR A   2      -8.841   3.053 121.918  0.00  0.00    +0.000 A 
ATOM     74  CE2 TYR A   2      -7.988   3.353 122.967  0.00  0.00    +0.000 A 
ATOM     75  CD2 TYR A   2      -8.008   2.601 124.111  0.00  0.00    +0.000 A 
BRANCH  73  76
ATOM     76  OH  TYR A   2      -8.827   3.939 120.887  0.00  0.00    +0.000 OA
ATOM     77  HH  TYR A   2      -7.969   3.932 120.439  0.00  0.00    +0.000 HD
ENDBRANCH  73  76
ENDBRANCH  69  70
ENDBRANCH   5  69
BRANCH  22  78
ATOM     78  CB  GLN A   4      -3.881   3.068 133.278  0.00  0.00    +0.000 C 
BRANCH  78  79
ATOM     79  CG  GLN A   4      -2.483   3.632 133.266  0.00  0.00    +0.000 C 
BRANCH  79  80
ATOM     80  CD  GLN A   4      -1.916   4.961 132.939  0.00  0.00    +0.000 C 
ATOM     81  NE2 GLN A   4      -1.930   5.659 134.073  0.00  0.00    +0.000 N 
ATOM     82  OE1 GLN A   4      -1.602   5.401 131.842  0.00  0.00    +0.000 OA
ATOM     83 HE21 GLN A   4      -2.277   5.212 134.908  0.00  0.00    +0.000 HD
ATOM     84 HE22 GLN A   4      -1.518   6.561 134.039  0.00  0.00    +0.000 HD
ENDBRANCH  79  80
ENDBRANCH  78  79
ENDBRANCH  22  78
TORSDOF 20
ENDMDL
