MODEL 1
REMARK VINA RESULT:     -10.7      0.000      0.000
REMARK  Name = CHEMBL25502
REMARK  6 active torsions:
REMARK  status: ('A' for Active; 'I' for Inactive)
REMARK    1  A    between atoms: C_1  and  C_2
REMARK    2  A    between atoms: C_7  and  O_8
REMARK    3  A    between atoms: O_8  and  C_9
REMARK    4  A    between atoms: C_12  and  C_13
REMARK    5  A    between atoms: C_13  and  C_14
REMARK    6  A    between atoms: C_19  and  N_20
REMARK                            x       y       z     vdW  Elec       q    Type
REMARK                         _______ _______ _______ _____ _____    ______ ____
ROOT
ATOM      1  C   UNL     1      -4.087   3.643 131.186  0.00  0.00    +0.000 C 
ATOM      2  O   UNL     1      -3.186   4.245 131.775  0.00  0.00    +0.000 OA
ATOM      3  N   UNL     1      -5.322   4.290 131.078  0.00  0.00    +0.000 N 
ATOM      4  C   UNL     1      -5.324   5.740 130.921  0.00  0.00    +0.000 C 
ATOM      5  C   UNL     1      -6.148   6.460 131.964  0.00  0.00    +0.000 C 
ATOM      6  C   UNL     1      -7.821   6.062 131.791  0.00  0.00    +0.000 C 
ATOM      7  C   UNL     1      -7.527   4.439 132.251  0.00  0.00    +0.000 C 
ATOM      8  C   UNL     1      -6.631   3.666 131.259  0.00  0.00    +0.000 C 
ENDROOT
BRANCH   6   9
ATOM      9  N   UNL     1      -8.995   6.842 130.634  0.00  0.00    +0.000 N 
ATOM     10  C   UNL     1      -9.967   6.372 131.659  0.00  0.00    +0.000 C 
ATOM     11  O   UNL     1      -9.877   6.297 132.919  0.00  0.00    +0.000 OA
ATOM     12  O   UNL     1     -11.059   5.828 131.191  0.00  0.00    +0.000 OA
ATOM     13  C   UNL     1     -11.944   6.863 131.428  0.00  0.00    +0.000 C 
ATOM     14  C   UNL     1     -11.758   7.490 130.131  0.00  0.00    +0.000 A 
ATOM     15  C   UNL     1     -13.144   7.850 129.605  0.00  0.00    +0.000 A 
ATOM     16  C   UNL     1     -13.419   8.312 128.363  0.00  0.00    +0.000 A 
ATOM     17  C   UNL     1     -12.225   8.553 127.719  0.00  0.00    +0.000 A 
ATOM     18  C   UNL     1     -10.730   8.193 128.323  0.00  0.00    +0.000 A 
ATOM     19  C   UNL     1     -10.387   7.542 129.652  0.00  0.00    +0.000 A 
ENDBRANCH   6   9
BRANCH   1  20
ATOM     20  C   UNL     1      -3.888   2.284 130.433  0.00  0.00    +0.000 C 
BRANCH  20  24
ATOM     21  C   UNL     1      -5.204   2.229 126.242  0.00  0.00    +0.000 A 
ATOM     22  C   UNL     1      -4.056   2.931 126.603  0.00  0.00    +0.000 A 
ATOM     23  C   UNL     1      -3.570   2.876 127.937  0.00  0.00    +0.000 A 
ATOM     24  C   UNL     1      -4.287   2.206 128.952  0.00  0.00    +0.000 A 
ATOM     25  C   UNL     1      -5.388   1.475 128.530  0.00  0.00    +0.000 A 
ATOM     26  C   UNL     1      -5.803   1.450 127.210  0.00  0.00    +0.000 A 
BRANCH  21  27
ATOM     27  O   UNL     1      -5.597   2.150 124.935  0.00  0.00    +0.000 OA
BRANCH  27  34
ATOM     28  C   UNL     1      -5.471   4.967 119.755  0.00  0.00    +0.000 C 
ATOM     29  C   UNL     1      -6.552   4.263 120.545  0.00  0.00    +0.000 C 
ATOM     30  O   UNL     1      -7.696   4.172 120.101  0.00  0.00    +0.000 OA
ATOM     31  N   UNL     1      -6.138   3.606 121.693  0.00  0.00    +0.000 N 
ATOM     32  C   UNL     1      -6.766   2.354 122.078  0.00  0.00    +0.000 C 
ATOM     33  C   UNL     1      -7.578   2.514 123.360  0.00  0.00    +0.000 C 
ATOM     34  C   UNL     1      -6.687   3.010 124.514  0.00  0.00    +0.000 C 
ATOM     35  C   UNL     1      -6.051   4.341 124.052  0.00  0.00    +0.000 C 
ATOM     36  C   UNL     1      -5.286   4.193 122.720  0.00  0.00    +0.000 C 
ENDBRANCH  27  34
ENDBRANCH  21  27
ENDBRANCH  20  24
ENDBRANCH   1  20
TORSDOF 5
ENDMDL
MODEL 2
REMARK VINA RESULT:     -10.4      1.694      2.365
REMARK  Name = CHEMBL25502
REMARK  6 active torsions:
REMARK  status: ('A' for Active; 'I' for Inactive)
REMARK    1  A    between atoms: C_1  and  C_2
REMARK    2  A    between atoms: C_7  and  O_8
REMARK    3  A    between atoms: O_8  and  C_9
REMARK    4  A    between atoms: C_12  and  C_13
REMARK    5  A    between atoms: C_13  and  C_14
REMARK    6  A    between atoms: C_19  and  N_20
REMARK                            x       y       z     vdW  Elec       q    Type
REMARK                         _______ _______ _______ _____ _____    ______ ____
ROOT
ATOM      1  C   UNL     1      -3.619   5.001 130.762  0.00  0.00    +0.000 C 
ATOM      2  O   UNL     1      -3.012   5.727 131.552  0.00  0.00    +0.000 OA
ATOM      3  N   UNL     1      -4.989   5.235 130.601  0.00  0.00    +0.000 N 
ATOM      4  C   UNL     1      -5.461   6.613 130.681  0.00  0.00    +0.000 C 
ATOM      5  C   UNL     1      -6.548   6.821 131.711  0.00  0.00    +0.000 C 
ATOM      6  C   UNL     1      -7.977   5.960 131.261  0.00  0.00    +0.000 C 
ATOM      7  C   UNL     1      -7.193   4.454 131.487  0.00  0.00    +0.000 C 
ATOM      8  C   UNL     1      -6.025   4.210 130.508  0.00  0.00    +0.000 C 
ENDROOT
BRANCH   6   9
ATOM      9  N   UNL     1      -9.260   6.543 130.103  0.00  0.00    +0.000 N 
ATOM     10  C   UNL     1     -10.126   6.278 131.285  0.00  0.00    +0.000 C 
ATOM     11  O   UNL     1      -9.912   6.426 132.523  0.00  0.00    +0.000 OA
ATOM     12  O   UNL     1     -11.259   5.678 131.030  0.00  0.00    +0.000 OA
ATOM     13  C   UNL     1     -12.116   6.754 131.163  0.00  0.00    +0.000 C 
ATOM     14  C   UNL     1     -12.059   7.138 129.764  0.00  0.00    +0.000 A 
ATOM     15  C   UNL     1     -13.491   7.422 129.319  0.00  0.00    +0.000 A 
ATOM     16  C   UNL     1     -13.887   7.662 128.047  0.00  0.00    +0.000 A 
ATOM     17  C   UNL     1     -12.762   7.764 127.258  0.00  0.00    +0.000 A 
ATOM     18  C   UNL     1     -11.215   7.492 127.768  0.00  0.00    +0.000 A 
ATOM     19  C   UNL     1     -10.742   7.081 129.152  0.00  0.00    +0.000 A 
ENDBRANCH   6   9
BRANCH   1  20
ATOM     20  C   UNL     1      -2.928   3.947 129.832  0.00  0.00    +0.000 C 
BRANCH  20  24
ATOM     21  C   UNL     1      -4.845   3.252 125.940  0.00  0.00    +0.000 A 
ATOM     22  C   UNL     1      -4.462   4.539 126.308  0.00  0.00    +0.000 A 
ATOM     23  C   UNL     1      -3.756   4.760 127.521  0.00  0.00    +0.000 A 
ATOM     24  C   UNL     1      -3.520   3.708 128.434  0.00  0.00    +0.000 A 
ATOM     25  C   UNL     1      -3.868   2.439 127.995  0.00  0.00    +0.000 A 
ATOM     26  C   UNL     1      -4.466   2.215 126.768  0.00  0.00    +0.000 A 
BRANCH  21  27
ATOM     27  O   UNL     1      -5.388   3.004 124.710  0.00  0.00    +0.000 OA
BRANCH  27  34
ATOM     28  C   UNL     1      -9.806  -0.228 122.515  0.00  0.00    +0.000 C 
ATOM     29  C   UNL     1      -9.720   0.876 123.546  0.00  0.00    +0.000 C 
ATOM     30  O   UNL     1     -10.725   1.256 124.145  0.00  0.00    +0.000 OA
ATOM     31  N   UNL     1      -8.443   1.305 123.875  0.00  0.00    +0.000 N 
ATOM     32  C   UNL     1      -8.140   1.694 125.241  0.00  0.00    +0.000 C 
ATOM     33  C   UNL     1      -7.859   3.191 125.339  0.00  0.00    +0.000 C 
ATOM     34  C   UNL     1      -6.685   3.589 124.425  0.00  0.00    +0.000 C 
ATOM     35  C   UNL     1      -7.064   3.155 122.990  0.00  0.00    +0.000 C 
ATOM     36  C   UNL     1      -7.412   1.655 122.905  0.00  0.00    +0.000 C 
ENDBRANCH  27  34
ENDBRANCH  21  27
ENDBRANCH  20  24
ENDBRANCH   1  20
TORSDOF 5
ENDMDL
MODEL 3
REMARK VINA RESULT:     -10.1      2.578      3.430
REMARK  Name = CHEMBL25502
REMARK  6 active torsions:
REMARK  status: ('A' for Active; 'I' for Inactive)
REMARK    1  A    between atoms: C_1  and  C_2
REMARK    2  A    between atoms: C_7  and  O_8
REMARK    3  A    between atoms: O_8  and  C_9
REMARK    4  A    between atoms: C_12  and  C_13
REMARK    5  A    between atoms: C_13  and  C_14
REMARK    6  A    between atoms: C_19  and  N_20
REMARK                            x       y       z     vdW  Elec       q    Type
REMARK                         _______ _______ _______ _____ _____    ______ ____
ROOT
ATOM      1  C   UNL     1      -4.135   4.138 131.625  0.00  0.00    +0.000 C 
ATOM      2  O   UNL     1      -3.325   4.944 132.089  0.00  0.00    +0.000 OA
ATOM      3  N   UNL     1      -5.420   4.613 131.344  0.00  0.00    +0.000 N 
ATOM      4  C   UNL     1      -5.553   5.986 130.868  0.00  0.00    +0.000 C 
ATOM      5  C   UNL     1      -6.492   6.827 131.703  0.00  0.00    +0.000 C 
ATOM      6  C   UNL     1      -8.109   6.228 131.579  0.00  0.00    +0.000 C 
ATOM      7  C   UNL     1      -7.682   4.785 132.397  0.00  0.00    +0.000 C 
ATOM      8  C   UNL     1      -6.670   3.911 131.625  0.00  0.00    +0.000 C 
ENDROOT
BRANCH   6   9
ATOM      9  N   UNL     1      -9.295   6.610 130.247  0.00  0.00    +0.000 N 
ATOM     10  C   UNL     1     -10.262   6.416 131.363  0.00  0.00    +0.000 C 
ATOM     11  O   UNL     1     -10.183   6.703 132.593  0.00  0.00    +0.000 OA
ATOM     12  O   UNL     1     -11.331   5.725 131.066  0.00  0.00    +0.000 OA
ATOM     13  C   UNL     1     -12.251   6.754 130.999  0.00  0.00    +0.000 C 
ATOM     14  C   UNL     1     -12.071   6.995 129.579  0.00  0.00    +0.000 A 
ATOM     15  C   UNL     1     -13.462   7.145 128.971  0.00  0.00    +0.000 A 
ATOM     16  C   UNL     1     -13.739   7.228 127.648  0.00  0.00    +0.000 A 
ATOM     17  C   UNL     1     -12.546   7.317 126.964  0.00  0.00    +0.000 A 
ATOM     18  C   UNL     1     -11.047   7.193 127.647  0.00  0.00    +0.000 A 
ATOM     19  C   UNL     1     -10.698   6.956 129.106  0.00  0.00    +0.000 A 
ENDBRANCH   6   9
BRANCH   1  20
ATOM     20  C   UNL     1      -3.770   2.676 131.200  0.00  0.00    +0.000 C 
BRANCH  20  24
ATOM     21  C   UNL     1      -5.192   1.396 127.244  0.00  0.00    +0.000 A 
ATOM     22  C   UNL     1      -4.437   2.559 127.370  0.00  0.00    +0.000 A 
ATOM     23  C   UNL     1      -3.892   2.929 128.629  0.00  0.00    +0.000 A 
ATOM     24  C   UNL     1      -4.188   2.198 129.801  0.00  0.00    +0.000 A 
ATOM     25  C   UNL     1      -4.894   1.018 129.613  0.00  0.00    +0.000 A 
ATOM     26  C   UNL     1      -5.339   0.609 128.368  0.00  0.00    +0.000 A 
BRANCH  21  27
ATOM     27  O   UNL     1      -5.594   0.948 126.016  0.00  0.00    +0.000 OA
BRANCH  27  34
ATOM     28  C   UNL     1      -8.665  -3.654 123.973  0.00  0.00    +0.000 C 
ATOM     29  C   UNL     1      -8.967  -2.534 124.945  0.00  0.00    +0.000 C 
ATOM     30  O   UNL     1     -10.054  -2.476 125.518  0.00  0.00    +0.000 OA
ATOM     31  N   UNL     1      -7.907  -1.696 125.258  0.00  0.00    +0.000 N 
ATOM     32  C   UNL     1      -7.778  -1.163 126.602  0.00  0.00    +0.000 C 
ATOM     33  C   UNL     1      -8.004   0.346 126.623  0.00  0.00    +0.000 C 
ATOM     34  C   UNL     1      -7.004   1.062 125.695  0.00  0.00    +0.000 C 
ATOM     35  C   UNL     1      -7.189   0.459 124.283  0.00  0.00    +0.000 C 
ATOM     36  C   UNL     1      -7.026  -1.075 124.276  0.00  0.00    +0.000 C 
ENDBRANCH  27  34
ENDBRANCH  21  27
ENDBRANCH  20  24
ENDBRANCH   1  20
TORSDOF 5
ENDMDL
MODEL 4
REMARK VINA RESULT:      -9.9      3.201      3.948
REMARK  Name = CHEMBL25502
REMARK  6 active torsions:
REMARK  status: ('A' for Active; 'I' for Inactive)
REMARK    1  A    between atoms: C_1  and  C_2
REMARK    2  A    between atoms: C_7  and  O_8
REMARK    3  A    between atoms: O_8  and  C_9
REMARK    4  A    between atoms: C_12  and  C_13
REMARK    5  A    between atoms: C_13  and  C_14
REMARK    6  A    between atoms: C_19  and  N_20
REMARK                            x       y       z     vdW  Elec       q    Type
REMARK                         _______ _______ _______ _____ _____    ______ ____
ROOT
ATOM      1  C   UNL     1      -6.661   0.838 132.295  0.00  0.00    +0.000 C 
ATOM      2  O   UNL     1      -5.541   1.177 132.684  0.00  0.00    +0.000 OA
ATOM      3  N   UNL     1      -7.563   1.857 131.974  0.00  0.00    +0.000 N 
ATOM      4  C   UNL     1      -7.031   3.079 131.379  0.00  0.00    +0.000 C 
ATOM      5  C   UNL     1      -7.403   4.333 132.137  0.00  0.00    +0.000 C 
ATOM      6  C   UNL     1      -9.110   4.595 132.068  0.00  0.00    +0.000 C 
ATOM      7  C   UNL     1      -9.405   3.195 133.010  0.00  0.00    +0.000 C 
ATOM      8  C   UNL     1      -8.982   1.881 132.318  0.00  0.00    +0.000 C 
ENDROOT
BRANCH   6   9
ATOM      9  N   UNL     1     -10.017   5.404 130.710  0.00  0.00    +0.000 N 
ATOM     10  C   UNL     1     -10.703   6.057 131.859  0.00  0.00    +0.000 C 
ATOM     11  O   UNL     1     -10.264   6.434 132.985  0.00  0.00    +0.000 OA
ATOM     12  O   UNL     1     -12.002   6.157 131.757  0.00  0.00    +0.000 OA
ATOM     13  C   UNL     1     -12.100   7.505 131.468  0.00  0.00    +0.000 C 
ATOM     14  C   UNL     1     -12.048   7.332 130.028  0.00  0.00    +0.000 A 
ATOM     15  C   UNL     1     -13.137   8.219 129.431  0.00  0.00    +0.000 A 
ATOM     16  C   UNL     1     -13.519   8.231 128.132  0.00  0.00    +0.000 A 
ATOM     17  C   UNL     1     -12.651   7.430 127.421  0.00  0.00    +0.000 A 
ATOM     18  C   UNL     1     -11.451   6.508 128.082  0.00  0.00    +0.000 A 
ATOM     19  C   UNL     1     -11.084   6.356 129.548  0.00  0.00    +0.000 A 
ENDBRANCH   6   9
BRANCH   1  20
ATOM     20  C   UNL     1      -7.075  -0.644 132.000  0.00  0.00    +0.000 C 
BRANCH  20  24
ATOM     21  C   UNL     1      -7.303  -1.899 127.796  0.00  0.00    +0.000 A 
ATOM     22  C   UNL     1      -6.488  -0.830 128.160  0.00  0.00    +0.000 A 
ATOM     23  C   UNL     1      -6.334  -0.478 129.528  0.00  0.00    +0.000 A 
ATOM     24  C   UNL     1      -7.079  -1.123 130.540  0.00  0.00    +0.000 A 
ATOM     25  C   UNL     1      -7.829  -2.217 130.133  0.00  0.00    +0.000 A 
ATOM     26  C   UNL     1      -7.898  -2.619 128.811  0.00  0.00    +0.000 A 
BRANCH  21  27
ATOM     27  O   UNL     1      -7.343  -2.344 126.503  0.00  0.00    +0.000 OA
BRANCH  27  34
ATOM     28  C   UNL     1      -9.471   1.872 122.971  0.00  0.00    +0.000 C 
ATOM     29  C   UNL     1      -9.501   0.359 122.942  0.00  0.00    +0.000 C 
ATOM     30  O   UNL     1     -10.041  -0.241 122.014  0.00  0.00    +0.000 OA
ATOM     31  N   UNL     1      -8.759  -0.284 123.921  0.00  0.00    +0.000 N 
ATOM     32  C   UNL     1      -8.071  -1.524 123.611  0.00  0.00    +0.000 C 
ATOM     33  C   UNL     1      -8.689  -2.701 124.359  0.00  0.00    +0.000 C 
ATOM     34  C   UNL     1      -8.647  -2.465 125.881  0.00  0.00    +0.000 C 
ATOM     35  C   UNL     1      -9.395  -1.140 126.151  0.00  0.00    +0.000 C 
ATOM     36  C   UNL     1      -8.811   0.037 125.343  0.00  0.00    +0.000 C 
ENDBRANCH  27  34
ENDBRANCH  21  27
ENDBRANCH  20  24
ENDBRANCH   1  20
TORSDOF 5
ENDMDL
MODEL 5
REMARK VINA RESULT:      -9.8      4.323      9.908
REMARK  Name = CHEMBL25502
REMARK  6 active torsions:
REMARK  status: ('A' for Active; 'I' for Inactive)
REMARK    1  A    between atoms: C_1  and  C_2
REMARK    2  A    between atoms: C_7  and  O_8
REMARK    3  A    between atoms: O_8  and  C_9
REMARK    4  A    between atoms: C_12  and  C_13
REMARK    5  A    between atoms: C_13  and  C_14
REMARK    6  A    between atoms: C_19  and  N_20
REMARK                            x       y       z     vdW  Elec       q    Type
REMARK                         _______ _______ _______ _____ _____    ______ ____
ROOT
ATOM      1  C   UNL     1      -5.364   3.297 130.469  0.00  0.00    +0.000 C 
ATOM      2  O   UNL     1      -6.311   3.713 131.140  0.00  0.00    +0.000 OA
ATOM      3  N   UNL     1      -5.566   3.166 129.091  0.00  0.00    +0.000 N 
ATOM      4  C   UNL     1      -6.429   4.139 128.431  0.00  0.00    +0.000 C 
ATOM      5  C   UNL     1      -7.570   3.513 127.663  0.00  0.00    +0.000 C 
ATOM      6  C   UNL     1      -6.966   2.586 126.335  0.00  0.00    +0.000 C 
ATOM      7  C   UNL     1      -6.245   1.453 127.399  0.00  0.00    +0.000 C 
ATOM      8  C   UNL     1      -5.114   2.049 128.264  0.00  0.00    +0.000 C 
ENDROOT
BRANCH   6   9
ATOM      9  N   UNL     1      -6.502   3.235 124.696  0.00  0.00    +0.000 N 
ATOM     10  C   UNL     1      -7.830   2.660 124.343  0.00  0.00    +0.000 C 
ATOM     11  O   UNL     1      -8.909   2.593 125.000  0.00  0.00    +0.000 OA
ATOM     12  O   UNL     1      -7.876   2.001 123.216  0.00  0.00    +0.000 OA
ATOM     13  C   UNL     1      -8.537   2.933 122.439  0.00  0.00    +0.000 C 
ATOM     14  C   UNL     1      -7.329   3.578 121.957  0.00  0.00    +0.000 A 
ATOM     15  C   UNL     1      -7.502   3.786 120.455  0.00  0.00    +0.000 A 
ATOM     16  C   UNL     1      -6.541   4.218 119.604  0.00  0.00    +0.000 A 
ATOM     17  C   UNL     1      -5.442   4.588 120.348  0.00  0.00    +0.000 A 
ATOM     18  C   UNL     1      -5.290   4.392 121.981  0.00  0.00    +0.000 A 
ATOM     19  C   UNL     1      -6.288   3.780 122.950  0.00  0.00    +0.000 A 
ENDBRANCH   6   9
BRANCH   1  20
ATOM     20  C   UNL     1      -3.925   3.054 131.039  0.00  0.00    +0.000 C 
BRANCH  20  24
ATOM     21  C   UNL     1      -1.364   6.449 132.142  0.00  0.00    +0.000 A 
ATOM     22  C   UNL     1      -2.305   6.588 131.126  0.00  0.00    +0.000 A 
ATOM     23  C   UNL     1      -3.202   5.527 130.827  0.00  0.00    +0.000 A 
ATOM     24  C   UNL     1      -3.096   4.274 131.469  0.00  0.00    +0.000 A 
ATOM     25  C   UNL     1      -2.183   4.206 132.511  0.00  0.00    +0.000 A 
ATOM     26  C   UNL     1      -1.379   5.274 132.866  0.00  0.00    +0.000 A 
BRANCH  21  27
ATOM     27  O   UNL     1      -0.598   7.509 132.542  0.00  0.00    +0.000 OA
BRANCH  27  34
ATOM     28  C   UNL     1       0.638  13.195 133.502  0.00  0.00    +0.000 C 
ATOM     29  C   UNL     1      -0.546  12.308 133.815  0.00  0.00    +0.000 C 
ATOM     30  O   UNL     1      -1.544  12.764 134.371  0.00  0.00    +0.000 OA
ATOM     31  N   UNL     1      -0.497  11.021 133.301  0.00  0.00    +0.000 N 
ATOM     32  C   UNL     1      -1.713  10.380 132.834  0.00  0.00    +0.000 C 
ATOM     33  C   UNL     1      -2.098   9.206 133.730  0.00  0.00    +0.000 C 
ATOM     34  C   UNL     1      -0.964   8.164 133.783  0.00  0.00    +0.000 C 
ATOM     35  C   UNL     1       0.299   8.899 134.289  0.00  0.00    +0.000 C 
ATOM     36  C   UNL     1       0.648  10.126 133.421  0.00  0.00    +0.000 C 
ENDBRANCH  27  34
ENDBRANCH  21  27
ENDBRANCH  20  24
ENDBRANCH   1  20
TORSDOF 5
ENDMDL
MODEL 6
REMARK VINA RESULT:      -9.8      5.215     10.897
REMARK  Name = CHEMBL25502
REMARK  6 active torsions:
REMARK  status: ('A' for Active; 'I' for Inactive)
REMARK    1  A    between atoms: C_1  and  C_2
REMARK    2  A    between atoms: C_7  and  O_8
REMARK    3  A    between atoms: O_8  and  C_9
REMARK    4  A    between atoms: C_12  and  C_13
REMARK    5  A    between atoms: C_13  and  C_14
REMARK    6  A    between atoms: C_19  and  N_20
REMARK                            x       y       z     vdW  Elec       q    Type
REMARK                         _______ _______ _______ _____ _____    ______ ____
ROOT
ATOM      1  C   UNL     1      -3.111   4.808 128.542  0.00  0.00    +0.000 C 
ATOM      2  O   UNL     1      -2.409   5.573 127.877  0.00  0.00    +0.000 OA
ATOM      3  N   UNL     1      -4.001   3.987 127.842  0.00  0.00    +0.000 N 
ATOM      4  C   UNL     1      -3.587   3.489 126.534  0.00  0.00    +0.000 C 
ATOM      5  C   UNL     1      -4.561   3.819 125.426  0.00  0.00    +0.000 C 
ATOM      6  C   UNL     1      -6.063   3.002 125.680  0.00  0.00    +0.000 C 
ATOM      7  C   UNL     1      -6.383   3.937 127.080  0.00  0.00    +0.000 C 
ATOM      8  C   UNL     1      -5.379   3.696 128.228  0.00  0.00    +0.000 C 
ENDROOT
BRANCH   6   9
ATOM      9  N   UNL     1      -6.442   1.282 125.210  0.00  0.00    +0.000 N 
ATOM     10  C   UNL     1      -7.556   1.963 124.494  0.00  0.00    +0.000 C 
ATOM     11  O   UNL     1      -7.605   3.079 123.899  0.00  0.00    +0.000 OA
ATOM     12  O   UNL     1      -8.723   1.381 124.586  0.00  0.00    +0.000 OA
ATOM     13  C   UNL     1      -8.799   0.830 123.321  0.00  0.00    +0.000 C 
ATOM     14  C   UNL     1      -8.192  -0.435 123.696  0.00  0.00    +0.000 A 
ATOM     15  C   UNL     1      -9.033  -1.539 123.062  0.00  0.00    +0.000 A 
ATOM     16  C   UNL     1      -8.894  -2.865 123.293  0.00  0.00    +0.000 A 
ATOM     17  C   UNL     1      -7.768  -3.052 124.065  0.00  0.00    +0.000 A 
ATOM     18  C   UNL     1      -6.846  -1.842 124.709  0.00  0.00    +0.000 A 
ATOM     19  C   UNL     1      -7.053  -0.342 124.592  0.00  0.00    +0.000 A 
ENDBRANCH   6   9
BRANCH   1  20
ATOM     20  C   UNL     1      -2.961   4.599 130.087  0.00  0.00    +0.000 C 
BRANCH  20  24
ATOM     21  C   UNL     1      -2.134   8.000 132.743  0.00  0.00    +0.000 A 
ATOM     22  C   UNL     1      -1.242   6.932 132.680  0.00  0.00    +0.000 A 
ATOM     23  C   UNL     1      -1.452   5.874 131.755  0.00  0.00    +0.000 A 
ATOM     24  C   UNL     1      -2.616   5.817 130.957  0.00  0.00    +0.000 A 
ATOM     25  C   UNL     1      -3.441   6.931 131.014  0.00  0.00    +0.000 A 
ATOM     26  C   UNL     1      -3.181   8.006 131.845  0.00  0.00    +0.000 A 
BRANCH  21  27
ATOM     27  O   UNL     1      -1.867   9.094 133.518  0.00  0.00    +0.000 OA
BRANCH  27  34
ATOM     28  C   UNL     1      -1.824  14.663 135.460  0.00  0.00    +0.000 C 
ATOM     29  C   UNL     1      -0.746  13.675 135.071  0.00  0.00    +0.000 C 
ATOM     30  O   UNL     1       0.444  13.976 135.158  0.00  0.00    +0.000 OA
ATOM     31  N   UNL     1      -1.175  12.390 134.773  0.00  0.00    +0.000 N 
ATOM     32  C   UNL     1      -0.358  11.249 135.145  0.00  0.00    +0.000 C 
ATOM     33  C   UNL     1       0.201  10.545 133.912  0.00  0.00    +0.000 C 
ATOM     34  C   UNL     1      -0.937  10.073 132.988  0.00  0.00    +0.000 C 
ATOM     35  C   UNL     1      -1.768  11.325 132.623  0.00  0.00    +0.000 C 
ATOM     36  C   UNL     1      -2.277  12.074 133.872  0.00  0.00    +0.000 C 
ENDBRANCH  27  34
ENDBRANCH  21  27
ENDBRANCH  20  24
ENDBRANCH   1  20
TORSDOF 5
ENDMDL
MODEL 7
REMARK VINA RESULT:      -9.7      5.211     10.031
REMARK  Name = CHEMBL25502
REMARK  6 active torsions:
REMARK  status: ('A' for Active; 'I' for Inactive)
REMARK    1  A    between atoms: C_1  and  C_2
REMARK    2  A    between atoms: C_7  and  O_8
REMARK    3  A    between atoms: O_8  and  C_9
REMARK    4  A    between atoms: C_12  and  C_13
REMARK    5  A    between atoms: C_13  and  C_14
REMARK    6  A    between atoms: C_19  and  N_20
REMARK                            x       y       z     vdW  Elec       q    Type
REMARK                         _______ _______ _______ _____ _____    ______ ____
ROOT
ATOM      1  C   UNL     1      -7.990   0.373 126.214  0.00  0.00    +0.000 C 
ATOM      2  O   UNL     1      -9.109   0.846 126.009  0.00  0.00    +0.000 OA
ATOM      3  N   UNL     1      -7.037   1.213 126.800  0.00  0.00    +0.000 N 
ATOM      4  C   UNL     1      -7.498   2.189 127.781  0.00  0.00    +0.000 C 
ATOM      5  C   UNL     1      -7.109   3.611 127.448  0.00  0.00    +0.000 C 
ATOM      6  C   UNL     1      -5.391   3.796 127.514  0.00  0.00    +0.000 C 
ATOM      7  C   UNL     1      -5.186   2.768 126.159  0.00  0.00    +0.000 C 
ATOM      8  C   UNL     1      -5.632   1.312 126.413  0.00  0.00    +0.000 C 
ENDROOT
BRANCH   6   9
ATOM      9  N   UNL     1      -4.402   4.103 129.014  0.00  0.00    +0.000 N 
ATOM     10  C   UNL     1      -3.899   5.228 128.178  0.00  0.00    +0.000 C 
ATOM     11  O   UNL     1      -4.486   5.965 127.334  0.00  0.00    +0.000 OA
ATOM     12  O   UNL     1      -2.607   5.425 128.218  0.00  0.00    +0.000 OA
ATOM     13  C   UNL     1      -2.578   6.553 129.017  0.00  0.00    +0.000 C 
ATOM     14  C   UNL     1      -2.457   5.822 130.266  0.00  0.00    +0.000 A 
ATOM     15  C   UNL     1      -1.378   6.520 131.089  0.00  0.00    +0.000 A 
ATOM     16  C   UNL     1      -0.857   6.063 132.251  0.00  0.00    +0.000 A 
ATOM     17  C   UNL     1      -1.578   4.955 132.641  0.00  0.00    +0.000 A 
ATOM     18  C   UNL     1      -2.771   4.238 131.753  0.00  0.00    +0.000 A 
ATOM     19  C   UNL     1      -3.287   4.635 130.380  0.00  0.00    +0.000 A 
ENDBRANCH   6   9
BRANCH   1  20
ATOM     20  C   UNL     1      -7.622  -1.135 125.996  0.00  0.00    +0.000 C 
BRANCH  20  24
ATOM     21  C   UNL     1      -6.724  -3.386 129.661  0.00  0.00    +0.000 A 
ATOM     22  C   UNL     1      -8.031  -3.323 129.185  0.00  0.00    +0.000 A 
ATOM     23  C   UNL     1      -8.316  -2.678 127.951  0.00  0.00    +0.000 A 
ATOM     24  C   UNL     1      -7.312  -1.994 127.231  0.00  0.00    +0.000 A 
ATOM     25  C   UNL     1      -6.019  -2.137 127.715  0.00  0.00    +0.000 A 
ATOM     26  C   UNL     1      -5.732  -2.851 128.866  0.00  0.00    +0.000 A 
BRANCH  21  27
ATOM     27  O   UNL     1      -6.413  -4.130 130.765  0.00  0.00    +0.000 OA
BRANCH  27  34
ATOM     28  C   UNL     1      -8.563  -3.623 136.233  0.00  0.00    +0.000 C 
ATOM     29  C   UNL     1      -7.193  -3.919 135.664  0.00  0.00    +0.000 C 
ATOM     30  O   UNL     1      -6.238  -4.145 136.407  0.00  0.00    +0.000 OA
ATOM     31  N   UNL     1      -7.125  -4.075 134.288  0.00  0.00    +0.000 N 
ATOM     32  C   UNL     1      -6.215  -5.049 133.712  0.00  0.00    +0.000 C 
ATOM     33  C   UNL     1      -5.090  -4.364 132.941  0.00  0.00    +0.000 C 
ATOM     34  C   UNL     1      -5.658  -3.477 131.817  0.00  0.00    +0.000 C 
ATOM     35  C   UNL     1      -6.613  -2.461 132.486  0.00  0.00    +0.000 C 
ATOM     36  C   UNL     1      -7.711  -3.153 133.321  0.00  0.00    +0.000 C 
ENDBRANCH  27  34
ENDBRANCH  21  27
ENDBRANCH  20  24
ENDBRANCH   1  20
TORSDOF 5
ENDMDL
MODEL 8
REMARK VINA RESULT:      -9.6      4.907      9.783
REMARK  Name = CHEMBL25502
REMARK  6 active torsions:
REMARK  status: ('A' for Active; 'I' for Inactive)
REMARK    1  A    between atoms: C_1  and  C_2
REMARK    2  A    between atoms: C_7  and  O_8
REMARK    3  A    between atoms: O_8  and  C_9
REMARK    4  A    between atoms: C_12  and  C_13
REMARK    5  A    between atoms: C_13  and  C_14
REMARK    6  A    between atoms: C_19  and  N_20
REMARK                            x       y       z     vdW  Elec       q    Type
REMARK                         _______ _______ _______ _____ _____    ______ ____
ROOT
ATOM      1  C   UNL     1      -8.006   0.364 126.242  0.00  0.00    +0.000 C 
ATOM      2  O   UNL     1      -9.132   0.829 126.056  0.00  0.00    +0.000 OA
ATOM      3  N   UNL     1      -7.057   1.205 126.834  0.00  0.00    +0.000 N 
ATOM      4  C   UNL     1      -7.520   2.160 127.836  0.00  0.00    +0.000 C 
ATOM      5  C   UNL     1      -7.149   3.592 127.524  0.00  0.00    +0.000 C 
ATOM      6  C   UNL     1      -5.433   3.795 127.577  0.00  0.00    +0.000 C 
ATOM      7  C   UNL     1      -5.230   2.792 126.203  0.00  0.00    +0.000 C 
ATOM      8  C   UNL     1      -5.657   1.327 126.437  0.00  0.00    +0.000 C 
ENDROOT
BRANCH   6   9
ATOM      9  N   UNL     1      -4.434   4.087 129.073  0.00  0.00    +0.000 N 
ATOM     10  C   UNL     1      -3.924   5.210 128.238  0.00  0.00    +0.000 C 
ATOM     11  O   UNL     1      -4.509   5.955 127.400  0.00  0.00    +0.000 OA
ATOM     12  O   UNL     1      -2.631   5.395 128.273  0.00  0.00    +0.000 OA
ATOM     13  C   UNL     1      -2.587   6.519 129.075  0.00  0.00    +0.000 C 
ATOM     14  C   UNL     1      -2.467   5.784 130.321  0.00  0.00    +0.000 A 
ATOM     15  C   UNL     1      -1.377   6.468 131.142  0.00  0.00    +0.000 A 
ATOM     16  C   UNL     1      -0.855   6.003 132.300  0.00  0.00    +0.000 A 
ATOM     17  C   UNL     1      -1.585   4.901 132.689  0.00  0.00    +0.000 A 
ATOM     18  C   UNL     1      -2.789   4.198 131.805  0.00  0.00    +0.000 A 
ATOM     19  C   UNL     1      -3.308   4.604 130.436  0.00  0.00    +0.000 A 
ENDBRANCH   6   9
BRANCH   1  20
ATOM     20  C   UNL     1      -7.623  -1.135 125.997  0.00  0.00    +0.000 C 
BRANCH  20  24
ATOM     21  C   UNL     1      -6.375  -3.358 129.575  0.00  0.00    +0.000 A 
ATOM     22  C   UNL     1      -7.724  -3.284 129.236  0.00  0.00    +0.000 A 
ATOM     23  C   UNL     1      -8.128  -2.649 128.031  0.00  0.00    +0.000 A 
ATOM     24  C   UNL     1      -7.196  -1.985 127.203  0.00  0.00    +0.000 A 
ATOM     25  C   UNL     1      -5.862  -2.139 127.552  0.00  0.00    +0.000 A 
ATOM     26  C   UNL     1      -5.465  -2.843 128.675  0.00  0.00    +0.000 A 
BRANCH  21  27
ATOM     27  O   UNL     1      -5.960  -4.094 130.650  0.00  0.00    +0.000 OA
BRANCH  27  34
ATOM     28  C   UNL     1      -1.782  -4.474 134.795  0.00  0.00    +0.000 C 
ATOM     29  C   UNL     1      -2.741  -3.387 134.363  0.00  0.00    +0.000 C 
ATOM     30  O   UNL     1      -2.727  -2.283 134.907  0.00  0.00    +0.000 OA
ATOM     31  N   UNL     1      -3.503  -3.658 133.237  0.00  0.00    +0.000 N 
ATOM     32  C   UNL     1      -3.818  -2.593 132.301  0.00  0.00    +0.000 C 
ATOM     33  C   UNL     1      -5.309  -2.267 132.316  0.00  0.00    +0.000 C 
ATOM     34  C   UNL     1      -6.144  -3.513 131.966  0.00  0.00    +0.000 C 
ATOM     35  C   UNL     1      -5.773  -4.607 132.992  0.00  0.00    +0.000 C 
ATOM     36  C   UNL     1      -4.256  -4.889 133.024  0.00  0.00    +0.000 C 
ENDBRANCH  27  34
ENDBRANCH  21  27
ENDBRANCH  20  24
ENDBRANCH   1  20
TORSDOF 5
ENDMDL
MODEL 9
REMARK VINA RESULT:      -9.6      3.728      4.384
REMARK  Name = CHEMBL25502
REMARK  6 active torsions:
REMARK  status: ('A' for Active; 'I' for Inactive)
REMARK    1  A    between atoms: C_1  and  C_2
REMARK    2  A    between atoms: C_7  and  O_8
REMARK    3  A    between atoms: O_8  and  C_9
REMARK    4  A    between atoms: C_12  and  C_13
REMARK    5  A    between atoms: C_13  and  C_14
REMARK    6  A    between atoms: C_19  and  N_20
REMARK                            x       y       z     vdW  Elec       q    Type
REMARK                         _______ _______ _______ _____ _____    ______ ____
ROOT
ATOM      1  C   UNL     1      -5.483   2.773 133.470  0.00  0.00    +0.000 C 
ATOM      2  O   UNL     1      -4.578   3.402 134.022  0.00  0.00    +0.000 OA
ATOM      3  N   UNL     1      -6.503   3.516 132.867  0.00  0.00    +0.000 N 
ATOM      4  C   UNL     1      -6.147   4.786 132.244  0.00  0.00    +0.000 C 
ATOM      5  C   UNL     1      -6.944   5.960 132.766  0.00  0.00    +0.000 C 
ATOM      6  C   UNL     1      -8.612   5.790 132.345  0.00  0.00    +0.000 C 
ATOM      7  C   UNL     1      -8.776   4.429 133.372  0.00  0.00    +0.000 C 
ATOM      8  C   UNL     1      -7.931   3.215 132.932  0.00  0.00    +0.000 C 
ENDROOT
BRANCH   6   9
ATOM      9  N   UNL     1      -9.370   6.257 130.754  0.00  0.00    +0.000 N 
ATOM     10  C   UNL     1     -10.592   6.292 131.605  0.00  0.00    +0.000 C 
ATOM     11  O   UNL     1     -10.759   6.647 132.808  0.00  0.00    +0.000 OA
ATOM     12  O   UNL     1     -11.660   5.755 131.077  0.00  0.00    +0.000 OA
ATOM     13  C   UNL     1     -12.354   6.907 130.758  0.00  0.00    +0.000 C 
ATOM     14  C   UNL     1     -11.807   7.019 129.417  0.00  0.00    +0.000 A 
ATOM     15  C   UNL     1     -12.971   7.339 128.484  0.00  0.00    +0.000 A 
ATOM     16  C   UNL     1     -12.910   7.372 127.132  0.00  0.00    +0.000 A 
ATOM     17  C   UNL     1     -11.592   7.229 126.757  0.00  0.00    +0.000 A 
ATOM     18  C   UNL     1     -10.338   6.923 127.788  0.00  0.00    +0.000 A 
ATOM     19  C   UNL     1     -10.387   6.736 129.295  0.00  0.00    +0.000 A 
ENDBRANCH   6   9
BRANCH   1  20
ATOM     20  C   UNL     1      -5.479   1.218 133.279  0.00  0.00    +0.000 C 
BRANCH  20  24
ATOM     21  C   UNL     1      -7.202  -0.247 129.512  0.00  0.00    +0.000 A 
ATOM     22  C   UNL     1      -6.054   0.541 129.493  0.00  0.00    +0.000 A 
ATOM     23  C   UNL     1      -5.436   0.939 130.709  0.00  0.00    +0.000 A 
ATOM     24  C   UNL     1      -6.021   0.645 131.960  0.00  0.00    +0.000 A 
ATOM     25  C   UNL     1      -7.128  -0.190 131.927  0.00  0.00    +0.000 A 
ATOM     26  C   UNL     1      -7.670  -0.658 130.743  0.00  0.00    +0.000 A 
BRANCH  21  27
ATOM     27  O   UNL     1      -7.720  -0.763 128.356  0.00  0.00    +0.000 OA
BRANCH  27  34
ATOM     28  C   UNL     1      -9.602  -3.229 123.341  0.00  0.00    +0.000 C 
ATOM     29  C   UNL     1      -8.238  -2.888 123.899  0.00  0.00    +0.000 C 
ATOM     30  O   UNL     1      -7.218  -3.103 123.245  0.00  0.00    +0.000 OA
ATOM     31  N   UNL     1      -8.227  -2.185 125.095  0.00  0.00    +0.000 N 
ATOM     32  C   UNL     1      -7.211  -1.176 125.333  0.00  0.00    +0.000 C 
ATOM     33  C   UNL     1      -6.253  -1.607 126.440  0.00  0.00    +0.000 C 
ATOM     34  C   UNL     1      -7.016  -1.877 127.750  0.00  0.00    +0.000 C 
ATOM     35  C   UNL     1      -8.077  -2.958 127.438  0.00  0.00    +0.000 C 
ATOM     36  C   UNL     1      -9.004  -2.549 126.274  0.00  0.00    +0.000 C 
ENDBRANCH  27  34
ENDBRANCH  21  27
ENDBRANCH  20  24
ENDBRANCH   1  20
TORSDOF 5
ENDMDL
