MODEL 1
REMARK VINA RESULT:      -8.2      0.000      0.000
REMARK  Name = CHEMBL551395
REMARK  9 active torsions:
REMARK  status: ('A' for Active; 'I' for Inactive)
REMARK    1  A    between atoms: C_1  and  C_2
REMARK    2  A    between atoms: C_2  and  C_3
REMARK    3  A    between atoms: C_8  and  O_9
REMARK    4  A    between atoms: O_9  and  C_10
REMARK    5  A    between atoms: C_13  and  C_14
REMARK    6  A    between atoms: C_17  and  C_18
REMARK    7  A    between atoms: N_19  and  C_20
REMARK    8  A    between atoms: C_23  and  O_24
REMARK    9  A    between atoms: O_24  and  C_25
REMARK                            x       y       z     vdW  Elec       q    Type
REMARK                         _______ _______ _______ _____ _____    ______ ____
ROOT
ATOM      1  C   UNL     1     -11.077   5.482 129.941  0.00  0.00    +0.000 A 
ATOM      2  C   UNL     1     -10.042   6.294 129.512  0.00  0.00    +0.000 A 
ATOM      3  N   UNL     1      -8.821   5.815 129.139  0.00  0.00    +0.000 NA
ATOM      4  C   UNL     1      -8.593   4.493 129.356  0.00  0.00    +0.000 A 
ATOM      5  C   UNL     1      -9.585   3.710 129.935  0.00  0.00    +0.000 A 
ATOM      6  N   UNL     1     -10.845   4.176 130.228  0.00  0.00    +0.000 NA
ENDROOT
BRANCH   4   7
ATOM      7  C   UNL     1      -7.218   4.030 129.120  0.00  0.00    +0.000 A 
ATOM      8  N   UNL     1      -6.140   4.248 129.861  0.00  0.00    +0.000 NA
ATOM      9  N   UNL     1      -5.047   3.671 129.239  0.00  0.00    +0.000 NA
ATOM     10  C   UNL     1      -5.461   3.107 128.120  0.00  0.00    +0.000 A 
ATOM     11  C   UNL     1      -4.628   2.570 127.005  0.00  0.00    +0.000 C 
ATOM     12  N   UNL     1      -6.831   3.254 128.040  0.00  0.00    +0.000 N 
BRANCH  12  13
ATOM     13  C   UNL     1      -7.611   2.861 126.944  0.00  0.00    +0.000 A 
ATOM     14  C   UNL     1      -8.121   1.573 126.881  0.00  0.00    +0.000 A 
ATOM     15  C   UNL     1      -8.900   1.233 125.788  0.00  0.00    +0.000 A 
ATOM     16  C   UNL     1      -9.153   2.194 124.814  0.00  0.00    +0.000 A 
ATOM     17  N   UNL     1      -8.661   3.451 124.876  0.00  0.00    +0.000 NA
ATOM     18  C   UNL     1      -7.888   3.763 125.935  0.00  0.00    +0.000 A 
BRANCH  16  19
ATOM     19  O   UNL     1      -9.923   1.985 123.706  0.00  0.00    +0.000 OA
ATOM     20  C   UNL     1      -9.778   0.721 123.081  0.00  0.00    +0.000 C 
ENDBRANCH  16  19
ENDBRANCH  12  13
ENDBRANCH   4   7
BRANCH   1  21
ATOM     21  O   UNL     1     -12.356   5.981 130.114  0.00  0.00    +0.000 OA
BRANCH  21  27
ATOM     22  C   UNL     1     -13.040   7.741 128.417  0.00  0.00    +0.000 A 
ATOM     23  C   UNL     1     -13.424   9.093 128.243  0.00  0.00    +0.000 A 
ATOM     24  C   UNL     1     -13.397  10.004 129.286  0.00  0.00    +0.000 A 
ATOM     25  C   UNL     1     -13.038   9.563 130.550  0.00  0.00    +0.000 A 
ATOM     26  C   UNL     1     -12.712   8.211 130.758  0.00  0.00    +0.000 A 
ATOM     27  C   UNL     1     -12.703   7.267 129.703  0.00  0.00    +0.000 A 
BRANCH  22  29
ATOM     28  C   UNL     1     -11.541   7.437 126.485  0.00  0.00    +0.000 C 
ATOM     29  C   UNL     1     -12.870   7.008 127.114  0.00  0.00    +0.000 C 
ENDBRANCH  22  29
ENDBRANCH  21  27
ENDBRANCH   1  21
TORSDOF 6
ENDMDL
MODEL 2
REMARK VINA RESULT:      -8.2      3.643      5.072
REMARK  Name = CHEMBL551395
REMARK  9 active torsions:
REMARK  status: ('A' for Active; 'I' for Inactive)
REMARK    1  A    between atoms: C_1  and  C_2
REMARK    2  A    between atoms: C_2  and  C_3
REMARK    3  A    between atoms: C_8  and  O_9
REMARK    4  A    between atoms: O_9  and  C_10
REMARK    5  A    between atoms: C_13  and  C_14
REMARK    6  A    between atoms: C_17  and  C_18
REMARK    7  A    between atoms: N_19  and  C_20
REMARK    8  A    between atoms: C_23  and  O_24
REMARK    9  A    between atoms: O_24  and  C_25
REMARK                            x       y       z     vdW  Elec       q    Type
REMARK                         _______ _______ _______ _____ _____    ______ ____
ROOT
ATOM      1  C   UNL     1      -8.544   5.818 130.189  0.00  0.00    +0.000 A 
ATOM      2  C   UNL     1      -7.970   4.659 130.682  0.00  0.00    +0.000 A 
ATOM      3  N   UNL     1      -6.890   4.654 131.514  0.00  0.00    +0.000 NA
ATOM      4  C   UNL     1      -6.279   5.849 131.727  0.00  0.00    +0.000 A 
ATOM      5  C   UNL     1      -6.767   6.991 131.103  0.00  0.00    +0.000 A 
ATOM      6  N   UNL     1      -7.908   7.008 130.336  0.00  0.00    +0.000 NA
ENDROOT
BRANCH   4   7
ATOM      7  C   UNL     1      -5.016   5.802 132.476  0.00  0.00    +0.000 A 
ATOM      8  N   UNL     1      -4.810   6.082 133.756  0.00  0.00    +0.000 NA
ATOM      9  N   UNL     1      -3.459   5.956 134.029  0.00  0.00    +0.000 NA
ATOM     10  C   UNL     1      -2.846   5.605 132.914  0.00  0.00    +0.000 A 
ATOM     11  C   UNL     1      -1.378   5.576 132.649  0.00  0.00    +0.000 C 
ATOM     12  N   UNL     1      -3.797   5.434 131.929  0.00  0.00    +0.000 N 
BRANCH  12  13
ATOM     13  C   UNL     1      -3.512   5.149 130.587  0.00  0.00    +0.000 A 
ATOM     14  C   UNL     1      -3.048   6.152 129.748  0.00  0.00    +0.000 A 
ATOM     15  C   UNL     1      -2.763   5.822 128.434  0.00  0.00    +0.000 A 
ATOM     16  C   UNL     1      -2.934   4.506 128.016  0.00  0.00    +0.000 A 
ATOM     17  N   UNL     1      -3.380   3.527 128.833  0.00  0.00    +0.000 NA
ATOM     18  C   UNL     1      -3.673   3.865 130.104  0.00  0.00    +0.000 A 
BRANCH  16  19
ATOM     19  O   UNL     1      -2.665   4.056 126.756  0.00  0.00    +0.000 OA
ATOM     20  C   UNL     1      -1.661   3.059 126.655  0.00  0.00    +0.000 C 
ENDBRANCH  16  19
ENDBRANCH  12  13
ENDBRANCH   4   7
BRANCH   1  21
ATOM     21  O   UNL     1      -9.753   5.791 129.518  0.00  0.00    +0.000 OA
BRANCH  21  27
ATOM     22  C   UNL     1     -11.254   7.801 129.125  0.00  0.00    +0.000 A 
ATOM     23  C   UNL     1     -12.373   8.522 129.609  0.00  0.00    +0.000 A 
ATOM     24  C   UNL     1     -12.979   8.213 130.816  0.00  0.00    +0.000 A 
ATOM     25  C   UNL     1     -12.511   7.128 131.541  0.00  0.00    +0.000 A 
ATOM     26  C   UNL     1     -11.441   6.360 131.048  0.00  0.00    +0.000 A 
ATOM     27  C   UNL     1     -10.786   6.674 129.832  0.00  0.00    +0.000 A 
BRANCH  22  29
ATOM     28  C   UNL     1     -11.010   7.755 126.674  0.00  0.00    +0.000 C 
ATOM     29  C   UNL     1     -10.584   8.473 127.958  0.00  0.00    +0.000 C 
ENDBRANCH  22  29
ENDBRANCH  21  27
ENDBRANCH   1  21
TORSDOF 6
ENDMDL
MODEL 3
REMARK VINA RESULT:      -7.9      2.043      2.458
REMARK  Name = CHEMBL551395
REMARK  9 active torsions:
REMARK  status: ('A' for Active; 'I' for Inactive)
REMARK    1  A    between atoms: C_1  and  C_2
REMARK    2  A    between atoms: C_2  and  C_3
REMARK    3  A    between atoms: C_8  and  O_9
REMARK    4  A    between atoms: O_9  and  C_10
REMARK    5  A    between atoms: C_13  and  C_14
REMARK    6  A    between atoms: C_17  and  C_18
REMARK    7  A    between atoms: N_19  and  C_20
REMARK    8  A    between atoms: C_23  and  O_24
REMARK    9  A    between atoms: O_24  and  C_25
REMARK                            x       y       z     vdW  Elec       q    Type
REMARK                         _______ _______ _______ _____ _____    ______ ____
ROOT
ATOM      1  C   UNL     1      -9.727   4.771 129.713  0.00  0.00    +0.000 A 
ATOM      2  C   UNL     1      -8.821   5.748 130.087  0.00  0.00    +0.000 A 
ATOM      3  N   UNL     1      -7.478   5.641 129.880  0.00  0.00    +0.000 NA
ATOM      4  C   UNL     1      -7.025   4.445 129.423  0.00  0.00    +0.000 A 
ATOM      5  C   UNL     1      -7.925   3.410 129.197  0.00  0.00    +0.000 A 
ATOM      6  N   UNL     1      -9.287   3.548 129.322  0.00  0.00    +0.000 NA
ENDROOT
BRANCH   4   7
ATOM      7  C   UNL     1      -5.565   4.284 129.377  0.00  0.00    +0.000 A 
ATOM      8  N   UNL     1      -4.695   4.401 130.371  0.00  0.00    +0.000 NA
ATOM      9  N   UNL     1      -3.418   4.219 129.870  0.00  0.00    +0.000 NA
ATOM     10  C   UNL     1      -3.513   3.997 128.572  0.00  0.00    +0.000 A 
ATOM     11  C   UNL     1      -2.412   3.975 127.566  0.00  0.00    +0.000 C 
ATOM     12  N   UNL     1      -4.851   3.965 128.234  0.00  0.00    +0.000 N 
BRANCH  12  13
ATOM     13  C   UNL     1      -5.338   3.842 126.926  0.00  0.00    +0.000 A 
ATOM     14  C   UNL     1      -5.538   4.974 126.150  0.00  0.00    +0.000 A 
ATOM     15  C   UNL     1      -6.005   4.805 124.857  0.00  0.00    +0.000 A 
ATOM     16  C   UNL     1      -6.236   3.516 124.387  0.00  0.00    +0.000 A 
ATOM     17  N   UNL     1      -6.037   2.411 125.139  0.00  0.00    +0.000 NA
ATOM     18  C   UNL     1      -5.601   2.591 126.402  0.00  0.00    +0.000 A 
BRANCH  16  19
ATOM     19  O   UNL     1      -6.674   3.221 123.128  0.00  0.00    +0.000 OA
ATOM     20  C   UNL     1      -5.941   3.808 122.064  0.00  0.00    +0.000 C 
ENDBRANCH  16  19
ENDBRANCH  12  13
ENDBRANCH   4   7
BRANCH   1  21
ATOM     21  O   UNL     1     -11.090   5.002 129.755  0.00  0.00    +0.000 OA
BRANCH  21  27
ATOM     22  C   UNL     1     -11.647   7.316 128.869  0.00  0.00    +0.000 A 
ATOM     23  C   UNL     1     -12.293   8.542 129.160  0.00  0.00    +0.000 A 
ATOM     24  C   UNL     1     -12.825   8.813 130.410  0.00  0.00    +0.000 A 
ATOM     25  C   UNL     1     -12.772   7.831 131.386  0.00  0.00    +0.000 A 
ATOM     26  C   UNL     1     -12.189   6.582 131.099  0.00  0.00    +0.000 A 
ATOM     27  C   UNL     1     -11.613   6.293 129.839  0.00  0.00    +0.000 A 
BRANCH  22  29
ATOM     28  C   UNL     1     -11.912   7.195 126.422  0.00  0.00    +0.000 C 
ATOM     29  C   UNL     1     -10.900   7.343 127.563  0.00  0.00    +0.000 C 
ENDBRANCH  22  29
ENDBRANCH  21  27
ENDBRANCH   1  21
TORSDOF 6
ENDMDL
MODEL 4
REMARK VINA RESULT:      -7.8      3.395      4.872
REMARK  Name = CHEMBL551395
REMARK  9 active torsions:
REMARK  status: ('A' for Active; 'I' for Inactive)
REMARK    1  A    between atoms: C_1  and  C_2
REMARK    2  A    between atoms: C_2  and  C_3
REMARK    3  A    between atoms: C_8  and  O_9
REMARK    4  A    between atoms: O_9  and  C_10
REMARK    5  A    between atoms: C_13  and  C_14
REMARK    6  A    between atoms: C_17  and  C_18
REMARK    7  A    between atoms: N_19  and  C_20
REMARK    8  A    between atoms: C_23  and  O_24
REMARK    9  A    between atoms: O_24  and  C_25
REMARK                            x       y       z     vdW  Elec       q    Type
REMARK                         _______ _______ _______ _____ _____    ______ ____
ROOT
ATOM      1  C   UNL     1     -10.694   4.711 130.473  0.00  0.00    +0.000 A 
ATOM      2  C   UNL     1     -10.286   5.326 131.644  0.00  0.00    +0.000 A 
ATOM      3  N   UNL     1      -9.132   5.004 132.295  0.00  0.00    +0.000 NA
ATOM      4  C   UNL     1      -8.452   3.923 131.832  0.00  0.00    +0.000 A 
ATOM      5  C   UNL     1      -8.950   3.210 130.747  0.00  0.00    +0.000 A 
ATOM      6  N   UNL     1     -10.066   3.590 130.038  0.00  0.00    +0.000 NA
ENDROOT
BRANCH   4   7
ATOM      7  C   UNL     1      -7.313   3.480 132.649  0.00  0.00    +0.000 A 
ATOM      8  N   UNL     1      -7.322   2.659 133.691  0.00  0.00    +0.000 NA
ATOM      9  N   UNL     1      -6.035   2.559 134.190  0.00  0.00    +0.000 NA
ATOM     10  C   UNL     1      -5.248   3.322 133.454  0.00  0.00    +0.000 A 
ATOM     11  C   UNL     1      -3.839   3.723 133.737  0.00  0.00    +0.000 C 
ATOM     12  N   UNL     1      -6.001   3.867 132.434  0.00  0.00    +0.000 N 
BRANCH  12  13
ATOM     13  C   UNL     1      -5.525   4.803 131.506  0.00  0.00    +0.000 A 
ATOM     14  C   UNL     1      -5.553   6.156 131.807  0.00  0.00    +0.000 A 
ATOM     15  C   UNL     1      -5.058   7.045 130.868  0.00  0.00    +0.000 A 
ATOM     16  C   UNL     1      -4.539   6.546 129.676  0.00  0.00    +0.000 A 
ATOM     17  N   UNL     1      -4.506   5.228 129.383  0.00  0.00    +0.000 NA
ATOM     18  C   UNL     1      -5.010   4.376 130.297  0.00  0.00    +0.000 A 
BRANCH  16  19
ATOM     19  O   UNL     1      -4.004   7.318 128.686  0.00  0.00    +0.000 OA
ATOM     20  C   UNL     1      -2.703   6.954 128.252  0.00  0.00    +0.000 C 
ENDBRANCH  16  19
ENDBRANCH  12  13
ENDBRANCH   4   7
BRANCH   1  21
ATOM     21  O   UNL     1     -11.758   5.201 129.738  0.00  0.00    +0.000 OA
BRANCH  21  27
ATOM     22  C   UNL     1     -11.549   7.479 128.636  0.00  0.00    +0.000 A 
ATOM     23  C   UNL     1     -11.974   8.829 128.680  0.00  0.00    +0.000 A 
ATOM     24  C   UNL     1     -12.753   9.320 129.716  0.00  0.00    +0.000 A 
ATOM     25  C   UNL     1     -13.176   8.449 130.706  0.00  0.00    +0.000 A 
ATOM     26  C   UNL     1     -12.817   7.089 130.648  0.00  0.00    +0.000 A 
ATOM     27  C   UNL     1     -11.997   6.570 129.617  0.00  0.00    +0.000 A 
BRANCH  22  29
ATOM     28  C   UNL     1     -11.052   7.628 126.227  0.00  0.00    +0.000 C 
ATOM     29  C   UNL     1     -10.491   7.232 127.596  0.00  0.00    +0.000 C 
ENDBRANCH  22  29
ENDBRANCH  21  27
ENDBRANCH   1  21
TORSDOF 6
ENDMDL
MODEL 5
REMARK VINA RESULT:      -7.7      2.921      5.332
REMARK  Name = CHEMBL551395
REMARK  9 active torsions:
REMARK  status: ('A' for Active; 'I' for Inactive)
REMARK    1  A    between atoms: C_1  and  C_2
REMARK    2  A    between atoms: C_2  and  C_3
REMARK    3  A    between atoms: C_8  and  O_9
REMARK    4  A    between atoms: O_9  and  C_10
REMARK    5  A    between atoms: C_13  and  C_14
REMARK    6  A    between atoms: C_17  and  C_18
REMARK    7  A    between atoms: N_19  and  C_20
REMARK    8  A    between atoms: C_23  and  O_24
REMARK    9  A    between atoms: O_24  and  C_25
REMARK                            x       y       z     vdW  Elec       q    Type
REMARK                         _______ _______ _______ _____ _____    ______ ____
ROOT
ATOM      1  C   UNL     1      -7.802   3.854 127.931  0.00  0.00    +0.000 A 
ATOM      2  C   UNL     1      -6.777   3.044 127.476  0.00  0.00    +0.000 A 
ATOM      3  N   UNL     1      -6.163   3.220 126.272  0.00  0.00    +0.000 NA
ATOM      4  C   UNL     1      -6.708   4.144 125.439  0.00  0.00    +0.000 A 
ATOM      5  C   UNL     1      -7.837   4.848 125.839  0.00  0.00    +0.000 A 
ATOM      6  N   UNL     1      -8.401   4.733 127.087  0.00  0.00    +0.000 NA
ENDROOT
BRANCH   4   7
ATOM      7  C   UNL     1      -6.149   4.196 124.080  0.00  0.00    +0.000 A 
ATOM      8  N   UNL     1      -5.290   5.074 123.580  0.00  0.00    +0.000 NA
ATOM      9  N   UNL     1      -5.076   4.776 122.245  0.00  0.00    +0.000 NA
ATOM     10  C   UNL     1      -5.809   3.723 121.936  0.00  0.00    +0.000 A 
ATOM     11  C   UNL     1      -6.094   3.175 120.578  0.00  0.00    +0.000 C 
ATOM     12  N   UNL     1      -6.449   3.288 123.078  0.00  0.00    +0.000 N 
BRANCH  12  13
ATOM     13  C   UNL     1      -7.384   2.245 123.119  0.00  0.00    +0.000 A 
ATOM     14  C   UNL     1      -8.719   2.500 122.843  0.00  0.00    +0.000 A 
ATOM     15  C   UNL     1      -9.607   1.437 122.878  0.00  0.00    +0.000 A 
ATOM     16  C   UNL     1      -9.124   0.165 123.169  0.00  0.00    +0.000 A 
ATOM     17  N   UNL     1      -7.823  -0.086 123.433  0.00  0.00    +0.000 NA
ATOM     18  C   UNL     1      -6.974   0.960 123.415  0.00  0.00    +0.000 A 
BRANCH  16  19
ATOM     19  O   UNL     1      -9.895  -0.961 123.210  0.00  0.00    +0.000 OA
ATOM     20  C   UNL     1      -9.192  -2.193 123.211  0.00  0.00    +0.000 C 
ENDBRANCH  16  19
ENDBRANCH  12  13
ENDBRANCH   4   7
BRANCH   1  21
ATOM     21  O   UNL     1      -8.259   3.772 129.234  0.00  0.00    +0.000 OA
BRANCH  21  27
ATOM     22  C   UNL     1      -8.292   5.841 130.705  0.00  0.00    +0.000 A 
ATOM     23  C   UNL     1      -7.661   6.502 131.787  0.00  0.00    +0.000 A 
ATOM     24  C   UNL     1      -6.489   6.029 132.354  0.00  0.00    +0.000 A 
ATOM     25  C   UNL     1      -5.951   4.842 131.884  0.00  0.00    +0.000 A 
ATOM     26  C   UNL     1      -6.594   4.137 130.850  0.00  0.00    +0.000 A 
ATOM     27  C   UNL     1      -7.776   4.615 130.235  0.00  0.00    +0.000 A 
BRANCH  22  29
ATOM     28  C   UNL     1     -10.595   6.669 130.989  0.00  0.00    +0.000 C 
ATOM     29  C   UNL     1      -9.374   6.667 130.064  0.00  0.00    +0.000 C 
ENDBRANCH  22  29
ENDBRANCH  21  27
ENDBRANCH   1  21
TORSDOF 6
ENDMDL
MODEL 6
REMARK VINA RESULT:      -7.6      3.522      5.088
REMARK  Name = CHEMBL551395
REMARK  9 active torsions:
REMARK  status: ('A' for Active; 'I' for Inactive)
REMARK    1  A    between atoms: C_1  and  C_2
REMARK    2  A    between atoms: C_2  and  C_3
REMARK    3  A    between atoms: C_8  and  O_9
REMARK    4  A    between atoms: O_9  and  C_10
REMARK    5  A    between atoms: C_13  and  C_14
REMARK    6  A    between atoms: C_17  and  C_18
REMARK    7  A    between atoms: N_19  and  C_20
REMARK    8  A    between atoms: C_23  and  O_24
REMARK    9  A    between atoms: O_24  and  C_25
REMARK                            x       y       z     vdW  Elec       q    Type
REMARK                         _______ _______ _______ _____ _____    ______ ____
ROOT
ATOM      1  C   UNL     1      -9.182   6.526 130.449  0.00  0.00    +0.000 A 
ATOM      2  C   UNL     1      -9.088   5.282 129.850  0.00  0.00    +0.000 A 
ATOM      3  N   UNL     1      -8.667   4.165 130.509  0.00  0.00    +0.000 NA
ATOM      4  C   UNL     1      -8.180   4.344 131.764  0.00  0.00    +0.000 A 
ATOM      5  C   UNL     1      -8.131   5.623 132.306  0.00  0.00    +0.000 A 
ATOM      6  N   UNL     1      -8.637   6.735 131.674  0.00  0.00    +0.000 NA
ENDROOT
BRANCH   4   7
ATOM      7  C   UNL     1      -7.565   3.165 132.392  0.00  0.00    +0.000 A 
ATOM      8  N   UNL     1      -8.080   2.368 133.318  0.00  0.00    +0.000 NA
ATOM      9  N   UNL     1      -7.136   1.414 133.659  0.00  0.00    +0.000 NA
ATOM     10  C   UNL     1      -6.050   1.637 132.943  0.00  0.00    +0.000 A 
ATOM     11  C   UNL     1      -4.699   1.029 133.121  0.00  0.00    +0.000 C 
ATOM     12  N   UNL     1      -6.301   2.690 132.087  0.00  0.00    +0.000 N 
BRANCH  12  13
ATOM     13  C   UNL     1      -5.349   3.269 131.237  0.00  0.00    +0.000 A 
ATOM     14  C   UNL     1      -4.522   4.278 131.707  0.00  0.00    +0.000 A 
ATOM     15  C   UNL     1      -3.584   4.811 130.838  0.00  0.00    +0.000 A 
ATOM     16  C   UNL     1      -3.499   4.304 129.545  0.00  0.00    +0.000 A 
ATOM     17  N   UNL     1      -4.300   3.317 129.087  0.00  0.00    +0.000 NA
ATOM     18  C   UNL     1      -5.221   2.821 129.937  0.00  0.00    +0.000 A 
BRANCH  16  19
ATOM     19  O   UNL     1      -2.603   4.730 128.607  0.00  0.00    +0.000 OA
ATOM     20  C   UNL     1      -2.290   6.114 128.634  0.00  0.00    +0.000 C 
ENDBRANCH  16  19
ENDBRANCH  12  13
ENDBRANCH   4   7
BRANCH   1  21
ATOM     21  O   UNL     1      -9.801   7.585 129.810  0.00  0.00    +0.000 OA
BRANCH  21  27
ATOM     22  C   UNL     1     -12.231   7.088 129.263  0.00  0.00    +0.000 A 
ATOM     23  C   UNL     1     -13.188   6.999 128.223  0.00  0.00    +0.000 A 
ATOM     24  C   UNL     1     -12.834   7.112 126.889  0.00  0.00    +0.000 A 
ATOM     25  C   UNL     1     -11.513   7.379 126.567  0.00  0.00    +0.000 A 
ATOM     26  C   UNL     1     -10.557   7.533 127.588  0.00  0.00    +0.000 A 
ATOM     27  C   UNL     1     -10.888   7.392 128.957  0.00  0.00    +0.000 A 
BRANCH  22  29
ATOM     28  C   UNL     1     -12.945   7.898 131.478  0.00  0.00    +0.000 C 
ATOM     29  C   UNL     1     -12.774   6.656 130.599  0.00  0.00    +0.000 C 
ENDBRANCH  22  29
ENDBRANCH  21  27
ENDBRANCH   1  21
TORSDOF 6
ENDMDL
MODEL 7
REMARK VINA RESULT:      -7.6      5.110      7.703
REMARK  Name = CHEMBL551395
REMARK  9 active torsions:
REMARK  status: ('A' for Active; 'I' for Inactive)
REMARK    1  A    between atoms: C_1  and  C_2
REMARK    2  A    between atoms: C_2  and  C_3
REMARK    3  A    between atoms: C_8  and  O_9
REMARK    4  A    between atoms: O_9  and  C_10
REMARK    5  A    between atoms: C_13  and  C_14
REMARK    6  A    between atoms: C_17  and  C_18
REMARK    7  A    between atoms: N_19  and  C_20
REMARK    8  A    between atoms: C_23  and  O_24
REMARK    9  A    between atoms: O_24  and  C_25
REMARK                            x       y       z     vdW  Elec       q    Type
REMARK                         _______ _______ _______ _____ _____    ______ ____
ROOT
ATOM      1  C   UNL     1      -6.811   3.500 126.069  0.00  0.00    +0.000 A 
ATOM      2  C   UNL     1      -6.219   2.866 124.991  0.00  0.00    +0.000 A 
ATOM      3  N   UNL     1      -6.852   1.922 124.239  0.00  0.00    +0.000 NA
ATOM      4  C   UNL     1      -8.062   1.496 124.688  0.00  0.00    +0.000 A 
ATOM      5  C   UNL     1      -8.585   2.024 125.862  0.00  0.00    +0.000 A 
ATOM      6  N   UNL     1      -7.986   3.040 126.569  0.00  0.00    +0.000 NA
ENDROOT
BRANCH   4   7
ATOM      7  C   UNL     1      -8.648   0.353 123.972  0.00  0.00    +0.000 A 
ATOM      8  N   UNL     1      -9.474   0.373 122.934  0.00  0.00    +0.000 NA
ATOM      9  N   UNL     1      -9.816  -0.929 122.613  0.00  0.00    +0.000 NA
ATOM     10  C   UNL     1      -9.203  -1.736 123.458  0.00  0.00    +0.000 A 
ATOM     11  C   UNL     1      -9.438  -3.195 123.663  0.00  0.00    +0.000 C 
ATOM     12  N   UNL     1      -8.407  -0.973 124.288  0.00  0.00    +0.000 N 
BRANCH  12  13
ATOM     13  C   UNL     1      -7.675  -1.476 125.372  0.00  0.00    +0.000 A 
ATOM     14  C   UNL     1      -6.322  -1.746 125.231  0.00  0.00    +0.000 A 
ATOM     15  C   UNL     1      -5.634  -2.226 126.333  0.00  0.00    +0.000 A 
ATOM     16  C   UNL     1      -6.318  -2.399 127.532  0.00  0.00    +0.000 A 
ATOM     17  N   UNL     1      -7.635  -2.131 127.674  0.00  0.00    +0.000 NA
ATOM     18  C   UNL     1      -8.297  -1.684 126.589  0.00  0.00    +0.000 A 
BRANCH  16  19
ATOM     19  O   UNL     1      -5.746  -2.843 128.689  0.00  0.00    +0.000 OA
ATOM     20  C   UNL     1      -6.637  -3.370 129.659  0.00  0.00    +0.000 C 
ENDBRANCH  16  19
ENDBRANCH  12  13
ENDBRANCH   4   7
BRANCH   1  21
ATOM     21  O   UNL     1      -6.215   4.591 126.677  0.00  0.00    +0.000 OA
BRANCH  21  27
ATOM     22  C   UNL     1      -3.875   4.220 127.589  0.00  0.00    +0.000 A 
ATOM     23  C   UNL     1      -3.087   4.159 128.764  0.00  0.00    +0.000 A 
ATOM     24  C   UNL     1      -3.650   4.218 130.029  0.00  0.00    +0.000 A 
ATOM     25  C   UNL     1      -5.018   4.401 130.144  0.00  0.00    +0.000 A 
ATOM     26  C   UNL     1      -5.812   4.526 128.989  0.00  0.00    +0.000 A 
ATOM     27  C   UNL     1      -5.265   4.439 127.687  0.00  0.00    +0.000 A 
BRANCH  22  29
ATOM     28  C   UNL     1      -1.832   3.115 126.767  0.00  0.00    +0.000 C 
ATOM     29  C   UNL     1      -3.106   3.854 126.348  0.00  0.00    +0.000 C 
ENDBRANCH  22  29
ENDBRANCH  21  27
ENDBRANCH   1  21
TORSDOF 6
ENDMDL
MODEL 8
REMARK VINA RESULT:      -7.6      2.097      3.268
REMARK  Name = CHEMBL551395
REMARK  9 active torsions:
REMARK  status: ('A' for Active; 'I' for Inactive)
REMARK    1  A    between atoms: C_1  and  C_2
REMARK    2  A    between atoms: C_2  and  C_3
REMARK    3  A    between atoms: C_8  and  O_9
REMARK    4  A    between atoms: O_9  and  C_10
REMARK    5  A    between atoms: C_13  and  C_14
REMARK    6  A    between atoms: C_17  and  C_18
REMARK    7  A    between atoms: N_19  and  C_20
REMARK    8  A    between atoms: C_23  and  O_24
REMARK    9  A    between atoms: O_24  and  C_25
REMARK                            x       y       z     vdW  Elec       q    Type
REMARK                         _______ _______ _______ _____ _____    ______ ____
ROOT
ATOM      1  C   UNL     1      -8.818   4.931 129.438  0.00  0.00    +0.000 A 
ATOM      2  C   UNL     1      -7.595   4.485 128.968  0.00  0.00    +0.000 A 
ATOM      3  N   UNL     1      -7.340   3.180 128.669  0.00  0.00    +0.000 NA
ATOM      4  C   UNL     1      -8.300   2.279 129.004  0.00  0.00    +0.000 A 
ATOM      5  C   UNL     1      -9.466   2.714 129.622  0.00  0.00    +0.000 A 
ATOM      6  N   UNL     1      -9.759   4.040 129.840  0.00  0.00    +0.000 NA
ENDROOT
BRANCH   4   7
ATOM      7  C   UNL     1      -7.939   0.863 128.844  0.00  0.00    +0.000 A 
ATOM      8  N   UNL     1      -7.499   0.019 129.768  0.00  0.00    +0.000 NA
ATOM      9  N   UNL     1      -7.234  -1.200 129.169  0.00  0.00    +0.000 NA
ATOM     10  C   UNL     1      -7.507  -1.093 127.882  0.00  0.00    +0.000 A 
ATOM     11  C   UNL     1      -7.165  -2.054 126.793  0.00  0.00    +0.000 C 
ATOM     12  N   UNL     1      -8.015   0.168 127.648  0.00  0.00    +0.000 N 
BRANCH  12  13
ATOM     13  C   UNL     1      -8.333   0.676 126.381  0.00  0.00    +0.000 A 
ATOM     14  C   UNL     1      -7.355   1.289 125.613  0.00  0.00    +0.000 A 
ATOM     15  C   UNL     1      -7.709   1.762 124.360  0.00  0.00    +0.000 A 
ATOM     16  C   UNL     1      -9.018   1.588 123.920  0.00  0.00    +0.000 A 
ATOM     17  N   UNL     1      -9.971   0.986 124.665  0.00  0.00    +0.000 NA
ATOM     18  C   UNL     1      -9.618   0.549 125.889  0.00  0.00    +0.000 A 
BRANCH  16  19
ATOM     19  O   UNL     1      -9.480   1.989 122.700  0.00  0.00    +0.000 OA
ATOM     20  C   UNL     1      -8.709   2.980 122.040  0.00  0.00    +0.000 C 
ENDBRANCH  16  19
ENDBRANCH  12  13
ENDBRANCH   4   7
BRANCH   1  21
ATOM     21  O   UNL     1      -9.101   6.282 129.534  0.00  0.00    +0.000 OA
BRANCH  21  27
ATOM     22  C   UNL     1     -11.470   7.167 129.764  0.00  0.00    +0.000 A 
ATOM     23  C   UNL     1     -12.555   7.760 129.074  0.00  0.00    +0.000 A 
ATOM     24  C   UNL     1     -12.547   7.928 127.699  0.00  0.00    +0.000 A 
ATOM     25  C   UNL     1     -11.418   7.560 126.987  0.00  0.00    +0.000 A 
ATOM     26  C   UNL     1     -10.303   7.027 127.660  0.00  0.00    +0.000 A 
ATOM     27  C   UNL     1     -10.299   6.816 129.060  0.00  0.00    +0.000 A 
BRANCH  22  29
ATOM     28  C   UNL     1     -12.994   7.672 131.633  0.00  0.00    +0.000 C 
ATOM     29  C   UNL     1     -11.800   6.821 131.191  0.00  0.00    +0.000 C 
ENDBRANCH  22  29
ENDBRANCH  21  27
ENDBRANCH   1  21
TORSDOF 6
ENDMDL
MODEL 9
REMARK VINA RESULT:      -7.6      5.388      8.210
REMARK  Name = CHEMBL551395
REMARK  9 active torsions:
REMARK  status: ('A' for Active; 'I' for Inactive)
REMARK    1  A    between atoms: C_1  and  C_2
REMARK    2  A    between atoms: C_2  and  C_3
REMARK    3  A    between atoms: C_8  and  O_9
REMARK    4  A    between atoms: O_9  and  C_10
REMARK    5  A    between atoms: C_13  and  C_14
REMARK    6  A    between atoms: C_17  and  C_18
REMARK    7  A    between atoms: N_19  and  C_20
REMARK    8  A    between atoms: C_23  and  O_24
REMARK    9  A    between atoms: O_24  and  C_25
REMARK                            x       y       z     vdW  Elec       q    Type
REMARK                         _______ _______ _______ _____ _____    ______ ____
ROOT
ATOM      1  C   UNL     1      -6.389   0.877 128.482  0.00  0.00    +0.000 A 
ATOM      2  C   UNL     1      -5.424   0.613 127.525  0.00  0.00    +0.000 A 
ATOM      3  N   UNL     1      -5.261   1.367 126.401  0.00  0.00    +0.000 NA
ATOM      4  C   UNL     1      -6.200   2.319 126.164  0.00  0.00    +0.000 A 
ATOM      5  C   UNL     1      -7.258   2.477 127.051  0.00  0.00    +0.000 A 
ATOM      6  N   UNL     1      -7.373   1.776 128.228  0.00  0.00    +0.000 NA
ENDROOT
BRANCH   4   7
ATOM      7  C   UNL     1      -6.113   3.000 124.864  0.00  0.00    +0.000 A 
ATOM      8  N   UNL     1      -5.534   4.159 124.582  0.00  0.00    +0.000 NA
ATOM      9  N   UNL     1      -5.736   4.444 123.243  0.00  0.00    +0.000 NA
ATOM     10  C   UNL     1      -6.442   3.462 122.715  0.00  0.00    +0.000 A 
ATOM     11  C   UNL     1      -7.102   3.427 121.378  0.00  0.00    +0.000 C 
ATOM     12  N   UNL     1      -6.644   2.501 123.685  0.00  0.00    +0.000 N 
BRANCH  12  13
ATOM     13  C   UNL     1      -7.429   1.353 123.518  0.00  0.00    +0.000 A 
ATOM     14  C   UNL     1      -6.832   0.145 123.190  0.00  0.00    +0.000 A 
ATOM     15  C   UNL     1      -7.645  -0.968 123.050  0.00  0.00    +0.000 A 
ATOM     16  C   UNL     1      -9.014  -0.834 123.260  0.00  0.00    +0.000 A 
ATOM     17  N   UNL     1      -9.597   0.341 123.585  0.00  0.00    +0.000 NA
ATOM     18  C   UNL     1      -8.798   1.420 123.698  0.00  0.00    +0.000 A 
BRANCH  16  19
ATOM     19  O   UNL     1      -9.911  -1.859 123.174  0.00  0.00    +0.000 OA
ATOM     20  C   UNL     1      -9.407  -3.150 123.474  0.00  0.00    +0.000 C 
ENDBRANCH  16  19
ENDBRANCH  12  13
ENDBRANCH   4   7
BRANCH   1  21
ATOM     21  O   UNL     1      -6.392   0.218 129.699  0.00  0.00    +0.000 OA
BRANCH  21  27
ATOM     22  C   UNL     1      -5.338  -2.062 130.075  0.00  0.00    +0.000 A 
ATOM     23  C   UNL     1      -5.590  -3.452 130.163  0.00  0.00    +0.000 A 
ATOM     24  C   UNL     1      -6.833  -3.993 129.878  0.00  0.00    +0.000 A 
ATOM     25  C   UNL     1      -7.875  -3.139 129.553  0.00  0.00    +0.000 A 
ATOM     26  C   UNL     1      -7.663  -1.749 129.520  0.00  0.00    +0.000 A 
ATOM     27  C   UNL     1      -6.394  -1.175 129.779  0.00  0.00    +0.000 A 
BRANCH  22  29
ATOM     28  C   UNL     1      -3.079  -2.895 129.556  0.00  0.00    +0.000 C 
ATOM     29  C   UNL     1      -3.873  -1.726 130.144  0.00  0.00    +0.000 C 
ENDBRANCH  22  29
ENDBRANCH  21  27
ENDBRANCH   1  21
TORSDOF 6
ENDMDL
