MODEL 1
REMARK VINA RESULT:      -8.9      0.000      0.000
REMARK  Name = CHEMBL515660
REMARK  11 active torsions:
REMARK  status: ('A' for Active; 'I' for Inactive)
REMARK    1  A    between atoms: C_1  and  O_2
REMARK    2  A    between atoms: O_2  and  C_3
REMARK    3  A    between atoms: C_6  and  S_7
REMARK    4  A    between atoms: S_7  and  N_10
REMARK    5  A    between atoms: N_10  and  C_11
REMARK    6  A    between atoms: N_10  and  C_26
REMARK    7  A    between atoms: C_11  and  C_12
REMARK    8  A    between atoms: C_15  and  C_16
REMARK    9  A    between atoms: C_21  and  C_22
REMARK   10  A    between atoms: C_29  and  O_30
REMARK   11  A    between atoms: O_30  and  C_31
REMARK                            x       y       z     vdW  Elec       q    Type
REMARK                         _______ _______ _______ _____ _____    ______ ____
ROOT
ATOM      1  N   UNL     1      -8.229   1.586 123.792  0.00  0.00    +0.000 N 
ENDROOT
BRANCH   1   2
ATOM      2  C   UNL     1      -7.767   2.417 122.662  0.00  0.00    +0.000 A 
ATOM      3  C   UNL     1      -6.417   2.711 122.478  0.00  0.00    +0.000 A 
ATOM      4  C   UNL     1      -6.006   3.548 121.437  0.00  0.00    +0.000 A 
ATOM      5  C   UNL     1      -6.948   4.060 120.559  0.00  0.00    +0.000 A 
ATOM      6  N   UNL     1      -8.261   3.769 120.682  0.00  0.00    +0.000 NA
ATOM      7  C   UNL     1      -8.637   2.974 121.727  0.00  0.00    +0.000 A 
BRANCH   5   8
ATOM      8  O   UNL     1      -6.647   4.882 119.504  0.00  0.00    +0.000 OA
ATOM      9  C   UNL     1      -5.360   5.494 119.537  0.00  0.00    +0.000 C 
ENDBRANCH   5   8
ENDBRANCH   1   2
BRANCH   1  10
ATOM     10  S   UNL     1      -8.455   2.555 125.210  0.00  0.00    +0.000 S 
ATOM     11  O   UNL     1      -9.251   1.801 126.161  0.00  0.00    +0.000 OA
ATOM     12  O   UNL     1      -8.825   3.878 124.764  0.00  0.00    +0.000 OA
BRANCH  10  16
ATOM     13  C   UNL     1      -4.252   3.340 126.140  0.00  0.00    +0.000 A 
ATOM     14  C   UNL     1      -5.072   4.376 126.278  0.00  0.00    +0.000 A 
ATOM     15  C   UNL     1      -6.462   4.083 126.370  0.00  0.00    +0.000 A 
ATOM     16  C   UNL     1      -7.028   2.818 126.099  0.00  0.00    +0.000 A 
ATOM     17  C   UNL     1      -6.386   1.739 126.448  0.00  0.00    +0.000 A 
ATOM     18  C   UNL     1      -5.099   2.156 126.304  0.00  0.00    +0.000 A 
BRANCH  13  20
ATOM     19  C   UNL     1      -1.487   2.983 126.476  0.00  0.00    +0.000 C 
ATOM     20  O   UNL     1      -2.839   3.620 126.098  0.00  0.00    +0.000 OA
ENDBRANCH  13  20
ENDBRANCH  10  16
ENDBRANCH   1  10
BRANCH   1  21
ATOM     21  C   UNL     1      -8.434   0.081 123.464  0.00  0.00    +0.000 C 
BRANCH  21  22
ATOM     22  C   UNL     1      -8.071  -1.229 124.368  0.00  0.00    +0.000 A 
ATOM     23  C   UNL     1      -6.664  -1.532 124.641  0.00  0.00    +0.000 A 
ATOM     24  C   UNL     1      -6.400  -2.401 125.885  0.00  0.00    +0.000 A 
ATOM     25  C   UNL     1      -7.671  -2.688 127.046  0.00  0.00    +0.000 A 
ATOM     26  C   UNL     1      -9.013  -2.398 126.532  0.00  0.00    +0.000 A 
ATOM     27  N   UNL     1      -9.207  -1.743 125.237  0.00  0.00    +0.000 NA
BRANCH  25  28
ATOM     28  C   UNL     1      -7.687  -2.362 128.852  0.00  0.00    +0.000 A 
ATOM     29  C   UNL     1      -7.263  -3.585 129.320  0.00  0.00    +0.000 A 
ATOM     30  C   UNL     1      -6.684  -3.731 130.558  0.00  0.00    +0.000 A 
ATOM     31  C   UNL     1      -6.416  -2.639 131.385  0.00  0.00    +0.000 A 
ATOM     32  C   UNL     1      -6.892  -1.374 131.104  0.00  0.00    +0.000 A 
ATOM     33  C   UNL     1      -7.680  -1.194 129.952  0.00  0.00    +0.000 A 
BRANCH  33  34
ATOM     34  C   UNL     1      -8.115   0.277 130.067  0.00  0.00    +0.000 C 
ATOM     35  N   UNL     1      -8.407   1.368 129.907  0.00  0.00    +0.000 NA
ENDBRANCH  33  34
ENDBRANCH  25  28
ENDBRANCH  21  22
ENDBRANCH   1  21
TORSDOF 9
ENDMDL
MODEL 2
REMARK VINA RESULT:      -8.8      4.102      7.483
REMARK  Name = CHEMBL515660
REMARK  11 active torsions:
REMARK  status: ('A' for Active; 'I' for Inactive)
REMARK    1  A    between atoms: C_1  and  O_2
REMARK    2  A    between atoms: O_2  and  C_3
REMARK    3  A    between atoms: C_6  and  S_7
REMARK    4  A    between atoms: S_7  and  N_10
REMARK    5  A    between atoms: N_10  and  C_11
REMARK    6  A    between atoms: N_10  and  C_26
REMARK    7  A    between atoms: C_11  and  C_12
REMARK    8  A    between atoms: C_15  and  C_16
REMARK    9  A    between atoms: C_21  and  C_22
REMARK   10  A    between atoms: C_29  and  O_30
REMARK   11  A    between atoms: O_30  and  C_31
REMARK                            x       y       z     vdW  Elec       q    Type
REMARK                         _______ _______ _______ _____ _____    ______ ____
ROOT
ATOM      1  N   UNL     1      -7.383   2.391 126.510  0.00  0.00    +0.000 N 
ENDROOT
BRANCH   1   2
ATOM      2  C   UNL     1      -7.455   1.071 125.850  0.00  0.00    +0.000 A 
ATOM      3  C   UNL     1      -6.322   0.460 125.315  0.00  0.00    +0.000 A 
ATOM      4  C   UNL     1      -6.421  -0.761 124.644  0.00  0.00    +0.000 A 
ATOM      5  C   UNL     1      -7.653  -1.386 124.541  0.00  0.00    +0.000 A 
ATOM      6  N   UNL     1      -8.768  -0.845 125.077  0.00  0.00    +0.000 NA
ATOM      7  C   UNL     1      -8.647   0.364 125.700  0.00  0.00    +0.000 A 
BRANCH   5   8
ATOM      8  O   UNL     1      -7.854  -2.586 123.909  0.00  0.00    +0.000 OA
ATOM      9  C   UNL     1      -9.192  -3.077 123.912  0.00  0.00    +0.000 C 
ENDBRANCH   5   8
ENDBRANCH   1   2
BRANCH   1  10
ATOM     10  S   UNL     1      -7.610   3.662 125.355  0.00  0.00    +0.000 S 
ATOM     11  O   UNL     1      -6.509   4.601 125.482  0.00  0.00    +0.000 OA
ATOM     12  O   UNL     1      -8.992   4.072 125.442  0.00  0.00    +0.000 OA
BRANCH  10  16
ATOM     13  C   UNL     1      -7.293   3.824 120.994  0.00  0.00    +0.000 A 
ATOM     14  C   UNL     1      -6.148   3.650 121.646  0.00  0.00    +0.000 A 
ATOM     15  C   UNL     1      -6.241   3.206 122.995  0.00  0.00    +0.000 A 
ATOM     16  C   UNL     1      -7.442   3.163 123.738  0.00  0.00    +0.000 A 
ATOM     17  C   UNL     1      -8.551   2.822 123.146  0.00  0.00    +0.000 A 
ATOM     18  C   UNL     1      -8.327   3.309 121.895  0.00  0.00    +0.000 A 
BRANCH  13  20
ATOM     19  C   UNL     1      -6.378   5.125 118.680  0.00  0.00    +0.000 C 
ATOM     20  O   UNL     1      -7.210   4.221 119.612  0.00  0.00    +0.000 OA
ENDBRANCH  13  20
ENDBRANCH  10  16
ENDBRANCH   1  10
BRANCH   1  21
ATOM     21  C   UNL     1      -7.158   2.349 128.046  0.00  0.00    +0.000 C 
BRANCH  21  22
ATOM     22  C   UNL     1      -7.868   3.241 129.215  0.00  0.00    +0.000 A 
ATOM     23  C   UNL     1      -7.255   4.513 129.605  0.00  0.00    +0.000 A 
ATOM     24  C   UNL     1      -8.199   5.529 130.275  0.00  0.00    +0.000 A 
ATOM     25  C   UNL     1      -9.927   5.286 130.236  0.00  0.00    +0.000 A 
ATOM     26  C   UNL     1     -10.320   3.913 129.906  0.00  0.00    +0.000 A 
ATOM     27  N   UNL     1      -9.335   2.925 129.461  0.00  0.00    +0.000 NA
BRANCH  25  28
ATOM     28  C   UNL     1     -11.241   6.404 129.611  0.00  0.00    +0.000 A 
ATOM     29  C   UNL     1     -11.924   6.648 130.780  0.00  0.00    +0.000 A 
ATOM     30  C   UNL     1     -12.713   7.762 130.945  0.00  0.00    +0.000 A 
ATOM     31  C   UNL     1     -12.808   8.754 129.969  0.00  0.00    +0.000 A 
ATOM     32  C   UNL     1     -12.281   8.590 128.704  0.00  0.00    +0.000 A 
ATOM     33  C   UNL     1     -11.640   7.375 128.397  0.00  0.00    +0.000 A 
BRANCH  33  34
ATOM     34  C   UNL     1     -11.325   7.528 126.899  0.00  0.00    +0.000 C 
ATOM     35  N   UNL     1     -10.860   7.593 125.860  0.00  0.00    +0.000 NA
ENDBRANCH  33  34
ENDBRANCH  25  28
ENDBRANCH  21  22
ENDBRANCH   1  21
TORSDOF 9
ENDMDL
MODEL 3
REMARK VINA RESULT:      -8.7      5.267      7.867
REMARK  Name = CHEMBL515660
REMARK  11 active torsions:
REMARK  status: ('A' for Active; 'I' for Inactive)
REMARK    1  A    between atoms: C_1  and  O_2
REMARK    2  A    between atoms: O_2  and  C_3
REMARK    3  A    between atoms: C_6  and  S_7
REMARK    4  A    between atoms: S_7  and  N_10
REMARK    5  A    between atoms: N_10  and  C_11
REMARK    6  A    between atoms: N_10  and  C_26
REMARK    7  A    between atoms: C_11  and  C_12
REMARK    8  A    between atoms: C_15  and  C_16
REMARK    9  A    between atoms: C_21  and  C_22
REMARK   10  A    between atoms: C_29  and  O_30
REMARK   11  A    between atoms: O_30  and  C_31
REMARK                            x       y       z     vdW  Elec       q    Type
REMARK                         _______ _______ _______ _____ _____    ______ ____
ROOT
ATOM      1  N   UNL     1      -6.067   3.759 128.302  0.00  0.00    +0.000 N 
ENDROOT
BRANCH   1   2
ATOM      2  C   UNL     1      -6.663   3.617 126.958  0.00  0.00    +0.000 A 
ATOM      3  C   UNL     1      -6.056   2.844 125.969  0.00  0.00    +0.000 A 
ATOM      4  C   UNL     1      -6.605   2.770 124.686  0.00  0.00    +0.000 A 
ATOM      5  C   UNL     1      -7.784   3.442 124.407  0.00  0.00    +0.000 A 
ATOM      6  N   UNL     1      -8.422   4.171 125.348  0.00  0.00    +0.000 NA
ATOM      7  C   UNL     1      -7.847   4.252 126.583  0.00  0.00    +0.000 A 
BRANCH   5   8
ATOM      8  O   UNL     1      -8.405   3.427 123.185  0.00  0.00    +0.000 OA
ATOM      9  C   UNL     1      -9.102   2.228 122.853  0.00  0.00    +0.000 C 
ENDBRANCH   5   8
ENDBRANCH   1   2
BRANCH   1  10
ATOM     10  S   UNL     1      -4.507   4.504 128.201  0.00  0.00    +0.000 S 
ATOM     11  O   UNL     1      -4.623   5.711 127.402  0.00  0.00    +0.000 OA
ATOM     12  O   UNL     1      -3.558   3.459 127.893  0.00  0.00    +0.000 OA
BRANCH  10  16
ATOM     13  C   UNL     1      -1.884   6.363 131.169  0.00  0.00    +0.000 A 
ATOM     14  C   UNL     1      -2.834   7.148 130.672  0.00  0.00    +0.000 A 
ATOM     15  C   UNL     1      -3.923   6.502 130.023  0.00  0.00    +0.000 A 
ATOM     16  C   UNL     1      -3.945   5.132 129.679  0.00  0.00    +0.000 A 
ATOM     17  C   UNL     1      -3.406   4.259 130.482  0.00  0.00    +0.000 A 
ATOM     18  C   UNL     1      -2.395   4.999 131.013  0.00  0.00    +0.000 A 
BRANCH  13  20
ATOM     19  C   UNL     1      -0.292   7.238 133.310  0.00  0.00    +0.000 C 
ATOM     20  O   UNL     1      -0.804   7.003 131.874  0.00  0.00    +0.000 OA
ENDBRANCH  13  20
ENDBRANCH  10  16
ENDBRANCH   1  10
BRANCH   1  21
ATOM     21  C   UNL     1      -6.954   3.255 129.474  0.00  0.00    +0.000 C 
BRANCH  21  22
ATOM     22  C   UNL     1      -8.001   4.091 130.406  0.00  0.00    +0.000 A 
ATOM     23  C   UNL     1      -7.590   5.392 130.939  0.00  0.00    +0.000 A 
ATOM     24  C   UNL     1      -8.736   6.345 131.327  0.00  0.00    +0.000 A 
ATOM     25  C   UNL     1     -10.374   6.002 130.830  0.00  0.00    +0.000 A 
ATOM     26  C   UNL     1     -10.583   4.612 130.414  0.00  0.00    +0.000 A 
ATOM     27  N   UNL     1      -9.459   3.689 130.253  0.00  0.00    +0.000 NA
BRANCH  25  28
ATOM     28  C   UNL     1     -11.538   7.049 129.872  0.00  0.00    +0.000 A 
ATOM     29  C   UNL     1     -12.342   7.508 130.889  0.00  0.00    +0.000 A 
ATOM     30  C   UNL     1     -13.081   8.661 130.772  0.00  0.00    +0.000 A 
ATOM     31  C   UNL     1     -13.000   9.481 129.646  0.00  0.00    +0.000 A 
ATOM     32  C   UNL     1     -12.334   9.091 128.502  0.00  0.00    +0.000 A 
ATOM     33  C   UNL     1     -11.731   7.819 128.477  0.00  0.00    +0.000 A 
BRANCH  33  34
ATOM     34  C   UNL     1     -11.230   7.712 127.027  0.00  0.00    +0.000 C 
ATOM     35  N   UNL     1     -10.961   7.855 125.928  0.00  0.00    +0.000 NA
ENDBRANCH  33  34
ENDBRANCH  25  28
ENDBRANCH  21  22
ENDBRANCH   1  21
TORSDOF 9
ENDMDL
MODEL 4
REMARK VINA RESULT:      -8.6      3.613      6.839
REMARK  Name = CHEMBL515660
REMARK  11 active torsions:
REMARK  status: ('A' for Active; 'I' for Inactive)
REMARK    1  A    between atoms: C_1  and  O_2
REMARK    2  A    between atoms: O_2  and  C_3
REMARK    3  A    between atoms: C_6  and  S_7
REMARK    4  A    between atoms: S_7  and  N_10
REMARK    5  A    between atoms: N_10  and  C_11
REMARK    6  A    between atoms: N_10  and  C_26
REMARK    7  A    between atoms: C_11  and  C_12
REMARK    8  A    between atoms: C_15  and  C_16
REMARK    9  A    between atoms: C_21  and  C_22
REMARK   10  A    between atoms: C_29  and  O_30
REMARK   11  A    between atoms: O_30  and  C_31
REMARK                            x       y       z     vdW  Elec       q    Type
REMARK                         _______ _______ _______ _____ _____    ______ ____
ROOT
ATOM      1  N   UNL     1      -8.144   4.130 129.753  0.00  0.00    +0.000 N 
ENDROOT
BRANCH   1   2
ATOM      2  C   UNL     1      -9.307   5.001 130.021  0.00  0.00    +0.000 A 
ATOM      3  C   UNL     1     -10.577   4.472 130.246  0.00  0.00    +0.000 A 
ATOM      4  C   UNL     1     -11.675   5.315 130.440  0.00  0.00    +0.000 A 
ATOM      5  C   UNL     1     -11.490   6.688 130.444  0.00  0.00    +0.000 A 
ATOM      6  N   UNL     1     -10.269   7.238 130.267  0.00  0.00    +0.000 NA
ATOM      7  C   UNL     1      -9.220   6.392 130.049  0.00  0.00    +0.000 A 
BRANCH   5   8
ATOM      8  O   UNL     1     -12.498   7.598 130.633  0.00  0.00    +0.000 OA
ATOM      9  C   UNL     1     -12.502   8.718 129.751  0.00  0.00    +0.000 C 
ENDBRANCH   5   8
ENDBRANCH   1   2
BRANCH   1  10
ATOM     10  S   UNL     1      -7.692   4.214 128.083  0.00  0.00    +0.000 S 
ATOM     11  O   UNL     1      -6.285   4.562 128.003  0.00  0.00    +0.000 OA
ATOM     12  O   UNL     1      -8.718   4.972 127.404  0.00  0.00    +0.000 OA
BRANCH  10  16
ATOM     13  C   UNL     1      -8.886   0.990 125.377  0.00  0.00    +0.000 A 
ATOM     14  C   UNL     1      -7.824   1.692 124.998  0.00  0.00    +0.000 A 
ATOM     15  C   UNL     1      -7.177   2.466 126.002  0.00  0.00    +0.000 A 
ATOM     16  C   UNL     1      -7.713   2.712 127.286  0.00  0.00    +0.000 A 
ATOM     17  C   UNL     1      -8.376   1.770 127.896  0.00  0.00    +0.000 A 
ATOM     18  C   UNL     1      -8.939   1.132 126.834  0.00  0.00    +0.000 A 
BRANCH  13  20
ATOM     19  C   UNL     1      -9.160  -0.763 123.200  0.00  0.00    +0.000 C 
ATOM     20  O   UNL     1      -9.517   0.161 124.381  0.00  0.00    +0.000 OA
ENDBRANCH  13  20
ENDBRANCH  10  16
ENDBRANCH   1  10
BRANCH   1  21
ATOM     21  C   UNL     1      -7.582   3.379 130.991  0.00  0.00    +0.000 C 
BRANCH  21  22
ATOM     22  C   UNL     1      -7.445   1.772 131.246  0.00  0.00    +0.000 A 
ATOM     23  C   UNL     1      -8.651   1.001 131.560  0.00  0.00    +0.000 A 
ATOM     24  C   UNL     1      -8.572  -0.508 131.261  0.00  0.00    +0.000 A 
ATOM     25  C   UNL     1      -7.263  -1.149 130.301  0.00  0.00    +0.000 A 
ATOM     26  C   UNL     1      -6.118  -0.241 130.187  0.00  0.00    +0.000 A 
ATOM     27  N   UNL     1      -6.188   1.137 130.676  0.00  0.00    +0.000 NA
BRANCH  25  28
ATOM     28  C   UNL     1      -7.334  -2.147 128.762  0.00  0.00    +0.000 A 
ATOM     29  C   UNL     1      -8.206  -3.135 129.157  0.00  0.00    +0.000 A 
ATOM     30  C   UNL     1      -8.932  -3.872 128.252  0.00  0.00    +0.000 A 
ATOM     31  C   UNL     1      -8.893  -3.610 126.882  0.00  0.00    +0.000 A 
ATOM     32  C   UNL     1      -7.979  -2.735 126.329  0.00  0.00    +0.000 A 
ATOM     33  C   UNL     1      -7.055  -2.103 127.182  0.00  0.00    +0.000 A 
BRANCH  33  34
ATOM     34  C   UNL     1      -6.151  -1.343 126.197  0.00  0.00    +0.000 C 
ATOM     35  N   UNL     1      -5.298  -0.864 125.611  0.00  0.00    +0.000 NA
ENDBRANCH  33  34
ENDBRANCH  25  28
ENDBRANCH  21  22
ENDBRANCH   1  21
TORSDOF 9
ENDMDL
MODEL 5
REMARK VINA RESULT:      -8.6      5.142      8.595
REMARK  Name = CHEMBL515660
REMARK  11 active torsions:
REMARK  status: ('A' for Active; 'I' for Inactive)
REMARK    1  A    between atoms: C_1  and  O_2
REMARK    2  A    between atoms: O_2  and  C_3
REMARK    3  A    between atoms: C_6  and  S_7
REMARK    4  A    between atoms: S_7  and  N_10
REMARK    5  A    between atoms: N_10  and  C_11
REMARK    6  A    between atoms: N_10  and  C_26
REMARK    7  A    between atoms: C_11  and  C_12
REMARK    8  A    between atoms: C_15  and  C_16
REMARK    9  A    between atoms: C_21  and  C_22
REMARK   10  A    between atoms: C_29  and  O_30
REMARK   11  A    between atoms: O_30  and  C_31
REMARK                            x       y       z     vdW  Elec       q    Type
REMARK                         _______ _______ _______ _____ _____    ______ ____
ROOT
ATOM      1  N   UNL     1      -9.576   5.657 131.273  0.00  0.00    +0.000 N 
ENDROOT
BRANCH   1   2
ATOM      2  C   UNL     1     -10.530   6.651 130.740  0.00  0.00    +0.000 A 
ATOM      3  C   UNL     1     -11.766   6.874 131.345  0.00  0.00    +0.000 A 
ATOM      4  C   UNL     1     -12.678   7.776 130.792  0.00  0.00    +0.000 A 
ATOM      5  C   UNL     1     -12.334   8.482 129.650  0.00  0.00    +0.000 A 
ATOM      6  N   UNL     1     -11.133   8.322 129.055  0.00  0.00    +0.000 NA
ATOM      7  C   UNL     1     -10.274   7.411 129.599  0.00  0.00    +0.000 A 
BRANCH   5   8
ATOM      8  O   UNL     1     -13.154   9.393 129.035  0.00  0.00    +0.000 OA
ATOM      9  C   UNL     1     -13.434  10.579 129.774  0.00  0.00    +0.000 C 
ENDBRANCH   5   8
ENDBRANCH   1   2
BRANCH   1  10
ATOM     10  S   UNL     1     -10.062   4.053 130.837  0.00  0.00    +0.000 S 
ATOM     11  O   UNL     1     -11.323   4.131 130.123  0.00  0.00    +0.000 OA
ATOM     12  O   UNL     1      -9.883   3.224 132.007  0.00  0.00    +0.000 OA
BRANCH  10  16
ATOM     13  C   UNL     1      -6.598   2.108 129.003  0.00  0.00    +0.000 A 
ATOM     14  C   UNL     1      -7.617   1.307 129.295  0.00  0.00    +0.000 A 
ATOM     15  C   UNL     1      -8.877   1.930 129.517  0.00  0.00    +0.000 A 
ATOM     16  C   UNL     1      -9.060   3.322 129.672  0.00  0.00    +0.000 A 
ATOM     17  C   UNL     1      -8.346   4.147 128.960  0.00  0.00    +0.000 A 
ATOM     18  C   UNL     1      -7.192   3.437 128.838  0.00  0.00    +0.000 A 
BRANCH  13  20
ATOM     19  C   UNL     1      -3.967   1.204 129.389  0.00  0.00    +0.000 C 
ATOM     20  O   UNL     1      -5.329   1.484 128.724  0.00  0.00    +0.000 OA
ENDBRANCH  13  20
ENDBRANCH  10  16
ENDBRANCH   1  10
BRANCH   1  21
ATOM     21  C   UNL     1      -8.372   6.252 132.054  0.00  0.00    +0.000 C 
BRANCH  21  22
ATOM     22  C   UNL     1      -6.774   6.069 131.775  0.00  0.00    +0.000 A 
ATOM     23  C   UNL     1      -6.154   4.768 132.038  0.00  0.00    +0.000 A 
ATOM     24  C   UNL     1      -4.841   4.491 131.281  0.00  0.00    +0.000 A 
ATOM     25  C   UNL     1      -4.350   5.522 129.962  0.00  0.00    +0.000 A 
ATOM     26  C   UNL     1      -5.040   6.815 129.938  0.00  0.00    +0.000 A 
ATOM     27  N   UNL     1      -6.166   7.093 130.831  0.00  0.00    +0.000 NA
BRANCH  25  28
ATOM     28  C   UNL     1      -3.952   5.074 128.226  0.00  0.00    +0.000 A 
ATOM     29  C   UNL     1      -2.691   4.552 128.396  0.00  0.00    +0.000 A 
ATOM     30  C   UNL     1      -2.136   3.676 127.493  0.00  0.00    +0.000 A 
ATOM     31  C   UNL     1      -2.846   3.200 126.391  0.00  0.00    +0.000 A 
ATOM     32  C   UNL     1      -4.069   3.725 126.025  0.00  0.00    +0.000 A 
ATOM     33  C   UNL     1      -4.602   4.780 126.789  0.00  0.00    +0.000 A 
BRANCH  33  34
ATOM     34  C   UNL     1      -5.866   5.163 126.000  0.00  0.00    +0.000 C 
ATOM     35  N   UNL     1      -6.886   5.227 125.494  0.00  0.00    +0.000 NA
ENDBRANCH  33  34
ENDBRANCH  25  28
ENDBRANCH  21  22
ENDBRANCH   1  21
TORSDOF 9
ENDMDL
MODEL 6
REMARK VINA RESULT:      -8.5      5.394      8.801
REMARK  Name = CHEMBL515660
REMARK  11 active torsions:
REMARK  status: ('A' for Active; 'I' for Inactive)
REMARK    1  A    between atoms: C_1  and  O_2
REMARK    2  A    between atoms: O_2  and  C_3
REMARK    3  A    between atoms: C_6  and  S_7
REMARK    4  A    between atoms: S_7  and  N_10
REMARK    5  A    between atoms: N_10  and  C_11
REMARK    6  A    between atoms: N_10  and  C_26
REMARK    7  A    between atoms: C_11  and  C_12
REMARK    8  A    between atoms: C_15  and  C_16
REMARK    9  A    between atoms: C_21  and  C_22
REMARK   10  A    between atoms: C_29  and  O_30
REMARK   11  A    between atoms: O_30  and  C_31
REMARK                            x       y       z     vdW  Elec       q    Type
REMARK                         _______ _______ _______ _____ _____    ______ ____
ROOT
ATOM      1  N   UNL     1      -8.755   4.657 131.003  0.00  0.00    +0.000 N 
ENDROOT
BRANCH   1   2
ATOM      2  C   UNL     1      -7.801   4.241 132.051  0.00  0.00    +0.000 A 
ATOM      3  C   UNL     1      -8.180   3.388 133.086  0.00  0.00    +0.000 A 
ATOM      4  C   UNL     1      -7.279   3.053 134.100  0.00  0.00    +0.000 A 
ATOM      5  C   UNL     1      -5.985   3.547 134.054  0.00  0.00    +0.000 A 
ATOM      6  N   UNL     1      -5.568   4.347 133.049  0.00  0.00    +0.000 NA
ATOM      7  C   UNL     1      -6.479   4.682 132.089  0.00  0.00    +0.000 A 
BRANCH   5   8
ATOM      8  O   UNL     1      -5.025   3.273 134.994  0.00  0.00    +0.000 OA
ATOM      9  C   UNL     1      -3.837   4.057 134.921  0.00  0.00    +0.000 C 
ENDBRANCH   5   8
ENDBRANCH   1   2
BRANCH   1  10
ATOM     10  S   UNL     1      -9.174   6.328 131.189  0.00  0.00    +0.000 S 
ATOM     11  O   UNL     1      -8.151   7.133 130.547  0.00  0.00    +0.000 OA
ATOM     12  O   UNL     1      -9.558   6.518 132.569  0.00  0.00    +0.000 OA
BRANCH  10  16
ATOM     13  C   UNL     1     -12.415   8.796 129.593  0.00  0.00    +0.000 A 
ATOM     14  C   UNL     1     -11.413   8.554 128.755  0.00  0.00    +0.000 A 
ATOM     15  C   UNL     1     -10.555   7.466 129.080  0.00  0.00    +0.000 A 
ATOM     16  C   UNL     1     -10.562   6.791 130.321  0.00  0.00    +0.000 A 
ATOM     17  C   UNL     1     -11.693   6.583 130.933  0.00  0.00    +0.000 A 
ATOM     18  C   UNL     1     -12.393   7.684 130.546  0.00  0.00    +0.000 A 
BRANCH  13  20
ATOM     19  C   UNL     1     -13.705  11.289 129.685  0.00  0.00    +0.000 C 
ATOM     20  O   UNL     1     -13.320   9.862 129.246  0.00  0.00    +0.000 OA
ENDBRANCH  13  20
ENDBRANCH  10  16
ENDBRANCH   1  10
BRANCH   1  21
ATOM     21  C   UNL     1      -9.137   3.551 129.982  0.00  0.00    +0.000 C 
BRANCH  21  22
ATOM     22  C   UNL     1      -8.184   2.758 128.919  0.00  0.00    +0.000 A 
ATOM     23  C   UNL     1      -6.897   2.230 129.380  0.00  0.00    +0.000 A 
ATOM     24  C   UNL     1      -6.314   1.075 128.545  0.00  0.00    +0.000 A 
ATOM     25  C   UNL     1      -7.301   0.257 127.361  0.00  0.00    +0.000 A 
ATOM     26  C   UNL     1      -8.502   1.006 126.979  0.00  0.00    +0.000 A 
ATOM     27  N   UNL     1      -8.900   2.221 127.691  0.00  0.00    +0.000 NA
BRANCH  25  28
ATOM     28  C   UNL     1      -7.692  -1.530 127.213  0.00  0.00    +0.000 A 
ATOM     29  C   UNL     1      -7.346  -1.957 128.475  0.00  0.00    +0.000 A 
ATOM     30  C   UNL     1      -7.859  -3.109 129.021  0.00  0.00    +0.000 A 
ATOM     31  C   UNL     1      -8.822  -3.876 128.364  0.00  0.00    +0.000 A 
ATOM     32  C   UNL     1      -9.174  -3.642 127.050  0.00  0.00    +0.000 A 
ATOM     33  C   UNL     1      -8.526  -2.602 126.358  0.00  0.00    +0.000 A 
BRANCH  33  34
ATOM     34  C   UNL     1      -9.079  -2.750 124.930  0.00  0.00    +0.000 C 
ATOM     35  N   UNL     1      -9.641  -3.026 123.977  0.00  0.00    +0.000 NA
ENDBRANCH  33  34
ENDBRANCH  25  28
ENDBRANCH  21  22
ENDBRANCH   1  21
TORSDOF 9
ENDMDL
MODEL 7
REMARK VINA RESULT:      -8.5      5.773      8.613
REMARK  Name = CHEMBL515660
REMARK  11 active torsions:
REMARK  status: ('A' for Active; 'I' for Inactive)
REMARK    1  A    between atoms: C_1  and  O_2
REMARK    2  A    between atoms: O_2  and  C_3
REMARK    3  A    between atoms: C_6  and  S_7
REMARK    4  A    between atoms: S_7  and  N_10
REMARK    5  A    between atoms: N_10  and  C_11
REMARK    6  A    between atoms: N_10  and  C_26
REMARK    7  A    between atoms: C_11  and  C_12
REMARK    8  A    between atoms: C_15  and  C_16
REMARK    9  A    between atoms: C_21  and  C_22
REMARK   10  A    between atoms: C_29  and  O_30
REMARK   11  A    between atoms: O_30  and  C_31
REMARK                            x       y       z     vdW  Elec       q    Type
REMARK                         _______ _______ _______ _____ _____    ______ ____
ROOT
ATOM      1  N   UNL     1      -9.911   5.467 131.453  0.00  0.00    +0.000 N 
ENDROOT
BRANCH   1   2
ATOM      2  C   UNL     1     -10.790   6.516 130.898  0.00  0.00    +0.000 A 
ATOM      3  C   UNL     1     -12.039   6.791 131.453  0.00  0.00    +0.000 A 
ATOM      4  C   UNL     1     -12.880   7.746 130.878  0.00  0.00    +0.000 A 
ATOM      5  C   UNL     1     -12.451   8.453 129.766  0.00  0.00    +0.000 A 
ATOM      6  N   UNL     1     -11.234   8.242 129.220  0.00  0.00    +0.000 NA
ATOM      7  C   UNL     1     -10.446   7.281 129.784  0.00  0.00    +0.000 A 
BRANCH   5   8
ATOM      8  O   UNL     1     -13.196   9.414 129.133  0.00  0.00    +0.000 OA
ATOM      9  C   UNL     1     -13.369  10.638 129.842  0.00  0.00    +0.000 C 
ENDBRANCH   5   8
ENDBRANCH   1   2
BRANCH   1  10
ATOM     10  S   UNL     1      -9.931   4.059 130.444  0.00  0.00    +0.000 S 
ATOM     11  O   UNL     1      -9.064   4.297 129.304  0.00  0.00    +0.000 OA
ATOM     12  O   UNL     1     -11.312   3.661 130.298  0.00  0.00    +0.000 OA
BRANCH  10  16
ATOM     13  C   UNL     1      -8.531  -0.047 131.014  0.00  0.00    +0.000 A 
ATOM     14  C   UNL     1      -7.605   0.826 130.635  0.00  0.00    +0.000 A 
ATOM     15  C   UNL     1      -7.912   2.204 130.817  0.00  0.00    +0.000 A 
ATOM     16  C   UNL     1      -9.194   2.696 131.148  0.00  0.00    +0.000 A 
ATOM     17  C   UNL     1      -9.947   2.025 131.973  0.00  0.00    +0.000 A 
ATOM     18  C   UNL     1      -9.559   0.752 131.686  0.00  0.00    +0.000 A 
BRANCH  13  20
ATOM     19  C   UNL     1      -6.990  -2.386 130.813  0.00  0.00    +0.000 C 
ATOM     20  O   UNL     1      -8.210  -1.446 130.885  0.00  0.00    +0.000 OA
ENDBRANCH  13  20
ENDBRANCH  10  16
ENDBRANCH   1  10
BRANCH   1  21
ATOM     21  C   UNL     1      -9.164   5.855 132.759  0.00  0.00    +0.000 C 
BRANCH  21  22
ATOM     22  C   UNL     1      -7.799   5.220 133.391  0.00  0.00    +0.000 A 
ATOM     23  C   UNL     1      -7.895   4.006 134.205  0.00  0.00    +0.000 A 
ATOM     24  C   UNL     1      -6.604   3.173 134.313  0.00  0.00    +0.000 A 
ATOM     25  C   UNL     1      -5.256   3.496 133.253  0.00  0.00    +0.000 A 
ATOM     26  C   UNL     1      -5.320   4.808 132.603  0.00  0.00    +0.000 A 
ATOM     27  N   UNL     1      -6.514   5.650 132.704  0.00  0.00    +0.000 NA
BRANCH  25  28
ATOM     28  C   UNL     1      -4.378   2.356 132.113  0.00  0.00    +0.000 A 
ATOM     29  C   UNL     1      -4.143   1.300 132.963  0.00  0.00    +0.000 A 
ATOM     30  C   UNL     1      -3.917   0.026 132.500  0.00  0.00    +0.000 A 
ATOM     31  C   UNL     1      -3.992  -0.293 131.143  0.00  0.00    +0.000 A 
ATOM     32  C   UNL     1      -4.097   0.678 130.167  0.00  0.00    +0.000 A 
ATOM     33  C   UNL     1      -4.118   2.028 130.564  0.00  0.00    +0.000 A 
BRANCH  33  34
ATOM     34  C   UNL     1      -4.104   2.775 129.219  0.00  0.00    +0.000 C 
ATOM     35  N   UNL     1      -3.849   3.290 128.235  0.00  0.00    +0.000 NA
ENDBRANCH  33  34
ENDBRANCH  25  28
ENDBRANCH  21  22
ENDBRANCH   1  21
TORSDOF 9
ENDMDL
MODEL 8
REMARK VINA RESULT:      -8.4      4.975      7.484
REMARK  Name = CHEMBL515660
REMARK  11 active torsions:
REMARK  status: ('A' for Active; 'I' for Inactive)
REMARK    1  A    between atoms: C_1  and  O_2
REMARK    2  A    between atoms: O_2  and  C_3
REMARK    3  A    between atoms: C_6  and  S_7
REMARK    4  A    between atoms: S_7  and  N_10
REMARK    5  A    between atoms: N_10  and  C_11
REMARK    6  A    between atoms: N_10  and  C_26
REMARK    7  A    between atoms: C_11  and  C_12
REMARK    8  A    between atoms: C_15  and  C_16
REMARK    9  A    between atoms: C_21  and  C_22
REMARK   10  A    between atoms: C_29  and  O_30
REMARK   11  A    between atoms: O_30  and  C_31
REMARK                            x       y       z     vdW  Elec       q    Type
REMARK                         _______ _______ _______ _____ _____    ______ ____
ROOT
ATOM      1  N   UNL     1      -9.719   5.092 130.546  0.00  0.00    +0.000 N 
ENDROOT
BRANCH   1   2
ATOM      2  C   UNL     1     -10.625   6.053 129.886  0.00  0.00    +0.000 A 
ATOM      3  C   UNL     1     -10.139   7.194 129.250  0.00  0.00    +0.000 A 
ATOM      4  C   UNL     1     -11.017   8.122 128.682  0.00  0.00    +0.000 A 
ATOM      5  C   UNL     1     -12.381   7.885 128.723  0.00  0.00    +0.000 A 
ATOM      6  N   UNL     1     -12.890   6.773 129.299  0.00  0.00    +0.000 NA
ATOM      7  C   UNL     1     -12.011   5.900 129.872  0.00  0.00    +0.000 A 
BRANCH   5   8
ATOM      8  O   UNL     1     -13.323   8.727 128.191  0.00  0.00    +0.000 OA
ATOM      9  C   UNL     1     -13.479   9.983 128.846  0.00  0.00    +0.000 C 
ENDBRANCH   5   8
ENDBRANCH   1   2
BRANCH   1  10
ATOM     10  S   UNL     1      -8.896   5.841 131.874  0.00  0.00    +0.000 S 
ATOM     11  O   UNL     1      -9.870   6.569 132.667  0.00  0.00    +0.000 OA
ATOM     12  O   UNL     1      -7.709   6.467 131.338  0.00  0.00    +0.000 OA
BRANCH  10  16
ATOM     13  C   UNL     1      -7.209   2.194 133.605  0.00  0.00    +0.000 A 
ATOM     14  C   UNL     1      -6.354   3.197 133.436  0.00  0.00    +0.000 A 
ATOM     15  C   UNL     1      -6.915   4.492 133.255  0.00  0.00    +0.000 A 
ATOM     16  C   UNL     1      -8.285   4.740 133.017  0.00  0.00    +0.000 A 
ATOM     17  C   UNL     1      -9.183   4.015 133.622  0.00  0.00    +0.000 A 
ATOM     18  C   UNL     1      -8.525   2.828 133.717  0.00  0.00    +0.000 A 
BRANCH  13  20
ATOM     19  C   UNL     1      -5.847  -0.214 133.122  0.00  0.00    +0.000 C 
ATOM     20  O   UNL     1      -6.652   0.887 133.842  0.00  0.00    +0.000 OA
ENDBRANCH  13  20
ENDBRANCH  10  16
ENDBRANCH   1  10
BRANCH   1  21
ATOM     21  C   UNL     1      -9.725   3.659 129.945  0.00  0.00    +0.000 C 
BRANCH  21  22
ATOM     22  C   UNL     1      -8.512   2.842 129.219  0.00  0.00    +0.000 A 
ATOM     23  C   UNL     1      -7.489   2.208 130.053  0.00  0.00    +0.000 A 
ATOM     24  C   UNL     1      -6.719   1.047 129.395  0.00  0.00    +0.000 A 
ATOM     25  C   UNL     1      -7.289   0.347 127.902  0.00  0.00    +0.000 A 
ATOM     26  C   UNL     1      -8.246   1.192 127.183  0.00  0.00    +0.000 A 
ATOM     27  N   UNL     1      -8.797   2.405 127.792  0.00  0.00    +0.000 NA
BRANCH  25  28
ATOM     28  C   UNL     1      -7.702  -1.402 127.524  0.00  0.00    +0.000 A 
ATOM     29  C   UNL     1      -7.368  -1.991 128.722  0.00  0.00    +0.000 A 
ATOM     30  C   UNL     1      -7.898  -3.197 129.114  0.00  0.00    +0.000 A 
ATOM     31  C   UNL     1      -8.867  -3.861 128.361  0.00  0.00    +0.000 A 
ATOM     32  C   UNL     1      -9.209  -3.455 127.086  0.00  0.00    +0.000 A 
ATOM     33  C   UNL     1      -8.544  -2.343 126.535  0.00  0.00    +0.000 A 
BRANCH  33  34
ATOM     34  C   UNL     1      -9.092  -2.301 125.099  0.00  0.00    +0.000 C 
ATOM     35  N   UNL     1      -9.296  -2.133 123.989  0.00  0.00    +0.000 NA
ENDBRANCH  33  34
ENDBRANCH  25  28
ENDBRANCH  21  22
ENDBRANCH   1  21
TORSDOF 9
ENDMDL
MODEL 9
REMARK VINA RESULT:      -8.4      5.214      7.337
REMARK  Name = CHEMBL515660
REMARK  11 active torsions:
REMARK  status: ('A' for Active; 'I' for Inactive)
REMARK    1  A    between atoms: C_1  and  O_2
REMARK    2  A    between atoms: O_2  and  C_3
REMARK    3  A    between atoms: C_6  and  S_7
REMARK    4  A    between atoms: S_7  and  N_10
REMARK    5  A    between atoms: N_10  and  C_11
REMARK    6  A    between atoms: N_10  and  C_26
REMARK    7  A    between atoms: C_11  and  C_12
REMARK    8  A    between atoms: C_15  and  C_16
REMARK    9  A    between atoms: C_21  and  C_22
REMARK   10  A    between atoms: C_29  and  O_30
REMARK   11  A    between atoms: O_30  and  C_31
REMARK                            x       y       z     vdW  Elec       q    Type
REMARK                         _______ _______ _______ _____ _____    ______ ____
ROOT
ATOM      1  N   UNL     1      -9.932   4.896 130.998  0.00  0.00    +0.000 N 
ENDROOT
BRANCH   1   2
ATOM      2  C   UNL     1     -10.712   6.013 130.425  0.00  0.00    +0.000 A 
ATOM      3  C   UNL     1     -12.072   6.163 130.690  0.00  0.00    +0.000 A 
ATOM      4  C   UNL     1     -12.804   7.192 130.092  0.00  0.00    +0.000 A 
ATOM      5  C   UNL     1     -12.162   8.091 129.256  0.00  0.00    +0.000 A 
ATOM      6  N   UNL     1     -10.838   8.001 129.003  0.00  0.00    +0.000 NA
ATOM      7  C   UNL     1     -10.155   6.968 129.577  0.00  0.00    +0.000 A 
BRANCH   5   8
ATOM      8  O   UNL     1     -12.788   9.137 128.628  0.00  0.00    +0.000 OA
ATOM      9  C   UNL     1     -13.269  10.177 129.475  0.00  0.00    +0.000 C 
ENDBRANCH   5   8
ENDBRANCH   1   2
BRANCH   1  10
ATOM     10  S   UNL     1      -9.274   5.339 132.538  0.00  0.00    +0.000 S 
ATOM     11  O   UNL     1      -9.147   4.140 133.347  0.00  0.00    +0.000 OA
ATOM     12  O   UNL     1      -9.997   6.506 132.988  0.00  0.00    +0.000 OA
BRANCH  10  16
ATOM     13  C   UNL     1      -5.044   5.573 131.441  0.00  0.00    +0.000 A 
ATOM     14  C   UNL     1      -5.840   6.455 130.846  0.00  0.00    +0.000 A 
ATOM     15  C   UNL     1      -7.112   6.676 131.446  0.00  0.00    +0.000 A 
ATOM     16  C   UNL     1      -7.659   5.871 132.470  0.00  0.00    +0.000 A 
ATOM     17  C   UNL     1      -6.879   5.390 133.395  0.00  0.00    +0.000 A 
ATOM     18  C   UNL     1      -5.727   5.223 132.689  0.00  0.00    +0.000 A 
BRANCH  13  20
ATOM     19  C   UNL     1      -2.540   6.192 130.331  0.00  0.00    +0.000 C 
ATOM     20  O   UNL     1      -3.734   5.381 130.874  0.00  0.00    +0.000 OA
ENDBRANCH  13  20
ENDBRANCH  10  16
ENDBRANCH   1  10
BRANCH   1  21
ATOM     21  C   UNL     1      -9.902   3.603 130.137  0.00  0.00    +0.000 C 
BRANCH  21  22
ATOM     22  C   UNL     1      -8.614   2.779 129.564  0.00  0.00    +0.000 A 
ATOM     23  C   UNL     1      -7.782   2.024 130.504  0.00  0.00    +0.000 A 
ATOM     24  C   UNL     1      -6.957   0.877 129.890  0.00  0.00    +0.000 A 
ATOM     25  C   UNL     1      -7.281   0.330 128.265  0.00  0.00    +0.000 A 
ATOM     26  C   UNL     1      -8.060   1.283 127.468  0.00  0.00    +0.000 A 
ATOM     27  N   UNL     1      -8.659   2.472 128.076  0.00  0.00    +0.000 NA
BRANCH  25  28
ATOM     28  C   UNL     1      -7.693  -1.357 127.669  0.00  0.00    +0.000 A 
ATOM     29  C   UNL     1      -7.464  -2.079 128.818  0.00  0.00    +0.000 A 
ATOM     30  C   UNL     1      -8.044  -3.306 129.035  0.00  0.00    +0.000 A 
ATOM     31  C   UNL     1      -8.962  -3.861 128.143  0.00  0.00    +0.000 A 
ATOM     32  C   UNL     1      -9.196  -3.313 126.898  0.00  0.00    +0.000 A 
ATOM     33  C   UNL     1      -8.472  -2.166 126.523  0.00  0.00    +0.000 A 
BRANCH  33  34
ATOM     34  C   UNL     1      -8.904  -1.956 125.062  0.00  0.00    +0.000 C 
ATOM     35  N   UNL     1      -9.286  -1.573 124.058  0.00  0.00    +0.000 NA
ENDBRANCH  33  34
ENDBRANCH  25  28
ENDBRANCH  21  22
ENDBRANCH   1  21
TORSDOF 9
ENDMDL
