MODEL 1
REMARK VINA RESULT:      -8.5      0.000      0.000
REMARK  Name = CHEMBL143341
REMARK  8 active torsions:
REMARK  status: ('A' for Active; 'I' for Inactive)
REMARK    1  A    between atoms: C_1  and  C_2
REMARK    2  A    between atoms: N_4  and  C_5
REMARK    3  A    between atoms: C_5  and  C_6
REMARK    4  A    between atoms: C_6  and  C_7
REMARK    5  A    between atoms: C_7  and  O_8
REMARK    6  A    between atoms: O_8  and  C_9
REMARK    7  A    between atoms: C_12  and  C_13
REMARK    8  A    between atoms: C_18  and  N_19
REMARK                            x       y       z     vdW  Elec       q    Type
REMARK                         _______ _______ _______ _____ _____    ______ ____
ROOT
ATOM      1  C   UNL     1      -3.627   3.935 127.173  0.00  0.00    +0.000 C 
ATOM      2  O   UNL     1      -2.669   3.281 126.751  0.00  0.00    +0.000 OA
ATOM      3  N   UNL     1      -3.493   4.867 128.281  0.00  0.00    +0.000 N 
ATOM      4  C   UNL     1      -2.489   5.946 128.282  0.00  0.00    +0.000 C 
ATOM      5  C   UNL     1      -1.727   6.135 129.648  0.00  0.00    +0.000 C 
ATOM      6  C   UNL     1      -2.759   6.635 131.131  0.00  0.00    +0.000 C 
ATOM      7  C   UNL     1      -3.664   5.096 130.856  0.00  0.00    +0.000 C 
ATOM      8  C   UNL     1      -4.385   4.939 129.447  0.00  0.00    +0.000 C 
ENDROOT
BRANCH   6   9
ATOM      9  N   UNL     1      -2.878   8.240 132.101  0.00  0.00    +0.000 N 
ATOM     10  C   UNL     1      -1.989   7.472 132.928  0.00  0.00    +0.000 C 
ATOM     11  O   UNL     1      -2.124   6.410 133.531  0.00  0.00    +0.000 OA
ATOM     12  N   UNL     1      -0.769   8.001 132.735  0.00  0.00    +0.000 N 
ATOM     13  C   UNL     1      -0.742   8.698 133.944  0.00  0.00    +0.000 C 
ATOM     14  C   UNL     1      -0.963  10.007 133.358  0.00  0.00    +0.000 A 
ATOM     15  C   UNL     1       0.131  10.964 133.915  0.00  0.00    +0.000 A 
ATOM     16  C   UNL     1       0.000  12.269 134.245  0.00  0.00    +0.000 A 
ATOM     17  C   UNL     1      -1.316  12.577 134.012  0.00  0.00    +0.000 A 
ATOM     18  C   UNL     1      -2.455  11.478 133.334  0.00  0.00    +0.000 A 
ATOM     19  C   UNL     1      -2.254   9.987 132.758  0.00  0.00    +0.000 A 
ATOM     20  H   UNL     1      -0.963   8.602 131.902  0.00  0.00    +0.000 HD
ENDBRANCH   6   9
BRANCH   1  24
ATOM     21  C   UNL     1      -7.180   3.713 124.573  0.00  0.00    +0.000 A 
ATOM     22  C   UNL     1      -6.416   2.570 124.810  0.00  0.00    +0.000 A 
ATOM     23  C   UNL     1      -5.337   2.604 125.737  0.00  0.00    +0.000 A 
ATOM     24  C   UNL     1      -4.932   3.812 126.366  0.00  0.00    +0.000 A 
ATOM     25  C   UNL     1      -5.703   4.935 126.086  0.00  0.00    +0.000 A 
ATOM     26  C   UNL     1      -6.815   4.889 125.222  0.00  0.00    +0.000 A 
BRANCH  21  27
ATOM     27  O   UNL     1      -8.313   3.582 123.807  0.00  0.00    +0.000 OA
BRANCH  27  28
ATOM     28  C   UNL     1      -8.263   2.598 122.762  0.00  0.00    +0.000 C 
BRANCH  28  29
ATOM     29  C   UNL     1      -8.824   3.201 121.466  0.00  0.00    +0.000 C 
BRANCH  29  30
ATOM     30  C   UNL     1      -7.725   3.865 120.635  0.00  0.00    +0.000 C 
BRANCH  30  34
ATOM     31  C   UNL     1      -4.189   4.901 121.646  0.00  0.00    +0.000 C 
ATOM     32  C   UNL     1      -5.406   4.692 120.773  0.00  0.00    +0.000 C 
ATOM     33  O   UNL     1      -5.409   5.021 119.590  0.00  0.00    +0.000 OA
ATOM     34  N   UNL     1      -6.498   4.109 121.385  0.00  0.00    +0.000 N 
ATOM     35  H   UNL     1      -6.455   3.854 122.364  0.00  0.00    +0.000 HD
ENDBRANCH  30  34
ENDBRANCH  29  30
ENDBRANCH  28  29
ENDBRANCH  27  28
ENDBRANCH  21  27
ENDBRANCH   1  24
TORSDOF 7
ENDMDL
MODEL 2
REMARK VINA RESULT:      -8.5      5.273      6.777
REMARK  Name = CHEMBL143341
REMARK  8 active torsions:
REMARK  status: ('A' for Active; 'I' for Inactive)
REMARK    1  A    between atoms: C_1  and  C_2
REMARK    2  A    between atoms: N_4  and  C_5
REMARK    3  A    between atoms: C_5  and  C_6
REMARK    4  A    between atoms: C_6  and  C_7
REMARK    5  A    between atoms: C_7  and  O_8
REMARK    6  A    between atoms: O_8  and  C_9
REMARK    7  A    between atoms: C_12  and  C_13
REMARK    8  A    between atoms: C_18  and  N_19
REMARK                            x       y       z     vdW  Elec       q    Type
REMARK                         _______ _______ _______ _____ _____    ______ ____
ROOT
ATOM      1  C   UNL     1      -6.782  -2.648 130.130  0.00  0.00    +0.000 C 
ATOM      2  O   UNL     1      -6.640  -3.751 130.665  0.00  0.00    +0.000 OA
ATOM      3  N   UNL     1      -6.049  -1.475 130.580  0.00  0.00    +0.000 N 
ATOM      4  C   UNL     1      -4.579  -1.464 130.692  0.00  0.00    +0.000 C 
ATOM      5  C   UNL     1      -4.025  -0.785 132.002  0.00  0.00    +0.000 C 
ATOM      6  C   UNL     1      -4.393   1.038 132.231  0.00  0.00    +0.000 C 
ATOM      7  C   UNL     1      -6.134   0.560 132.181  0.00  0.00    +0.000 C 
ATOM      8  C   UNL     1      -6.635  -0.155 130.852  0.00  0.00    +0.000 C 
ENDROOT
BRANCH   6   9
ATOM      9  N   UNL     1      -3.301   2.565 132.151  0.00  0.00    +0.000 N 
ATOM     10  C   UNL     1      -3.979   2.633 130.887  0.00  0.00    +0.000 C 
ATOM     11  O   UNL     1      -4.007   1.880 129.917  0.00  0.00    +0.000 OA
ATOM     12  N   UNL     1      -4.879   3.622 131.013  0.00  0.00    +0.000 N 
ATOM     13  C   UNL     1      -4.143   4.556 130.283  0.00  0.00    +0.000 C 
ATOM     14  C   UNL     1      -3.722   5.336 131.431  0.00  0.00    +0.000 A 
ATOM     15  C   UNL     1      -4.050   6.828 131.136  0.00  0.00    +0.000 A 
ATOM     16  C   UNL     1      -3.324   7.918 131.474  0.00  0.00    +0.000 A 
ATOM     17  C   UNL     1      -2.212   7.435 132.117  0.00  0.00    +0.000 A 
ATOM     18  C   UNL     1      -1.950   5.769 132.463  0.00  0.00    +0.000 A 
ATOM     19  C   UNL     1      -2.904   4.491 132.235  0.00  0.00    +0.000 A 
ATOM     20  H   UNL     1      -4.843   3.768 132.048  0.00  0.00    +0.000 HD
ENDBRANCH   6   9
BRANCH   1  24
ATOM     21  C   UNL     1      -9.037  -2.711 126.342  0.00  0.00    +0.000 A 
ATOM     22  C   UNL     1      -9.217  -3.730 127.279  0.00  0.00    +0.000 A 
ATOM     23  C   UNL     1      -8.582  -3.660 128.551  0.00  0.00    +0.000 A 
ATOM     24  C   UNL     1      -7.669  -2.620 128.871  0.00  0.00    +0.000 A 
ATOM     25  C   UNL     1      -7.497  -1.637 127.903  0.00  0.00    +0.000 A 
ATOM     26  C   UNL     1      -8.178  -1.667 126.670  0.00  0.00    +0.000 A 
BRANCH  21  27
ATOM     27  O   UNL     1      -9.807  -2.741 125.206  0.00  0.00    +0.000 OA
BRANCH  27  28
ATOM     28  C   UNL     1      -9.148  -3.163 124.001  0.00  0.00    +0.000 C 
BRANCH  28  29
ATOM     29  C   UNL     1      -8.988  -1.962 123.059  0.00  0.00    +0.000 C 
BRANCH  29  30
ATOM     30  C   UNL     1      -7.548  -1.450 123.043  0.00  0.00    +0.000 C 
BRANCH  30  34
ATOM     31  C   UNL     1      -4.504  -3.687 123.613  0.00  0.00    +0.000 C 
ATOM     32  C   UNL     1      -5.467  -2.537 123.799  0.00  0.00    +0.000 C 
ATOM     33  O   UNL     1      -5.281  -1.679 124.657  0.00  0.00    +0.000 OA
ATOM     34  N   UNL     1      -6.555  -2.513 122.947  0.00  0.00    +0.000 N 
ATOM     35  H   UNL     1      -6.672  -3.242 122.254  0.00  0.00    +0.000 HD
ENDBRANCH  30  34
ENDBRANCH  29  30
ENDBRANCH  28  29
ENDBRANCH  27  28
ENDBRANCH  21  27
ENDBRANCH   1  24
TORSDOF 7
ENDMDL
MODEL 3
REMARK VINA RESULT:      -8.5      3.163     12.022
REMARK  Name = CHEMBL143341
REMARK  8 active torsions:
REMARK  status: ('A' for Active; 'I' for Inactive)
REMARK    1  A    between atoms: C_1  and  C_2
REMARK    2  A    between atoms: N_4  and  C_5
REMARK    3  A    between atoms: C_5  and  C_6
REMARK    4  A    between atoms: C_6  and  C_7
REMARK    5  A    between atoms: C_7  and  O_8
REMARK    6  A    between atoms: O_8  and  C_9
REMARK    7  A    between atoms: C_12  and  C_13
REMARK    8  A    between atoms: C_18  and  N_19
REMARK                            x       y       z     vdW  Elec       q    Type
REMARK                         _______ _______ _______ _____ _____    ______ ____
ROOT
ATOM      1  C   UNL     1      -3.862   6.924 129.426  0.00  0.00    +0.000 C 
ATOM      2  O   UNL     1      -4.018   7.987 128.819  0.00  0.00    +0.000 OA
ATOM      3  N   UNL     1      -4.384   5.665 128.919  0.00  0.00    +0.000 N 
ATOM      4  C   UNL     1      -4.074   5.177 127.562  0.00  0.00    +0.000 C 
ATOM      5  C   UNL     1      -5.305   4.580 126.781  0.00  0.00    +0.000 C 
ATOM      6  C   UNL     1      -6.111   3.053 127.511  0.00  0.00    +0.000 C 
ATOM      7  C   UNL     1      -6.429   4.076 128.966  0.00  0.00    +0.000 C 
ATOM      8  C   UNL     1      -5.155   4.686 129.697  0.00  0.00    +0.000 C 
ENDROOT
BRANCH   6   9
ATOM      9  N   UNL     1      -6.138   1.256 126.962  0.00  0.00    +0.000 N 
ATOM     10  C   UNL     1      -7.339   1.759 126.355  0.00  0.00    +0.000 C 
ATOM     11  O   UNL     1      -8.366   2.247 126.820  0.00  0.00    +0.000 OA
ATOM     12  N   UNL     1      -7.062   1.867 125.044  0.00  0.00    +0.000 N 
ATOM     13  C   UNL     1      -7.761   0.718 124.672  0.00  0.00    +0.000 C 
ATOM     14  C   UNL     1      -6.583  -0.098 124.444  0.00  0.00    +0.000 A 
ATOM     15  C   UNL     1      -6.724  -0.748 123.038  0.00  0.00    +0.000 A 
ATOM     16  C   UNL     1      -6.348  -1.991 122.658  0.00  0.00    +0.000 A 
ATOM     17  C   UNL     1      -5.833  -2.580 123.785  0.00  0.00    +0.000 A 
ATOM     18  C   UNL     1      -5.652  -1.771 125.295  0.00  0.00    +0.000 A 
ATOM     19  C   UNL     1      -5.918  -0.234 125.696  0.00  0.00    +0.000 A 
ATOM     20  H   UNL     1      -6.024   1.744 125.069  0.00  0.00    +0.000 HD
ENDBRANCH   6   9
BRANCH   1  24
ATOM     21  C   UNL     1      -1.090   7.364 132.826  0.00  0.00    +0.000 A 
ATOM     22  C   UNL     1      -2.324   8.017 132.841  0.00  0.00    +0.000 A 
ATOM     23  C   UNL     1      -3.272   7.791 131.805  0.00  0.00    +0.000 A 
ATOM     24  C   UNL     1      -2.963   6.988 130.674  0.00  0.00    +0.000 A 
ATOM     25  C   UNL     1      -1.715   6.374 130.683  0.00  0.00    +0.000 A 
ATOM     26  C   UNL     1      -0.801   6.541 131.742  0.00  0.00    +0.000 A 
BRANCH  21  27
ATOM     27  O   UNL     1      -0.288   7.481 133.934  0.00  0.00    +0.000 OA
BRANCH  27  28
ATOM     28  C   UNL     1      -0.411   8.700 134.684  0.00  0.00    +0.000 C 
BRANCH  28  29
ATOM     29  C   UNL     1       0.486   9.777 134.057  0.00  0.00    +0.000 C 
BRANCH  29  30
ATOM     30  C   UNL     1      -0.265  11.096 133.877  0.00  0.00    +0.000 C 
BRANCH  30  34
ATOM     31  C   UNL     1       0.668  13.005 130.702  0.00  0.00    +0.000 C 
ATOM     32  C   UNL     1       0.714  12.552 132.143  0.00  0.00    +0.000 C 
ATOM     33  O   UNL     1       1.539  13.007 132.931  0.00  0.00    +0.000 OA
ATOM     34  N   UNL     1      -0.224  11.606 132.511  0.00  0.00    +0.000 N 
ATOM     35  H   UNL     1      -0.885  11.256 131.829  0.00  0.00    +0.000 HD
ENDBRANCH  30  34
ENDBRANCH  29  30
ENDBRANCH  28  29
ENDBRANCH  27  28
ENDBRANCH  21  27
ENDBRANCH   1  24
TORSDOF 7
ENDMDL
MODEL 4
REMARK VINA RESULT:      -8.3      5.092      6.548
REMARK  Name = CHEMBL143341
REMARK  8 active torsions:
REMARK  status: ('A' for Active; 'I' for Inactive)
REMARK    1  A    between atoms: C_1  and  C_2
REMARK    2  A    between atoms: N_4  and  C_5
REMARK    3  A    between atoms: C_5  and  C_6
REMARK    4  A    between atoms: C_6  and  C_7
REMARK    5  A    between atoms: C_7  and  O_8
REMARK    6  A    between atoms: O_8  and  C_9
REMARK    7  A    between atoms: C_12  and  C_13
REMARK    8  A    between atoms: C_18  and  N_19
REMARK                            x       y       z     vdW  Elec       q    Type
REMARK                         _______ _______ _______ _____ _____    ______ ____
ROOT
ATOM      1  C   UNL     1      -7.488  -1.876 130.237  0.00  0.00    +0.000 C 
ATOM      2  O   UNL     1      -7.469  -2.678 131.175  0.00  0.00    +0.000 OA
ATOM      3  N   UNL     1      -7.249  -0.455 130.436  0.00  0.00    +0.000 N 
ATOM      4  C   UNL     1      -6.042   0.050 131.116  0.00  0.00    +0.000 C 
ATOM      5  C   UNL     1      -6.307   1.211 132.148  0.00  0.00    +0.000 C 
ATOM      6  C   UNL     1      -6.999   2.812 131.461  0.00  0.00    +0.000 C 
ATOM      7  C   UNL     1      -8.402   1.816 130.909  0.00  0.00    +0.000 C 
ATOM      8  C   UNL     1      -8.077   0.632 129.897  0.00  0.00    +0.000 C 
ENDROOT
BRANCH   6   9
ATOM      9  N   UNL     1      -6.243   4.516 131.227  0.00  0.00    +0.000 N 
ATOM     10  C   UNL     1      -6.714   4.597 132.581  0.00  0.00    +0.000 C 
ATOM     11  O   UNL     1      -7.835   4.515 133.078  0.00  0.00    +0.000 OA
ATOM     12  N   UNL     1      -5.616   4.518 133.350  0.00  0.00    +0.000 N 
ATOM     13  C   UNL     1      -5.571   5.882 133.645  0.00  0.00    +0.000 C 
ATOM     14  C   UNL     1      -4.450   6.179 132.773  0.00  0.00    +0.000 A 
ATOM     15  C   UNL     1      -3.399   6.968 133.606  0.00  0.00    +0.000 A 
ATOM     16  C   UNL     1      -2.613   7.989 133.194  0.00  0.00    +0.000 A 
ATOM     17  C   UNL     1      -2.951   8.208 131.883  0.00  0.00    +0.000 A 
ATOM     18  C   UNL     1      -4.082   7.248 131.008  0.00  0.00    +0.000 A 
ATOM     19  C   UNL     1      -4.873   5.913 131.439  0.00  0.00    +0.000 A 
ATOM     20  H   UNL     1      -4.916   4.215 132.636  0.00  0.00    +0.000 HD
ENDBRANCH   6   9
BRANCH   1  24
ATOM     21  C   UNL     1      -8.184  -3.388 126.155  0.00  0.00    +0.000 A 
ATOM     22  C   UNL     1      -7.153  -2.479 126.397  0.00  0.00    +0.000 A 
ATOM     23  C   UNL     1      -6.847  -2.074 127.726  0.00  0.00    +0.000 A 
ATOM     24  C   UNL     1      -7.637  -2.488 128.832  0.00  0.00    +0.000 A 
ATOM     25  C   UNL     1      -8.670  -3.373 128.548  0.00  0.00    +0.000 A 
ATOM     26  C   UNL     1      -8.932  -3.830 127.242  0.00  0.00    +0.000 A 
BRANCH  21  27
ATOM     27  O   UNL     1      -8.323  -3.877 124.880  0.00  0.00    +0.000 OA
BRANCH  27  28
ATOM     28  C   UNL     1      -9.287  -3.216 124.045  0.00  0.00    +0.000 C 
BRANCH  28  29
ATOM     29  C   UNL     1      -8.559  -2.284 123.066  0.00  0.00    +0.000 C 
BRANCH  29  30
ATOM     30  C   UNL     1      -9.169  -0.881 123.069  0.00  0.00    +0.000 C 
BRANCH  30  34
ATOM     31  C   UNL     1      -8.377   1.247 126.141  0.00  0.00    +0.000 C 
ATOM     32  C   UNL     1      -9.126   0.297 125.235  0.00  0.00    +0.000 C 
ATOM     33  O   UNL     1     -10.199  -0.196 125.572  0.00  0.00    +0.000 OA
ATOM     34  N   UNL     1      -8.533   0.025 124.017  0.00  0.00    +0.000 N 
ATOM     35  H   UNL     1      -7.645   0.452 123.779  0.00  0.00    +0.000 HD
ENDBRANCH  30  34
ENDBRANCH  29  30
ENDBRANCH  28  29
ENDBRANCH  27  28
ENDBRANCH  21  27
ENDBRANCH   1  24
TORSDOF 7
ENDMDL
MODEL 5
REMARK VINA RESULT:      -8.2      5.555      6.793
REMARK  Name = CHEMBL143341
REMARK  8 active torsions:
REMARK  status: ('A' for Active; 'I' for Inactive)
REMARK    1  A    between atoms: C_1  and  C_2
REMARK    2  A    between atoms: N_4  and  C_5
REMARK    3  A    between atoms: C_5  and  C_6
REMARK    4  A    between atoms: C_6  and  C_7
REMARK    5  A    between atoms: C_7  and  O_8
REMARK    6  A    between atoms: O_8  and  C_9
REMARK    7  A    between atoms: C_12  and  C_13
REMARK    8  A    between atoms: C_18  and  N_19
REMARK                            x       y       z     vdW  Elec       q    Type
REMARK                         _______ _______ _______ _____ _____    ______ ____
ROOT
ATOM      1  C   UNL     1      -4.588   5.120 132.720  0.00  0.00    +0.000 C 
ATOM      2  O   UNL     1      -4.372   3.936 132.446  0.00  0.00    +0.000 OA
ATOM      3  N   UNL     1      -3.510   6.083 132.872  0.00  0.00    +0.000 N 
ATOM      4  C   UNL     1      -2.493   6.295 131.826  0.00  0.00    +0.000 C 
ATOM      5  C   UNL     1      -1.015   6.416 132.359  0.00  0.00    +0.000 C 
ATOM      6  C   UNL     1      -0.639   7.862 133.489  0.00  0.00    +0.000 C 
ATOM      7  C   UNL     1      -1.895   7.165 134.585  0.00  0.00    +0.000 C 
ATOM      8  C   UNL     1      -3.362   7.029 133.987  0.00  0.00    +0.000 C 
ENDROOT
BRANCH   6   9
ATOM      9  N   UNL     1       0.363   9.432 133.239  0.00  0.00    +0.000 N 
ATOM     10  C   UNL     1      -0.972   9.955 133.313  0.00  0.00    +0.000 C 
ATOM     11  O   UNL     1      -1.974   9.781 132.623  0.00  0.00    +0.000 OA
ATOM     12  N   UNL     1      -1.065  10.537 134.521  0.00  0.00    +0.000 N 
ATOM     13  C   UNL     1      -0.946  11.842 134.041  0.00  0.00    +0.000 C 
ATOM     14  C   UNL     1       0.418  12.037 134.497  0.00  0.00    +0.000 A 
ATOM     15  C   UNL     1       0.464  13.374 135.292  0.00  0.00    +0.000 A 
ATOM     16  C   UNL     1       1.458  14.291 135.313  0.00  0.00    +0.000 A 
ATOM     17  C   UNL     1       2.420  13.811 134.461  0.00  0.00    +0.000 A 
ATOM     18  C   UNL     1       2.324  12.288 133.663  0.00  0.00    +0.000 A 
ATOM     19  C   UNL     1       1.234  11.109 133.788  0.00  0.00    +0.000 A 
ATOM     20  H   UNL     1      -0.195  10.167 134.967  0.00  0.00    +0.000 HD
ENDBRANCH   6   9
BRANCH   1  24
ATOM     21  C   UNL     1      -8.899   6.037 132.600  0.00  0.00    +0.000 A 
ATOM     22  C   UNL     1      -8.350   5.403 133.716  0.00  0.00    +0.000 A 
ATOM     23  C   UNL     1      -6.945   5.206 133.815  0.00  0.00    +0.000 A 
ATOM     24  C   UNL     1      -6.068   5.544 132.749  0.00  0.00    +0.000 A 
ATOM     25  C   UNL     1      -6.655   6.151 131.644  0.00  0.00    +0.000 A 
ATOM     26  C   UNL     1      -8.038   6.410 131.573  0.00  0.00    +0.000 A 
BRANCH  21  27
ATOM     27  O   UNL     1     -10.234   6.358 132.635  0.00  0.00    +0.000 OA
BRANCH  27  28
ATOM     28  C   UNL     1     -10.886   6.505 131.364  0.00  0.00    +0.000 C 
BRANCH  28  29
ATOM     29  C   UNL     1     -12.316   7.021 131.581  0.00  0.00    +0.000 C 
BRANCH  29  30
ATOM     30  C   UNL     1     -12.960   7.458 130.265  0.00  0.00    +0.000 C 
BRANCH  30  34
ATOM     31  C   UNL     1     -10.876   8.103 127.128  0.00  0.00    +0.000 C 
ATOM     32  C   UNL     1     -11.893   7.456 128.041  0.00  0.00    +0.000 C 
ATOM     33  O   UNL     1     -12.570   6.501 127.671  0.00  0.00    +0.000 OA
ATOM     34  N   UNL     1     -12.007   8.003 129.305  0.00  0.00    +0.000 N 
ATOM     35  H   UNL     1     -11.430   8.792 129.570  0.00  0.00    +0.000 HD
ENDBRANCH  30  34
ENDBRANCH  29  30
ENDBRANCH  28  29
ENDBRANCH  27  28
ENDBRANCH  21  27
ENDBRANCH   1  24
TORSDOF 7
ENDMDL
MODEL 6
REMARK VINA RESULT:      -8.1      3.534     11.872
REMARK  Name = CHEMBL143341
REMARK  8 active torsions:
REMARK  status: ('A' for Active; 'I' for Inactive)
REMARK    1  A    between atoms: C_1  and  C_2
REMARK    2  A    between atoms: N_4  and  C_5
REMARK    3  A    between atoms: C_5  and  C_6
REMARK    4  A    between atoms: C_6  and  C_7
REMARK    5  A    between atoms: C_7  and  O_8
REMARK    6  A    between atoms: O_8  and  C_9
REMARK    7  A    between atoms: C_12  and  C_13
REMARK    8  A    between atoms: C_18  and  N_19
REMARK                            x       y       z     vdW  Elec       q    Type
REMARK                         _______ _______ _______ _____ _____    ______ ____
ROOT
ATOM      1  C   UNL     1      -3.467   5.338 128.579  0.00  0.00    +0.000 C 
ATOM      2  O   UNL     1      -2.731   5.920 127.778  0.00  0.00    +0.000 OA
ATOM      3  N   UNL     1      -4.492   4.403 128.142  0.00  0.00    +0.000 N 
ATOM      4  C   UNL     1      -4.186   3.255 127.268  0.00  0.00    +0.000 C 
ATOM      5  C   UNL     1      -5.223   3.020 126.105  0.00  0.00    +0.000 C 
ATOM      6  C   UNL     1      -6.979   2.600 126.609  0.00  0.00    +0.000 C 
ATOM      7  C   UNL     1      -6.980   4.197 127.452  0.00  0.00    +0.000 C 
ATOM      8  C   UNL     1      -5.890   4.399 128.593  0.00  0.00    +0.000 C 
ENDROOT
BRANCH   6   9
ATOM      9  N   UNL     1      -7.977   1.011 126.499  0.00  0.00    +0.000 N 
ATOM     10  C   UNL     1      -8.473   1.739 125.365  0.00  0.00    +0.000 C 
ATOM     11  O   UNL     1      -9.062   2.812 125.257  0.00  0.00    +0.000 OA
ATOM     12  N   UNL     1      -7.928   1.145 124.289  0.00  0.00    +0.000 N 
ATOM     13  C   UNL     1      -9.087   0.458 123.925  0.00  0.00    +0.000 C 
ATOM     14  C   UNL     1      -8.629  -0.843 124.376  0.00  0.00    +0.000 A 
ATOM     15  C   UNL     1      -8.845  -1.850 123.210  0.00  0.00    +0.000 A 
ATOM     16  C   UNL     1      -9.231  -3.144 123.295  0.00  0.00    +0.000 A 
ATOM     17  C   UNL     1      -9.421  -3.385 124.632  0.00  0.00    +0.000 A 
ATOM     18  C   UNL     1      -9.098  -2.234 125.871  0.00  0.00    +0.000 A 
ATOM     19  C   UNL     1      -8.453  -0.760 125.787  0.00  0.00    +0.000 A 
ATOM     20  H   UNL     1      -7.210   0.548 124.758  0.00  0.00    +0.000 HD
ENDBRANCH   6   9
BRANCH   1  24
ATOM     21  C   UNL     1      -2.178   5.905 132.757  0.00  0.00    +0.000 A 
ATOM     22  C   UNL     1      -2.474   7.012 131.960  0.00  0.00    +0.000 A 
ATOM     23  C   UNL     1      -3.000   6.838 130.650  0.00  0.00    +0.000 A 
ATOM     24  C   UNL     1      -3.140   5.549 130.068  0.00  0.00    +0.000 A 
ATOM     25  C   UNL     1      -2.812   4.472 130.884  0.00  0.00    +0.000 A 
ATOM     26  C   UNL     1      -2.357   4.639 132.206  0.00  0.00    +0.000 A 
BRANCH  21  27
ATOM     27  O   UNL     1      -1.841   6.128 134.069  0.00  0.00    +0.000 OA
BRANCH  27  28
ATOM     28  C   UNL     1      -2.902   6.567 134.932  0.00  0.00    +0.000 C 
BRANCH  28  29
ATOM     29  C   UNL     1      -3.532   5.350 135.625  0.00  0.00    +0.000 C 
BRANCH  29  30
ATOM     30  C   UNL     1      -5.047   5.313 135.423  0.00  0.00    +0.000 C 
BRANCH  30  34
ATOM     31  C   UNL     1      -6.304   6.297 131.952  0.00  0.00    +0.000 C 
ATOM     32  C   UNL     1      -5.849   5.416 133.093  0.00  0.00    +0.000 C 
ATOM     33  O   UNL     1      -5.799   4.194 132.977  0.00  0.00    +0.000 OA
ATOM     34  N   UNL     1      -5.496   6.067 134.259  0.00  0.00    +0.000 N 
ATOM     35  H   UNL     1      -5.554   7.077 134.313  0.00  0.00    +0.000 HD
ENDBRANCH  30  34
ENDBRANCH  29  30
ENDBRANCH  28  29
ENDBRANCH  27  28
ENDBRANCH  21  27
ENDBRANCH   1  24
TORSDOF 7
ENDMDL
MODEL 7
REMARK VINA RESULT:      -8.0      2.970     12.265
REMARK  Name = CHEMBL143341
REMARK  8 active torsions:
REMARK  status: ('A' for Active; 'I' for Inactive)
REMARK    1  A    between atoms: C_1  and  C_2
REMARK    2  A    between atoms: N_4  and  C_5
REMARK    3  A    between atoms: C_5  and  C_6
REMARK    4  A    between atoms: C_6  and  C_7
REMARK    5  A    between atoms: C_7  and  O_8
REMARK    6  A    between atoms: O_8  and  C_9
REMARK    7  A    between atoms: C_12  and  C_13
REMARK    8  A    between atoms: C_18  and  N_19
REMARK                            x       y       z     vdW  Elec       q    Type
REMARK                         _______ _______ _______ _____ _____    ______ ____
ROOT
ATOM      1  C   UNL     1      -3.443   5.479 128.483  0.00  0.00    +0.000 C 
ATOM      2  O   UNL     1      -2.625   5.961 127.694  0.00  0.00    +0.000 OA
ATOM      3  N   UNL     1      -4.441   4.511 128.058  0.00  0.00    +0.000 N 
ATOM      4  C   UNL     1      -4.079   3.270 127.349  0.00  0.00    +0.000 C 
ATOM      5  C   UNL     1      -5.009   2.915 126.128  0.00  0.00    +0.000 C 
ATOM      6  C   UNL     1      -6.812   2.570 126.509  0.00  0.00    +0.000 C 
ATOM      7  C   UNL     1      -6.859   4.252 127.167  0.00  0.00    +0.000 C 
ATOM      8  C   UNL     1      -5.875   4.570 128.374  0.00  0.00    +0.000 C 
ENDROOT
BRANCH   6   9
ATOM      9  N   UNL     1      -7.826   0.989 126.483  0.00  0.00    +0.000 N 
ATOM     10  C   UNL     1      -8.395   1.711 125.380  0.00  0.00    +0.000 C 
ATOM     11  O   UNL     1      -8.983   2.787 125.304  0.00  0.00    +0.000 OA
ATOM     12  N   UNL     1      -7.931   1.104 124.274  0.00  0.00    +0.000 N 
ATOM     13  C   UNL     1      -9.117   0.423 123.997  0.00  0.00    +0.000 C 
ATOM     14  C   UNL     1      -8.638  -0.878 124.427  0.00  0.00    +0.000 A 
ATOM     15  C   UNL     1      -8.943  -1.893 123.287  0.00  0.00    +0.000 A 
ATOM     16  C   UNL     1      -9.331  -3.183 123.410  0.00  0.00    +0.000 A 
ATOM     17  C   UNL     1      -9.428  -3.412 124.759  0.00  0.00    +0.000 A 
ATOM     18  C   UNL     1      -9.011  -2.253 125.963  0.00  0.00    +0.000 A 
ATOM     19  C   UNL     1      -8.364  -0.785 125.821  0.00  0.00    +0.000 A 
ATOM     20  H   UNL     1      -7.186   0.505 124.696  0.00  0.00    +0.000 HD
ENDBRANCH   6   9
BRANCH   1  24
ATOM     21  C   UNL     1      -2.536   6.600 132.649  0.00  0.00    +0.000 A 
ATOM     22  C   UNL     1      -3.071   7.545 131.772  0.00  0.00    +0.000 A 
ATOM     23  C   UNL     1      -3.474   7.165 130.461  0.00  0.00    +0.000 A 
ATOM     24  C   UNL     1      -3.250   5.853 129.964  0.00  0.00    +0.000 A 
ATOM     25  C   UNL     1      -2.692   4.947 130.859  0.00  0.00    +0.000 A 
ATOM     26  C   UNL     1      -2.357   5.302 132.180  0.00  0.00    +0.000 A 
BRANCH  21  27
ATOM     27  O   UNL     1      -2.329   6.979 133.953  0.00  0.00    +0.000 OA
BRANCH  27  28
ATOM     28  C   UNL     1      -1.041   6.668 134.509  0.00  0.00    +0.000 C 
BRANCH  28  29
ATOM     29  C   UNL     1       0.052   7.358 133.682  0.00  0.00    +0.000 C 
BRANCH  29  30
ATOM     30  C   UNL     1       0.229   8.820 134.095  0.00  0.00    +0.000 C 
BRANCH  30  34
ATOM     31  C   UNL     1      -2.360  11.368 132.910  0.00  0.00    +0.000 C 
ATOM     32  C   UNL     1      -1.624  10.427 133.837  0.00  0.00    +0.000 C 
ATOM     33  O   UNL     1      -1.970  10.280 135.006  0.00  0.00    +0.000 OA
ATOM     34  N   UNL     1      -0.553   9.749 133.287  0.00  0.00    +0.000 N 
ATOM     35  H   UNL     1      -0.300   9.901 132.318  0.00  0.00    +0.000 HD
ENDBRANCH  30  34
ENDBRANCH  29  30
ENDBRANCH  28  29
ENDBRANCH  27  28
ENDBRANCH  21  27
ENDBRANCH   1  24
TORSDOF 7
ENDMDL
MODEL 8
REMARK VINA RESULT:      -7.9      7.622      9.685
REMARK  Name = CHEMBL143341
REMARK  8 active torsions:
REMARK  status: ('A' for Active; 'I' for Inactive)
REMARK    1  A    between atoms: C_1  and  C_2
REMARK    2  A    between atoms: N_4  and  C_5
REMARK    3  A    between atoms: C_5  and  C_6
REMARK    4  A    between atoms: C_6  and  C_7
REMARK    5  A    between atoms: C_7  and  O_8
REMARK    6  A    between atoms: O_8  and  C_9
REMARK    7  A    between atoms: C_12  and  C_13
REMARK    8  A    between atoms: C_18  and  N_19
REMARK                            x       y       z     vdW  Elec       q    Type
REMARK                         _______ _______ _______ _____ _____    ______ ____
ROOT
ATOM      1  C   UNL     1      -5.995   1.612 133.820  0.00  0.00    +0.000 C 
ATOM      2  O   UNL     1      -5.512   1.544 134.953  0.00  0.00    +0.000 OA
ATOM      3  N   UNL     1      -6.978   2.622 133.463  0.00  0.00    +0.000 N 
ATOM      4  C   UNL     1      -6.737   4.061 133.673  0.00  0.00    +0.000 C 
ATOM      5  C   UNL     1      -7.961   4.853 134.269  0.00  0.00    +0.000 C 
ATOM      6  C   UNL     1      -9.515   4.923 133.223  0.00  0.00    +0.000 C 
ATOM      7  C   UNL     1      -9.517   3.120 133.339  0.00  0.00    +0.000 C 
ATOM      8  C   UNL     1      -8.242   2.370 132.756  0.00  0.00    +0.000 C 
ENDROOT
BRANCH   6   9
ATOM      9  N   UNL     1     -10.331   6.321 132.268  0.00  0.00    +0.000 N 
ATOM     10  C   UNL     1      -9.440   5.782 131.279  0.00  0.00    +0.000 C 
ATOM     11  O   UNL     1      -8.217   5.674 131.231  0.00  0.00    +0.000 OA
ATOM     12  N   UNL     1     -10.222   5.107 130.419  0.00  0.00    +0.000 N 
ATOM     13  C   UNL     1     -10.187   6.085 129.424  0.00  0.00    +0.000 C 
ATOM     14  C   UNL     1     -11.537   6.567 129.650  0.00  0.00    +0.000 A 
ATOM     15  C   UNL     1     -12.265   6.593 128.275  0.00  0.00    +0.000 A 
ATOM     16  C   UNL     1     -13.158   7.506 127.828  0.00  0.00    +0.000 A 
ATOM     17  C   UNL     1     -13.275   8.430 128.835  0.00  0.00    +0.000 A 
ATOM     18  C   UNL     1     -12.482   8.297 130.358  0.00  0.00    +0.000 A 
ATOM     19  C   UNL     1     -11.574   7.113 130.964  0.00  0.00    +0.000 A 
ATOM     20  H   UNL     1     -11.114   5.087 130.963  0.00  0.00    +0.000 HD
ENDBRANCH   6   9
BRANCH   1  24
ATOM     21  C   UNL     1      -3.931  -0.995 130.924  0.00  0.00    +0.000 A 
ATOM     22  C   UNL     1      -4.359  -1.511 132.148  0.00  0.00    +0.000 A 
ATOM     23  C   UNL     1      -5.126  -0.711 133.040  0.00  0.00    +0.000 A 
ATOM     24  C   UNL     1      -5.390   0.660 132.772  0.00  0.00    +0.000 A 
ATOM     25  C   UNL     1      -4.926   1.144 131.555  0.00  0.00    +0.000 A 
ATOM     26  C   UNL     1      -4.226   0.335 130.639  0.00  0.00    +0.000 A 
BRANCH  21  27
ATOM     27  O   UNL     1      -3.349  -1.859 130.030  0.00  0.00    +0.000 OA
BRANCH  27  28
ATOM     28  C   UNL     1      -4.191  -2.902 129.513  0.00  0.00    +0.000 C 
BRANCH  28  29
ATOM     29  C   UNL     1      -4.914  -2.398 128.257  0.00  0.00    +0.000 C 
BRANCH  29  30
ATOM     30  C   UNL     1      -6.425  -2.612 128.356  0.00  0.00    +0.000 C 
BRANCH  30  34
ATOM     31  C   UNL     1      -8.324  -0.652 131.030  0.00  0.00    +0.000 C 
ATOM     32  C   UNL     1      -7.637  -1.815 130.350  0.00  0.00    +0.000 C 
ATOM     33  O   UNL     1      -7.559  -2.916 130.889  0.00  0.00    +0.000 OA
ATOM     34  N   UNL     1      -7.112  -1.562 129.098  0.00  0.00    +0.000 N 
ATOM     35  H   UNL     1      -7.196  -0.639 128.690  0.00  0.00    +0.000 HD
ENDBRANCH  30  34
ENDBRANCH  29  30
ENDBRANCH  28  29
ENDBRANCH  27  28
ENDBRANCH  21  27
ENDBRANCH   1  24
TORSDOF 7
ENDMDL
MODEL 9
REMARK VINA RESULT:      -7.8      5.603     13.098
REMARK  Name = CHEMBL143341
REMARK  8 active torsions:
REMARK  status: ('A' for Active; 'I' for Inactive)
REMARK    1  A    between atoms: C_1  and  C_2
REMARK    2  A    between atoms: N_4  and  C_5
REMARK    3  A    between atoms: C_5  and  C_6
REMARK    4  A    between atoms: C_6  and  C_7
REMARK    5  A    between atoms: C_7  and  O_8
REMARK    6  A    between atoms: O_8  and  C_9
REMARK    7  A    between atoms: C_12  and  C_13
REMARK    8  A    between atoms: C_18  and  N_19
REMARK                            x       y       z     vdW  Elec       q    Type
REMARK                         _______ _______ _______ _____ _____    ______ ____
ROOT
ATOM      1  C   UNL     1      -7.337   5.793 130.933  0.00  0.00    +0.000 C 
ATOM      2  O   UNL     1      -7.398   6.908 130.408  0.00  0.00    +0.000 OA
ATOM      3  N   UNL     1      -7.410   4.569 130.150  0.00  0.00    +0.000 N 
ATOM      4  C   UNL     1      -6.511   4.312 129.011  0.00  0.00    +0.000 C 
ATOM      5  C   UNL     1      -7.217   3.703 127.740  0.00  0.00    +0.000 C 
ATOM      6  C   UNL     1      -8.002   2.012 127.937  0.00  0.00    +0.000 C 
ATOM      7  C   UNL     1      -9.031   2.782 129.207  0.00  0.00    +0.000 C 
ATOM      8  C   UNL     1      -8.268   3.415 130.451  0.00  0.00    +0.000 C 
ENDROOT
BRANCH   6   9
ATOM      9  N   UNL     1      -7.529   0.317 127.277  0.00  0.00    +0.000 N 
ATOM     10  C   UNL     1      -8.527   0.725 126.328  0.00  0.00    +0.000 C 
ATOM     11  O   UNL     1      -9.719   1.001 126.440  0.00  0.00    +0.000 OA
ATOM     12  N   UNL     1      -7.852   1.043 125.210  0.00  0.00    +0.000 N 
ATOM     13  C   UNL     1      -8.175  -0.132 124.530  0.00  0.00    +0.000 C 
ATOM     14  C   UNL     1      -6.865  -0.740 124.667  0.00  0.00    +0.000 A 
ATOM     15  C   UNL     1      -6.412  -1.211 123.255  0.00  0.00    +0.000 A 
ATOM     16  C   UNL     1      -5.719  -2.329 122.938  0.00  0.00    +0.000 A 
ATOM     17  C   UNL     1      -5.515  -2.985 124.125  0.00  0.00    +0.000 A 
ATOM     18  C   UNL     1      -5.992  -2.366 125.660  0.00  0.00    +0.000 A 
ATOM     19  C   UNL     1      -6.642  -0.947 126.059  0.00  0.00    +0.000 A 
ATOM     20  H   UNL     1      -6.878   1.062 125.587  0.00  0.00    +0.000 HD
ENDBRANCH   6   9
BRANCH   1  24
ATOM     21  C   UNL     1      -6.493   5.378 135.240  0.00  0.00    +0.000 A 
ATOM     22  C   UNL     1      -5.445   5.564 134.338  0.00  0.00    +0.000 A 
ATOM     23  C   UNL     1      -5.713   5.814 132.963  0.00  0.00    +0.000 A 
ATOM     24  C   UNL     1      -7.035   5.776 132.443  0.00  0.00    +0.000 A 
ATOM     25  C   UNL     1      -8.050   5.563 133.368  0.00  0.00    +0.000 A 
ATOM     26  C   UNL     1      -7.792   5.385 134.741  0.00  0.00    +0.000 A 
BRANCH  21  27
ATOM     27  O   UNL     1      -6.187   5.317 136.577  0.00  0.00    +0.000 OA
BRANCH  27  28
ATOM     28  C   UNL     1      -6.316   6.541 137.317  0.00  0.00    +0.000 C 
BRANCH  28  29
ATOM     29  C   UNL     1      -7.616   6.510 138.133  0.00  0.00    +0.000 C 
BRANCH  29  30
ATOM     30  C   UNL     1      -8.601   7.579 137.658  0.00  0.00    +0.000 C 
BRANCH  30  34
ATOM     31  C   UNL     1      -9.725  10.695 139.564  0.00  0.00    +0.000 C 
ATOM     32  C   UNL     1      -9.798   9.499 138.641  0.00  0.00    +0.000 C 
ATOM     33  O   UNL     1     -10.830   9.218 138.038  0.00  0.00    +0.000 OA
ATOM     34  N   UNL     1      -8.640   8.755 138.520  0.00  0.00    +0.000 N 
ATOM     35  H   UNL     1      -7.810   9.021 139.037  0.00  0.00    +0.000 HD
ENDBRANCH  30  34
ENDBRANCH  29  30
ENDBRANCH  28  29
ENDBRANCH  27  28
ENDBRANCH  21  27
ENDBRANCH   1  24
TORSDOF 7
ENDMDL
