MODEL 1
REMARK VINA RESULT:      -8.6      0.000      0.000
REMARK  Name = CHEMBL1790713
REMARK  27 active torsions:
REMARK  status: ('A' for Active; 'I' for Inactive)
REMARK    1  A    between atoms: C_1  and  C_2
REMARK    2  A    between atoms: C_2  and  C_3
REMARK    3  A    between atoms: C_3  and  C_4
REMARK    4  A    between atoms: C_3  and  C_5
REMARK    5  A    between atoms: C_9  and  C_10
REMARK    6  A    between atoms: C_9  and  C_11
REMARK    7  A    between atoms: C_14  and  O_15
REMARK    8  A    between atoms: C_31  and  C_32
REMARK    9  A    between atoms: C_38  and  C_39
REMARK   10  A    between atoms: N_41  and  C_42
REMARK   11  A    between atoms: C_42  and  C_43
REMARK   12  A    between atoms: C_42  and  C_74
REMARK   13  A    between atoms: C_43  and  C_44
REMARK   14  A    between atoms: C_44  and  C_45
REMARK   15  A    between atoms: C_45  and  N_46
REMARK   16  A    between atoms: C_47  and  C_49
REMARK   17  A    between atoms: C_62  and  O_63
REMARK   18  A    between atoms: C_69  and  O_70
REMARK   19  A    between atoms: N_76  and  C_77
REMARK   20  A    between atoms: C_77  and  C_78
REMARK   21  A    between atoms: C_77  and  C_81
REMARK   22  A    between atoms: C_84  and  O_85
REMARK   23  A    between atoms: C_91  and  C_92
REMARK   24  A    between atoms: C_92  and  C_93
REMARK   25  A    between atoms: C_99  and  C_100
REMARK   26  A    between atoms: C_100  and  C_101
REMARK   27  A    between atoms: C_100  and  O_102
REMARK                            x       y       z     vdW  Elec       q    Type
REMARK                         _______ _______ _______ _____ _____    ______ ____
ROOT
ATOM      1  C   UNL     1      -5.009  -0.915 131.789  0.00  0.00    +0.000 C 
ATOM      2  O   UNL     1      -4.025  -0.140 131.858  0.00  0.00    +0.000 OA
ATOM      3  N   UNL     1      -4.957  -1.936 130.878  0.00  0.00    +0.000 N 
ATOM      4  C   UNL     1      -5.976  -2.587 130.065  0.00  0.00    +0.000 C 
ATOM      5  C   UNL     1      -5.669  -4.029 130.311  0.00  0.00    +0.000 C 
ATOM      6  C   UNL     1      -4.148  -4.034 130.276  0.00  0.00    +0.000 C 
ATOM      7  C   UNL     1      -3.716  -2.660 130.822  0.00  0.00    +0.000 C 
ENDROOT
BRANCH   1  27
ATOM      8  C   UNL     1      -6.957   4.007 127.719  0.00  0.00    +0.000 C 
ATOM      9  N   UNL     1      -6.812   4.696 129.917  0.00  0.00    +0.000 N 
ATOM     10  C   UNL     1      -5.327   6.105 130.947  0.00  0.00    +0.000 C 
ATOM     11  O   UNL     1      -4.584   7.104 131.674  0.00  0.00    +0.000 OA
ATOM     12  C   UNL     1      -4.654   7.096 130.141  0.00  0.00    +0.000 C 
ATOM     13  C   UNL     1      -3.443   7.857 129.906  0.00  0.00    +0.000 C 
ATOM     14  N   UNL     1      -6.075   7.796 130.254  0.00  0.00    +0.000 N 
ATOM     15  C   UNL     1      -7.377   7.339 130.706  0.00  0.00    +0.000 C 
ATOM     16  O   UNL     1      -8.386   7.899 130.311  0.00  0.00    +0.000 OA
ATOM     17  C   UNL     1      -7.778   6.224 131.657  0.00  0.00    +0.000 C 
ATOM     18  C   UNL     1      -6.612   5.515 131.701  0.00  0.00    +0.000 C 
ATOM     19  C   UNL     1      -5.602   6.404 133.008  0.00  0.00    +0.000 C 
ATOM     20  C   UNL     1      -3.747   5.962 133.158  0.00  0.00    +0.000 C 
ATOM     21  C   UNL     1      -2.962   5.548 131.966  0.00  0.00    +0.000 C 
ATOM     22  C   UNL     1      -3.988   4.695 131.287  0.00  0.00    +0.000 C 
ATOM     23  C   UNL     1      -5.483   5.358 129.649  0.00  0.00    +0.000 C 
ATOM     24  S   UNL     1      -6.185   4.505 133.387  0.00  0.00    +0.000 S 
ATOM     25  S   UNL     1      -7.008   3.038 132.629  0.00  0.00    +0.000 S 
ATOM     26  C   UNL     1      -6.624   0.467 133.504  0.00  0.00    +0.000 C 
ATOM     27  C   UNL     1      -6.498  -0.625 132.403  0.00  0.00    +0.000 C 
ATOM     28  N   UNL     1      -7.592  -0.577 131.439  0.00  0.00    +0.000 N 
ATOM     29  C   UNL     1      -7.511   0.048 130.183  0.00  0.00    +0.000 C 
ATOM     30  O   UNL     1      -8.417  -0.094 129.303  0.00  0.00    +0.000 OA
ATOM     31  C   UNL     1      -6.686   1.310 130.317  0.00  0.00    +0.000 C 
ATOM     32  N   UNL     1      -6.255   1.159 128.943  0.00  0.00    +0.000 N 
ATOM     33  C   UNL     1      -6.939   1.461 127.868  0.00  0.00    +0.000 C 
ATOM     34  O   UNL     1      -6.238   1.397 126.844  0.00  0.00    +0.000 OA
ATOM     35  C   UNL     1      -8.495   2.070 128.085  0.00  0.00    +0.000 C 
ATOM     36  N   UNL     1      -9.053   3.346 127.452  0.00  0.00    +0.000 N 
ATOM     37  C   UNL     1      -8.292   4.164 126.708  0.00  0.00    +0.000 C 
ATOM     38  O   UNL     1      -8.713   4.826 125.768  0.00  0.00    +0.000 OA
ATOM     39  H   UNL     1      -5.830   4.540 131.060  0.00  0.00    +0.000 HD
ATOM     40  H   UNL     1      -5.999   8.488 129.558  0.00  0.00    +0.000 HD
ATOM     41  H   UNL     1      -8.380  -1.144 131.679  0.00  0.00    +0.000 HD
ATOM     42  H   UNL     1      -5.281   1.242 128.756  0.00  0.00    +0.000 HD
ATOM     43  H   UNL     1      -9.170   4.132 128.090  0.00  0.00    +0.000 HD
BRANCH  12  44
ATOM     44  C   UNL     1      -3.843   5.487 129.691  0.00  0.00    +0.000 A 
ATOM     45  C   UNL     1      -4.312   4.631 127.986  0.00  0.00    +0.000 A 
ATOM     46  C   UNL     1      -3.578   4.041 127.310  0.00  0.00    +0.000 A 
ATOM     47  C   UNL     1      -2.750   3.614 128.116  0.00  0.00    +0.000 A 
ATOM     48  C   UNL     1      -2.395   4.251 129.304  0.00  0.00    +0.000 A 
ATOM     49  C   UNL     1      -2.713   5.323 130.019  0.00  0.00    +0.000 A 
BRANCH  47  50
ATOM     50  O   UNL     1      -2.247   2.481 127.717  0.00  0.00    +0.000 OA
ATOM     51  H   UNL     1      -2.800   1.713 127.903  0.00  0.00    +0.000 HD
ENDBRANCH  47  50
ENDBRANCH  12  44
BRANCH  35  52
ATOM     52  C   UNL     1      -8.927   2.295 129.553  0.00  0.00    +0.000 C 
ATOM     53  C   UNL     1      -9.648   3.528 129.737  0.00  0.00    +0.000 C 
BRANCH  52  54
ATOM     54  O   UNL     1      -9.880   1.627 130.386  0.00  0.00    +0.000 OA
ATOM     55  H   UNL     1     -10.160   2.280 131.111  0.00  0.00    +0.000 HD
ENDBRANCH  52  54
ENDBRANCH  35  52
BRANCH   8  56
ATOM     56  C   UNL     1      -7.414   3.235 125.540  0.00  0.00    +0.000 C 
ATOM     57  C   UNL     1      -6.809   3.317 123.509  0.00  0.00    +0.000 C 
BRANCH  56  59
ATOM     58  C   UNL     1      -9.364   1.722 124.576  0.00  0.00    +0.000 C 
ATOM     59  C   UNL     1      -7.922   1.605 124.407  0.00  0.00    +0.000 C 
ENDBRANCH  56  59
ENDBRANCH   8  56
BRANCH  31  60
ATOM     60  C   UNL     1      -5.531   1.386 131.404  0.00  0.00    +0.000 C 
BRANCH  60  61
ATOM     61  C   UNL     1      -4.025   1.733 131.120  0.00  0.00    +0.000 C 
ATOM     62  N   UNL     1      -3.406   2.159 133.057  0.00  0.00    +0.000 N 
ATOM     63  O   UNL     1      -3.241   1.720 130.131  0.00  0.00    +0.000 OA
ATOM     64  H   UNL     1      -4.156   2.711 133.521  0.00  0.00    +0.000 HD
ATOM     65  H   UNL     1      -2.534   2.768 132.956  0.00  0.00    +0.000 HD
ENDBRANCH  60  61
ENDBRANCH  31  60
ENDBRANCH   1  27
BRANCH   7  66
ATOM     66  C   UNL     1      -3.010  -2.801 132.154  0.00  0.00    +0.000 C 
ATOM     67  O   UNL     1      -2.223  -1.974 132.609  0.00  0.00    +0.000 OA
ATOM     68  N   UNL     1      -3.367  -3.990 132.766  0.00  0.00    +0.000 N 
ATOM     69  H   UNL     1      -3.934  -4.675 132.293  0.00  0.00    +0.000 HD
BRANCH  68  70
ATOM     70  C   UNL     1      -3.182  -4.200 134.153  0.00  0.00    +0.000 C 
BRANCH  70  71
ATOM     71  C   UNL     1      -1.904  -5.087 134.469  0.00  0.00    +0.000 C 
ATOM     72  O   UNL     1      -1.958  -6.296 134.228  0.00  0.00    +0.000 OA
ATOM     73  N   UNL     1      -0.772  -4.519 135.057  0.00  0.00    +0.000 N 
ATOM     74  H   UNL     1       0.064  -5.096 135.155  0.00  0.00    +0.000 HD
BRANCH  73  75
ATOM     75  C   UNL     1      -0.552  -3.084 135.323  0.00  0.00    +0.000 C 
BRANCH  75  76
ATOM     76  C   UNL     1      -0.520  -2.760 136.785  0.00  0.00    +0.000 A 
ATOM     77  C   UNL     1      -1.538  -2.003 137.359  0.00  0.00    +0.000 A 
ATOM     78  C   UNL     1      -1.519  -1.697 138.718  0.00  0.00    +0.000 A 
ATOM     79  C   UNL     1      -0.468  -2.144 139.500  0.00  0.00    +0.000 A 
ATOM     80  C   UNL     1       0.569  -2.853 138.930  0.00  0.00    +0.000 A 
ATOM     81  C   UNL     1       0.536  -3.157 137.590  0.00  0.00    +0.000 A 
BRANCH  79  82
ATOM     82  O   UNL     1      -0.365  -1.934 140.839  0.00  0.00    +0.000 OA
ATOM     83  H   UNL     1      -0.877  -2.566 141.365  0.00  0.00    +0.000 HD
ENDBRANCH  79  82
ENDBRANCH  75  76
BRANCH  75  84
ATOM     84  C   UNL     1       0.618  -2.521 134.551  0.00  0.00    +0.000 C 
ATOM     85  N   UNL     1       0.362  -1.004 134.207  0.00  0.00    +0.000 N 
ATOM     86  O   UNL     1       1.481  -3.236 134.011  0.00  0.00    +0.000 OA
ATOM     87  H   UNL     1       0.848  -0.722 133.304  0.00  0.00    +0.000 HD
ATOM     88  H   UNL     1      -0.655  -0.746 134.057  0.00  0.00    +0.000 HD
ENDBRANCH  75  84
ENDBRANCH  73  75
ENDBRANCH  70  71
BRANCH  70  89
ATOM     89  C   UNL     1      -4.472  -4.831 134.459  0.00  0.00    +0.000 C 
BRANCH  89  90
ATOM     90  C   UNL     1      -5.781  -4.534 133.860  0.00  0.00    +0.000 C 
BRANCH  90  91
ATOM     91  C   UNL     1      -6.692  -3.543 134.524  0.00  0.00    +0.000 C 
BRANCH  91  92
ATOM     92  N   UNL     1      -5.863  -2.558 135.286  0.00  0.00    +0.000 N 
ATOM     93  C   UNL     1      -6.355  -1.833 136.403  0.00  0.00    +0.000 C 
ATOM     94  O   UNL     1      -7.548  -2.076 136.688  0.00  0.00    +0.000 OA
ATOM     95  H   UNL     1      -4.912  -2.494 134.968  0.00  0.00    +0.000 HD
BRANCH  93  96
ATOM     96  C   UNL     1      -5.472  -0.797 137.527  0.00  0.00    +0.000 A 
ATOM     97  C   UNL     1      -5.031   0.274 136.991  0.00  0.00    +0.000 A 
ATOM     98  C   UNL     1      -3.853   1.085 137.713  0.00  0.00    +0.000 A 
ATOM     99  C   UNL     1      -3.715   2.271 137.605  0.00  0.00    +0.000 A 
ATOM    100  C   UNL     1      -3.900   1.853 138.809  0.00  0.00    +0.000 A 
ATOM    101  C   UNL     1      -4.800  -0.052 138.705  0.00  0.00    +0.000 A 
ATOM    102  C   UNL     1      -3.031   3.819 138.561  0.00  0.00    +0.000 C 
ATOM    103  O   UNL     1      -4.033   4.292 137.657  0.00  0.00    +0.000 OA
ATOM    104  C   UNL     1      -4.157   3.278 136.806  0.00  0.00    +0.000 C 
ATOM    105  O   UNL     1      -4.780   2.835 135.863  0.00  0.00    +0.000 OA
ATOM    106  C   UNL     1      -1.699   4.496 139.661  0.00  0.00    +0.000 A 
ATOM    107  C   UNL     1      -1.820   4.099 140.972  0.00  0.00    +0.000 A 
ATOM    108  C   UNL     1      -1.014   4.557 142.039  0.00  0.00    +0.000 A 
ATOM    109  C   UNL     1      -0.027   5.509 141.832  0.00  0.00    +0.000 A 
ATOM    110  C   UNL     1       0.145   6.039 140.563  0.00  0.00    +0.000 A 
ATOM    111  C   UNL     1      -0.653   5.550 139.487  0.00  0.00    +0.000 A 
ATOM    112  O   UNL     1      -0.349   6.135 138.286  0.00  0.00    +0.000 OA
ATOM    113  C   UNL     1      -1.510   6.452 137.623  0.00  0.00    +0.000 A 
ATOM    114  C   UNL     1      -1.177   7.360 136.395  0.00  0.00    +0.000 A 
ATOM    115  C   UNL     1      -2.122   8.038 135.640  0.00  0.00    +0.000 A 
ATOM    116  C   UNL     1      -3.344   8.130 136.264  0.00  0.00    +0.000 A 
ATOM    117  C   UNL     1      -3.674   7.188 137.518  0.00  0.00    +0.000 A 
ATOM    118  C   UNL     1      -2.848   5.831 138.099  0.00  0.00    +0.000 A 
BRANCH 115 119
ATOM    119  O   UNL     1      -1.905   8.567 134.396  0.00  0.00    +0.000 OA
ATOM    120  H   UNL     1      -1.584   7.933 133.724  0.00  0.00    +0.000 HD
ENDBRANCH 115 119
BRANCH 109 121
ATOM    121  O   UNL     1       0.805   5.961 142.814  0.00  0.00    +0.000 OA
ATOM    122  H   UNL     1       0.361   6.117 143.664  0.00  0.00    +0.000 HD
ENDBRANCH 109 121
ENDBRANCH  93  96
ENDBRANCH  91  92
ENDBRANCH  90  91
ENDBRANCH  89  90
ENDBRANCH  70  89
ENDBRANCH  68  70
ENDBRANCH   7  66
TORSDOF 23
ENDMDL
MODEL 2
REMARK VINA RESULT:      -8.3      4.634     13.449
REMARK  Name = CHEMBL1790713
REMARK  27 active torsions:
REMARK  status: ('A' for Active; 'I' for Inactive)
REMARK    1  A    between atoms: C_1  and  C_2
REMARK    2  A    between atoms: C_2  and  C_3
REMARK    3  A    between atoms: C_3  and  C_4
REMARK    4  A    between atoms: C_3  and  C_5
REMARK    5  A    between atoms: C_9  and  C_10
REMARK    6  A    between atoms: C_9  and  C_11
REMARK    7  A    between atoms: C_14  and  O_15
REMARK    8  A    between atoms: C_31  and  C_32
REMARK    9  A    between atoms: C_38  and  C_39
REMARK   10  A    between atoms: N_41  and  C_42
REMARK   11  A    between atoms: C_42  and  C_43
REMARK   12  A    between atoms: C_42  and  C_74
REMARK   13  A    between atoms: C_43  and  C_44
REMARK   14  A    between atoms: C_44  and  C_45
REMARK   15  A    between atoms: C_45  and  N_46
REMARK   16  A    between atoms: C_47  and  C_49
REMARK   17  A    between atoms: C_62  and  O_63
REMARK   18  A    between atoms: C_69  and  O_70
REMARK   19  A    between atoms: N_76  and  C_77
REMARK   20  A    between atoms: C_77  and  C_78
REMARK   21  A    between atoms: C_77  and  C_81
REMARK   22  A    between atoms: C_84  and  O_85
REMARK   23  A    between atoms: C_91  and  C_92
REMARK   24  A    between atoms: C_92  and  C_93
REMARK   25  A    between atoms: C_99  and  C_100
REMARK   26  A    between atoms: C_100  and  C_101
REMARK   27  A    between atoms: C_100  and  O_102
REMARK                            x       y       z     vdW  Elec       q    Type
REMARK                         _______ _______ _______ _____ _____    ______ ____
ROOT
ATOM      1  C   UNL     1      -4.445   6.638 138.318  0.00  0.00    +0.000 C 
ATOM      2  O   UNL     1      -3.661   7.093 137.450  0.00  0.00    +0.000 OA
ATOM      3  N   UNL     1      -5.722   7.130 138.349  0.00  0.00    +0.000 N 
ATOM      4  C   UNL     1      -6.658   7.381 139.438  0.00  0.00    +0.000 C 
ATOM      5  C   UNL     1      -7.903   6.750 138.905  0.00  0.00    +0.000 C 
ATOM      6  C   UNL     1      -7.866   7.174 137.444  0.00  0.00    +0.000 C 
ATOM      7  C   UNL     1      -6.373   7.258 137.074  0.00  0.00    +0.000 C 
ENDROOT
BRANCH   1  27
ATOM      8  C   UNL     1      -0.445  11.130 141.220  0.00  0.00    +0.000 C 
ATOM      9  N   UNL     1       0.684   9.204 140.631  0.00  0.00    +0.000 N 
ATOM     10  C   UNL     1       2.251   8.830 139.000  0.00  0.00    +0.000 C 
ATOM     11  O   UNL     1       3.366   8.501 138.148  0.00  0.00    +0.000 OA
ATOM     12  C   UNL     1       3.040   9.948 138.541  0.00  0.00    +0.000 C 
ATOM     13  C   UNL     1       3.713  10.589 137.430  0.00  0.00    +0.000 C 
ATOM     14  N   UNL     1       3.772   9.683 139.925  0.00  0.00    +0.000 N 
ATOM     15  C   UNL     1       3.443   8.879 141.088  0.00  0.00    +0.000 C 
ATOM     16  O   UNL     1       3.926   9.157 142.173  0.00  0.00    +0.000 OA
ATOM     17  C   UNL     1       2.558   7.654 141.247  0.00  0.00    +0.000 C 
ATOM     18  C   UNL     1       1.853   7.714 140.080  0.00  0.00    +0.000 C 
ATOM     19  C   UNL     1       2.977   6.866 138.840  0.00  0.00    +0.000 C 
ATOM     20  C   UNL     1       2.543   7.025 136.984  0.00  0.00    +0.000 C 
ATOM     21  C   UNL     1       1.877   8.245 136.459  0.00  0.00    +0.000 C 
ATOM     22  C   UNL     1       0.919   8.498 137.582  0.00  0.00    +0.000 C 
ATOM     23  C   UNL     1       1.252   9.881 139.407  0.00  0.00    +0.000 C 
ATOM     24  S   UNL     1       1.209   5.986 139.278  0.00  0.00    +0.000 S 
ATOM     25  S   UNL     1      -0.368   6.230 140.202  0.00  0.00    +0.000 S 
ATOM     26  C   UNL     1      -2.707   4.943 139.571  0.00  0.00    +0.000 C 
ATOM     27  C   UNL     1      -4.006   5.795 139.650  0.00  0.00    +0.000 C 
ATOM     28  N   UNL     1      -4.141   6.492 140.925  0.00  0.00    +0.000 N 
ATOM     29  C   UNL     1      -3.794   7.838 141.129  0.00  0.00    +0.000 C 
ATOM     30  O   UNL     1      -4.099   8.455 142.197  0.00  0.00    +0.000 OA
ATOM     31  C   UNL     1      -2.546   8.147 140.329  0.00  0.00    +0.000 C 
ATOM     32  N   UNL     1      -2.988   9.519 140.196  0.00  0.00    +0.000 N 
ATOM     33  C   UNL     1      -2.904  10.463 141.100  0.00  0.00    +0.000 C 
ATOM     34  O   UNL     1      -3.193  11.577 140.631  0.00  0.00    +0.000 OA
ATOM     35  C   UNL     1      -2.236  10.050 142.591  0.00  0.00    +0.000 C 
ATOM     36  N   UNL     1      -1.110  10.801 143.306  0.00  0.00    +0.000 N 
ATOM     37  C   UNL     1      -0.479  11.843 142.742  0.00  0.00    +0.000 C 
ATOM     38  O   UNL     1      -0.019  12.788 143.371  0.00  0.00    +0.000 OA
ATOM     39  H   UNL     1       0.753   8.290 139.425  0.00  0.00    +0.000 HD
ATOM     40  H   UNL     1       4.303  10.506 140.017  0.00  0.00    +0.000 HD
ATOM     41  H   UNL     1      -4.632   5.977 141.628  0.00  0.00    +0.000 HD
ATOM     42  H   UNL     1      -2.963   9.923 139.286  0.00  0.00    +0.000 HD
ATOM     43  H   UNL     1      -0.207  10.329 143.306  0.00  0.00    +0.000 HD
BRANCH  12  44
ATOM     44  C   UNL     1       1.358  10.217 137.800  0.00  0.00    +0.000 A 
ATOM     45  C   UNL     1       0.209  11.629 138.540  0.00  0.00    +0.000 A 
ATOM     46  C   UNL     1      -0.512  12.294 137.923  0.00  0.00    +0.000 A 
ATOM     47  C   UNL     1      -0.799  11.573 136.967  0.00  0.00    +0.000 A 
ATOM     48  C   UNL     1       0.041  10.601 136.425  0.00  0.00    +0.000 A 
ATOM     49  C   UNL     1       1.234  10.057 136.629  0.00  0.00    +0.000 A 
BRANCH  47  50
ATOM     50  O   UNL     1      -1.997  11.829 136.526  0.00  0.00    +0.000 OA
ATOM     51  H   UNL     1      -2.179  11.481 135.646  0.00  0.00    +0.000 HD
ENDBRANCH  47  50
ENDBRANCH  12  44
BRANCH  35  52
ATOM     52  C   UNL     1      -1.702   8.604 142.708  0.00  0.00    +0.000 C 
ATOM     53  C   UNL     1      -0.439   8.531 143.396  0.00  0.00    +0.000 C 
BRANCH  52  54
ATOM     54  O   UNL     1      -2.158   7.469 143.453  0.00  0.00    +0.000 OA
ATOM     55  H   UNL     1      -3.137   7.623 143.670  0.00  0.00    +0.000 HD
ENDBRANCH  52  54
ENDBRANCH  35  52
BRANCH   8  56
ATOM     56  C   UNL     1      -1.646  12.952 142.107  0.00  0.00    +0.000 C 
ATOM     57  C   UNL     1      -1.982  15.042 141.965  0.00  0.00    +0.000 C 
BRANCH  56  59
ATOM     58  C   UNL     1      -3.250  13.306 144.187  0.00  0.00    +0.000 C 
ATOM     59  C   UNL     1      -3.473  13.595 142.777  0.00  0.00    +0.000 C 
ENDBRANCH  56  59
ENDBRANCH   8  56
BRANCH  31  60
ATOM     60  C   UNL     1      -2.265   7.371 138.973  0.00  0.00    +0.000 C 
BRANCH  60  61
ATOM     61  C   UNL     1      -2.041   8.034 137.566  0.00  0.00    +0.000 C 
ATOM     62  N   UNL     1      -1.140   6.441 136.583  0.00  0.00    +0.000 N 
ATOM     63  O   UNL     1      -2.330   9.124 136.998  0.00  0.00    +0.000 OA
ATOM     64  H   UNL     1      -0.468   5.995 137.240  0.00  0.00    +0.000 HD
ATOM     65  H   UNL     1      -0.600   6.871 135.767  0.00  0.00    +0.000 HD
ENDBRANCH  60  61
ENDBRANCH  31  60
ENDBRANCH   1  27
BRANCH   7  66
ATOM     66  C   UNL     1      -6.001   6.188 136.068  0.00  0.00    +0.000 C 
ATOM     67  O   UNL     1      -6.461   5.048 136.074  0.00  0.00    +0.000 OA
ATOM     68  N   UNL     1      -5.073   6.674 135.166  0.00  0.00    +0.000 N 
ATOM     69  H   UNL     1      -4.656   7.585 135.280  0.00  0.00    +0.000 HD
BRANCH  68  70
ATOM     70  C   UNL     1      -4.848   6.050 133.916  0.00  0.00    +0.000 C 
BRANCH  70  71
ATOM     71  C   UNL     1      -5.158   4.494 133.949  0.00  0.00    +0.000 C 
ATOM     72  O   UNL     1      -4.408   3.762 134.600  0.00  0.00    +0.000 OA
ATOM     73  N   UNL     1      -6.220   3.965 133.212  0.00  0.00    +0.000 N 
ATOM     74  H   UNL     1      -6.450   2.978 133.334  0.00  0.00    +0.000 HD
BRANCH  73  75
ATOM     75  C   UNL     1      -7.231   4.734 132.460  0.00  0.00    +0.000 C 
BRANCH  75  76
ATOM     76  C   UNL     1      -7.708   4.023 131.231  0.00  0.00    +0.000 A 
ATOM     77  C   UNL     1      -8.398   2.819 131.339  0.00  0.00    +0.000 A 
ATOM     78  C   UNL     1      -8.848   2.151 130.203  0.00  0.00    +0.000 A 
ATOM     79  C   UNL     1      -8.594   2.689 128.953  0.00  0.00    +0.000 A 
ATOM     80  C   UNL     1      -7.869   3.856 128.835  0.00  0.00    +0.000 A 
ATOM     81  C   UNL     1      -7.438   4.513 129.963  0.00  0.00    +0.000 A 
BRANCH  79  82
ATOM     82  O   UNL     1      -9.015   2.141 127.782  0.00  0.00    +0.000 OA
ATOM     83  H   UNL     1      -9.809   2.566 127.425  0.00  0.00    +0.000 HD
ENDBRANCH  79  82
ENDBRANCH  75  76
BRANCH  75  84
ATOM     84  C   UNL     1      -8.349   5.243 133.339  0.00  0.00    +0.000 C 
ATOM     85  N   UNL     1      -8.641   4.214 134.496  0.00  0.00    +0.000 N 
ATOM     86  O   UNL     1      -9.110   6.165 133.000  0.00  0.00    +0.000 OA
ATOM     87  H   UNL     1      -9.659   4.249 134.801  0.00  0.00    +0.000 HD
ATOM     88  H   UNL     1      -8.471   3.198 134.245  0.00  0.00    +0.000 HD
ENDBRANCH  75  84
ENDBRANCH  73  75
ENDBRANCH  70  71
BRANCH  70  89
ATOM     89  C   UNL     1      -3.433   6.401 133.741  0.00  0.00    +0.000 C 
BRANCH  89  90
ATOM     90  C   UNL     1      -2.840   7.745 133.697  0.00  0.00    +0.000 C 
BRANCH  90  91
ATOM     91  C   UNL     1      -2.468   8.350 132.374  0.00  0.00    +0.000 C 
BRANCH  91  92
ATOM     92  N   UNL     1      -3.163   7.596 131.285  0.00  0.00    +0.000 N 
ATOM     93  C   UNL     1      -2.510   6.632 130.472  0.00  0.00    +0.000 C 
ATOM     94  O   UNL     1      -1.296   6.478 130.734  0.00  0.00    +0.000 OA
ATOM     95  H   UNL     1      -4.145   7.795 131.215  0.00  0.00    +0.000 HD
BRANCH  93  96
ATOM     96  C   UNL     1      -3.210   5.520 129.294  0.00  0.00    +0.000 A 
ATOM     97  C   UNL     1      -3.437   4.357 129.766  0.00  0.00    +0.000 A 
ATOM     98  C   UNL     1      -3.632   3.126 128.758  0.00  0.00    +0.000 A 
ATOM     99  C   UNL     1      -4.307   2.169 129.019  0.00  0.00    +0.000 A 
ATOM    100  C   UNL     1      -4.677   2.828 127.976  0.00  0.00    +0.000 A 
ATOM    101  C   UNL     1      -3.861   4.769 128.108  0.00  0.00    +0.000 A 
ATOM    102  C   UNL     1      -5.394   0.797 128.176  0.00  0.00    +0.000 C 
ATOM    103  O   UNL     1      -5.884   0.961 129.510  0.00  0.00    +0.000 OA
ATOM    104  C   UNL     1      -4.883   1.597 130.110  0.00  0.00    +0.000 C 
ATOM    105  O   UNL     1      -4.515   2.148 131.127  0.00  0.00    +0.000 OA
ATOM    106  C   UNL     1      -5.581  -0.369 126.745  0.00  0.00    +0.000 A 
ATOM    107  C   UNL     1      -5.977   0.252 125.584  0.00  0.00    +0.000 A 
ATOM    108  C   UNL     1      -6.305  -0.409 124.378  0.00  0.00    +0.000 A 
ATOM    109  C   UNL     1      -6.284  -1.793 124.293  0.00  0.00    +0.000 A 
ATOM    110  C   UNL     1      -5.968  -2.535 125.419  0.00  0.00    +0.000 A 
ATOM    111  C   UNL     1      -5.610  -1.859 126.623  0.00  0.00    +0.000 A 
ATOM    112  O   UNL     1      -5.285  -2.716 127.642  0.00  0.00    +0.000 OA
ATOM    113  C   UNL     1      -5.871  -2.286 128.808  0.00  0.00    +0.000 A 
ATOM    114  C   UNL     1      -5.736  -3.397 129.899  0.00  0.00    +0.000 A 
ATOM    115  C   UNL     1      -6.400  -3.388 131.117  0.00  0.00    +0.000 A 
ATOM    116  C   UNL     1      -7.452  -2.503 131.149  0.00  0.00    +0.000 A 
ATOM    117  C   UNL     1      -7.575  -1.365 130.027  0.00  0.00    +0.000 A 
ATOM    118  C   UNL     1      -6.441  -0.846 128.884  0.00  0.00    +0.000 A 
BRANCH 115 119
ATOM    119  O   UNL     1      -6.068  -4.154 132.201  0.00  0.00    +0.000 OA
ATOM    120  H   UNL     1      -5.492  -4.921 132.009  0.00  0.00    +0.000 HD
ENDBRANCH 115 119
BRANCH 109 121
ATOM    121  O   UNL     1      -6.555  -2.483 123.147  0.00  0.00    +0.000 OA
ATOM    122  H   UNL     1      -7.284  -3.119 123.235  0.00  0.00    +0.000 HD
ENDBRANCH 109 121
ENDBRANCH  93  96
ENDBRANCH  91  92
ENDBRANCH  90  91
ENDBRANCH  89  90
ENDBRANCH  70  89
ENDBRANCH  68  70
ENDBRANCH   7  66
TORSDOF 23
ENDMDL
MODEL 3
REMARK VINA RESULT:      -8.2      2.220      3.362
REMARK  Name = CHEMBL1790713
REMARK  27 active torsions:
REMARK  status: ('A' for Active; 'I' for Inactive)
REMARK    1  A    between atoms: C_1  and  C_2
REMARK    2  A    between atoms: C_2  and  C_3
REMARK    3  A    between atoms: C_3  and  C_4
REMARK    4  A    between atoms: C_3  and  C_5
REMARK    5  A    between atoms: C_9  and  C_10
REMARK    6  A    between atoms: C_9  and  C_11
REMARK    7  A    between atoms: C_14  and  O_15
REMARK    8  A    between atoms: C_31  and  C_32
REMARK    9  A    between atoms: C_38  and  C_39
REMARK   10  A    between atoms: N_41  and  C_42
REMARK   11  A    between atoms: C_42  and  C_43
REMARK   12  A    between atoms: C_42  and  C_74
REMARK   13  A    between atoms: C_43  and  C_44
REMARK   14  A    between atoms: C_44  and  C_45
REMARK   15  A    between atoms: C_45  and  N_46
REMARK   16  A    between atoms: C_47  and  C_49
REMARK   17  A    between atoms: C_62  and  O_63
REMARK   18  A    between atoms: C_69  and  O_70
REMARK   19  A    between atoms: N_76  and  C_77
REMARK   20  A    between atoms: C_77  and  C_78
REMARK   21  A    between atoms: C_77  and  C_81
REMARK   22  A    between atoms: C_84  and  O_85
REMARK   23  A    between atoms: C_91  and  C_92
REMARK   24  A    between atoms: C_92  and  C_93
REMARK   25  A    between atoms: C_99  and  C_100
REMARK   26  A    between atoms: C_100  and  C_101
REMARK   27  A    between atoms: C_100  and  O_102
REMARK                            x       y       z     vdW  Elec       q    Type
REMARK                         _______ _______ _______ _____ _____    ______ ____
ROOT
ATOM      1  C   UNL     1      -5.422  -1.287 130.774  0.00  0.00    +0.000 C 
ATOM      2  O   UNL     1      -4.560  -0.435 130.450  0.00  0.00    +0.000 OA
ATOM      3  N   UNL     1      -5.233  -2.579 130.363  0.00  0.00    +0.000 N 
ATOM      4  C   UNL     1      -6.156  -3.633 129.963  0.00  0.00    +0.000 C 
ATOM      5  C   UNL     1      -5.642  -4.789 130.758  0.00  0.00    +0.000 C 
ATOM      6  C   UNL     1      -4.136  -4.616 130.624  0.00  0.00    +0.000 C 
ATOM      7  C   UNL     1      -3.901  -3.096 130.524  0.00  0.00    +0.000 C 
ENDROOT
BRANCH   1  27
ATOM      8  C   UNL     1      -6.650   4.304 127.337  0.00  0.00    +0.000 C 
ATOM      9  N   UNL     1      -6.637   4.664 129.617  0.00  0.00    +0.000 N 
ATOM     10  C   UNL     1      -5.141   5.783 130.945  0.00  0.00    +0.000 C 
ATOM     11  O   UNL     1      -4.388   6.603 131.861  0.00  0.00    +0.000 OA
ATOM     12  C   UNL     1      -4.331   6.815 130.343  0.00  0.00    +0.000 C 
ATOM     13  C   UNL     1      -3.051   7.494 130.308  0.00  0.00    +0.000 C 
ATOM     14  N   UNL     1      -5.700   7.612 130.454  0.00  0.00    +0.000 N 
ATOM     15  C   UNL     1      -7.065   7.210 130.740  0.00  0.00    +0.000 C 
ATOM     16  O   UNL     1      -7.993   7.905 130.360  0.00  0.00    +0.000 OA
ATOM     17  C   UNL     1      -7.627   6.013 131.487  0.00  0.00    +0.000 C 
ATOM     18  C   UNL     1      -6.525   5.206 131.511  0.00  0.00    +0.000 C 
ATOM     19  C   UNL     1      -5.563   5.814 133.002  0.00  0.00    +0.000 C 
ATOM     20  C   UNL     1      -3.766   5.197 133.219  0.00  0.00    +0.000 C 
ATOM     21  C   UNL     1      -2.918   4.888 132.039  0.00  0.00    +0.000 C 
ATOM     22  C   UNL     1      -3.945   4.230 131.171  0.00  0.00    +0.000 C 
ATOM     23  C   UNL     1      -5.244   5.241 129.544  0.00  0.00    +0.000 C 
ATOM     24  S   UNL     1      -6.317   3.938 133.057  0.00  0.00    +0.000 S 
ATOM     25  S   UNL     1      -7.182   2.668 132.037  0.00  0.00    +0.000 S 
ATOM     26  C   UNL     1      -7.066  -0.024 132.553  0.00  0.00    +0.000 C 
ATOM     27  C   UNL     1      -6.931  -0.958 131.316  0.00  0.00    +0.000 C 
ATOM     28  N   UNL     1      -7.934  -0.682 130.294  0.00  0.00    +0.000 N 
ATOM     29  C   UNL     1      -7.702   0.102 129.151  0.00  0.00    +0.000 C 
ATOM     30  O   UNL     1      -8.540   0.164 128.198  0.00  0.00    +0.000 OA
ATOM     31  C   UNL     1      -6.799   1.258 129.527  0.00  0.00    +0.000 C 
ATOM     32  N   UNL     1      -6.268   1.263 128.180  0.00  0.00    +0.000 N 
ATOM     33  C   UNL     1      -6.835   1.771 127.114  0.00  0.00    +0.000 C 
ATOM     34  O   UNL     1      -6.058   1.789 126.145  0.00  0.00    +0.000 OA
ATOM     35  C   UNL     1      -8.354   2.475 127.306  0.00  0.00    +0.000 C 
ATOM     36  N   UNL     1      -8.760   3.870 126.827  0.00  0.00    +0.000 N 
ATOM     37  C   UNL     1      -7.880   4.715 126.266  0.00  0.00    +0.000 C 
ATOM     38  O   UNL     1      -8.171   5.536 125.405  0.00  0.00    +0.000 OA
ATOM     39  H   UNL     1      -5.768   4.267 130.792  0.00  0.00    +0.000 HD
ATOM     40  H   UNL     1      -5.515   8.386 129.874  0.00  0.00    +0.000 HD
ATOM     41  H   UNL     1      -8.779  -1.207 130.391  0.00  0.00    +0.000 HD
ATOM     42  H   UNL     1      -5.278   1.288 128.077  0.00  0.00    +0.000 HD
ATOM     43  H   UNL     1      -8.871   4.566 127.563  0.00  0.00    +0.000 HD
BRANCH  12  44
ATOM     44  C   UNL     1      -3.608   5.221 129.722  0.00  0.00    +0.000 A 
ATOM     45  C   UNL     1      -3.984   4.663 127.876  0.00  0.00    +0.000 A 
ATOM     46  C   UNL     1      -3.239   4.112 127.180  0.00  0.00    +0.000 A 
ATOM     47  C   UNL     1      -2.523   3.501 127.975  0.00  0.00    +0.000 A 
ATOM     48  C   UNL     1      -2.231   3.928 129.269  0.00  0.00    +0.000 A 
ATOM     49  C   UNL     1      -2.529   4.911 130.110  0.00  0.00    +0.000 A 
BRANCH  47  50
ATOM     50  O   UNL     1      -2.074   2.396 127.452  0.00  0.00    +0.000 OA
ATOM     51  H   UNL     1      -2.708   1.938 126.888  0.00  0.00    +0.000 HD
ENDBRANCH  47  50
ENDBRANCH  12  44
BRANCH  35  52
ATOM     52  C   UNL     1      -8.888   2.530 128.756  0.00  0.00    +0.000 C 
ATOM     53  C   UNL     1      -9.232   3.865 129.172  0.00  0.00    +0.000 C 
BRANCH  52  54
ATOM     54  O   UNL     1     -10.097   2.046 129.352  0.00  0.00    +0.000 OA
ATOM     55  H   UNL     1     -10.756   1.870 128.602  0.00  0.00    +0.000 HD
ENDBRANCH  52  54
ENDBRANCH  35  52
BRANCH   8  56
ATOM     56  C   UNL     1      -6.981   3.887 125.042  0.00  0.00    +0.000 C 
ATOM     57  C   UNL     1      -6.178   4.155 123.097  0.00  0.00    +0.000 C 
BRANCH  56  59
ATOM     58  C   UNL     1      -8.989   2.568 123.924  0.00  0.00    +0.000 C 
ATOM     59  C   UNL     1      -7.560   2.495 123.654  0.00  0.00    +0.000 C 
ENDBRANCH  56  59
ENDBRANCH   8  56
BRANCH  31  60
ATOM     60  C   UNL     1      -5.736   1.082 130.693  0.00  0.00    +0.000 C 
BRANCH  60  61
ATOM     61  C   UNL     1      -4.186   1.302 130.563  0.00  0.00    +0.000 C 
ATOM     62  N   UNL     1      -3.656   1.168 132.567  0.00  0.00    +0.000 N 
ATOM     63  O   UNL     1      -3.343   1.433 129.632  0.00  0.00    +0.000 OA
ATOM     64  H   UNL     1      -4.372   1.678 133.124  0.00  0.00    +0.000 HD
ATOM     65  H   UNL     1      -2.719   1.672 132.655  0.00  0.00    +0.000 HD
ENDBRANCH  60  61
ENDBRANCH  31  60
ENDBRANCH   1  27
BRANCH   7  66
ATOM     66  C   UNL     1      -3.168  -2.579 131.744  0.00  0.00    +0.000 C 
ATOM     67  O   UNL     1      -2.394  -1.625 131.730  0.00  0.00    +0.000 OA
ATOM     68  N   UNL     1      -3.486  -3.338 132.856  0.00  0.00    +0.000 N 
ATOM     69  H   UNL     1      -4.045  -4.173 132.781  0.00  0.00    +0.000 HD
BRANCH  68  70
ATOM     70  C   UNL     1      -3.272  -2.861 134.171  0.00  0.00    +0.000 C 
BRANCH  70  71
ATOM     71  C   UNL     1      -2.776  -4.001 135.158  0.00  0.00    +0.000 C 
ATOM     72  O   UNL     1      -3.458  -5.025 135.258  0.00  0.00    +0.000 OA
ATOM     73  N   UNL     1      -1.629  -3.821 135.934  0.00  0.00    +0.000 N 
ATOM     74  H   UNL     1      -1.285  -4.611 136.481  0.00  0.00    +0.000 HD
BRANCH  73  75
ATOM     75  C   UNL     1      -0.689  -2.685 135.853  0.00  0.00    +0.000 C 
BRANCH  75  76
ATOM     76  C   UNL     1       0.104  -2.495 137.109  0.00  0.00    +0.000 A 
ATOM     77  C   UNL     1       0.509  -1.221 137.498  0.00  0.00    +0.000 A 
ATOM     78  C   UNL     1       1.245  -1.032 138.666  0.00  0.00    +0.000 A 
ATOM     79  C   UNL     1       1.584  -2.129 139.440  0.00  0.00    +0.000 A 
ATOM     80  C   UNL     1       1.229  -3.398 139.037  0.00  0.00    +0.000 A 
ATOM     81  C   UNL     1       0.495  -3.574 137.888  0.00  0.00    +0.000 A 
BRANCH  79  82
ATOM     82  O   UNL     1       2.269  -2.058 140.612  0.00  0.00    +0.000 OA
ATOM     83  H   UNL     1       1.691  -1.996 141.388  0.00  0.00    +0.000 HD
ENDBRANCH  79  82
ENDBRANCH  75  76
BRANCH  75  84
ATOM     84  C   UNL     1       0.157  -2.716 134.602  0.00  0.00    +0.000 C 
ATOM     85  N   UNL     1       1.081  -3.993 134.602  0.00  0.00    +0.000 N 
ATOM     86  O   UNL     1       0.314  -1.725 133.867  0.00  0.00    +0.000 OA
ATOM     87  H   UNL     1       1.986  -3.819 134.071  0.00  0.00    +0.000 HD
ATOM     88  H   UNL     1       1.391  -4.320 135.561  0.00  0.00    +0.000 HD
ENDBRANCH  75  84
ENDBRANCH  73  75
ENDBRANCH  70  71
BRANCH  70  89
ATOM     89  C   UNL     1      -4.617  -2.341 134.444  0.00  0.00    +0.000 C 
BRANCH  89  90
ATOM     90  C   UNL     1      -4.991  -1.256 135.362  0.00  0.00    +0.000 C 
BRANCH  90  91
ATOM     91  C   UNL     1      -3.936  -0.608 136.214  0.00  0.00    +0.000 C 
BRANCH  91  92
ATOM     92  N   UNL     1      -4.498   0.644 136.809  0.00  0.00    +0.000 N 
ATOM     93  C   UNL     1      -4.257   1.934 136.267  0.00  0.00    +0.000 C 
ATOM     94  O   UNL     1      -3.521   1.937 135.256  0.00  0.00    +0.000 OA
ATOM     95  H   UNL     1      -5.102   0.485 137.596  0.00  0.00    +0.000 HD
BRANCH  93  96
ATOM     96  C   UNL     1      -4.991   3.477 136.713  0.00  0.00    +0.000 A 
ATOM     97  C   UNL     1      -4.167   4.451 136.710  0.00  0.00    +0.000 A 
ATOM     98  C   UNL     1      -4.534   5.791 137.507  0.00  0.00    +0.000 A 
ATOM     99  C   UNL     1      -4.129   6.874 137.186  0.00  0.00    +0.000 A 
ATOM    100  C   UNL     1      -5.412   6.753 137.192  0.00  0.00    +0.000 A 
ATOM    101  C   UNL     1      -5.871   4.697 137.073  0.00  0.00    +0.000 A 
ATOM    102  C   UNL     1      -4.602   8.758 137.252  0.00  0.00    +0.000 C 
ATOM    103  O   UNL     1      -3.731   8.582 136.131  0.00  0.00    +0.000 OA
ATOM    104  C   UNL     1      -3.168   7.404 136.384  0.00  0.00    +0.000 C 
ATOM    105  O   UNL     1      -2.436   6.533 135.960  0.00  0.00    +0.000 OA
ATOM    106  C   UNL     1      -5.347  10.134 138.248  0.00  0.00    +0.000 A 
ATOM    107  C   UNL     1      -6.720  10.083 138.306  0.00  0.00    +0.000 A 
ATOM    108  C   UNL     1      -7.547  11.066 138.898  0.00  0.00    +0.000 A 
ATOM    109  C   UNL     1      -7.006  12.217 139.450  0.00  0.00    +0.000 A 
ATOM    110  C   UNL     1      -5.636  12.417 139.390  0.00  0.00    +0.000 A 
ATOM    111  C   UNL     1      -4.807  11.406 138.817  0.00  0.00    +0.000 A 
ATOM    112  O   UNL     1      -3.474  11.720 138.860  0.00  0.00    +0.000 OA
ATOM    113  C   UNL     1      -2.891  11.411 137.654  0.00  0.00    +0.000 A 
ATOM    114  C   UNL     1      -1.452  12.018 137.601  0.00  0.00    +0.000 A 
ATOM    115  C   UNL     1      -0.669  12.085 136.458  0.00  0.00    +0.000 A 
ATOM    116  C   UNL     1      -1.388  11.893 135.302  0.00  0.00    +0.000 A 
ATOM    117  C   UNL     1      -2.860  11.264 135.371  0.00  0.00    +0.000 A 
ATOM    118  C   UNL     1      -3.652  10.501 136.656  0.00  0.00    +0.000 A 
BRANCH 115 119
ATOM    119  O   UNL     1       0.682  12.306 136.440  0.00  0.00    +0.000 OA
ATOM    120  H   UNL     1       1.019  12.884 137.154  0.00  0.00    +0.000 HD
ENDBRANCH 115 119
BRANCH 109 121
ATOM    121  O   UNL     1      -7.750  13.181 140.065  0.00  0.00    +0.000 OA
ATOM    122  H   UNL     1      -7.574  14.080 139.742  0.00  0.00    +0.000 HD
ENDBRANCH 109 121
ENDBRANCH  93  96
ENDBRANCH  91  92
ENDBRANCH  90  91
ENDBRANCH  89  90
ENDBRANCH  70  89
ENDBRANCH  68  70
ENDBRANCH   7  66
TORSDOF 23
ENDMDL
MODEL 4
REMARK VINA RESULT:      -8.2      1.545      2.783
REMARK  Name = CHEMBL1790713
REMARK  27 active torsions:
REMARK  status: ('A' for Active; 'I' for Inactive)
REMARK    1  A    between atoms: C_1  and  C_2
REMARK    2  A    between atoms: C_2  and  C_3
REMARK    3  A    between atoms: C_3  and  C_4
REMARK    4  A    between atoms: C_3  and  C_5
REMARK    5  A    between atoms: C_9  and  C_10
REMARK    6  A    between atoms: C_9  and  C_11
REMARK    7  A    between atoms: C_14  and  O_15
REMARK    8  A    between atoms: C_31  and  C_32
REMARK    9  A    between atoms: C_38  and  C_39
REMARK   10  A    between atoms: N_41  and  C_42
REMARK   11  A    between atoms: C_42  and  C_43
REMARK   12  A    between atoms: C_42  and  C_74
REMARK   13  A    between atoms: C_43  and  C_44
REMARK   14  A    between atoms: C_44  and  C_45
REMARK   15  A    between atoms: C_45  and  N_46
REMARK   16  A    between atoms: C_47  and  C_49
REMARK   17  A    between atoms: C_62  and  O_63
REMARK   18  A    between atoms: C_69  and  O_70
REMARK   19  A    between atoms: N_76  and  C_77
REMARK   20  A    between atoms: C_77  and  C_78
REMARK   21  A    between atoms: C_77  and  C_81
REMARK   22  A    between atoms: C_84  and  O_85
REMARK   23  A    between atoms: C_91  and  C_92
REMARK   24  A    between atoms: C_92  and  C_93
REMARK   25  A    between atoms: C_99  and  C_100
REMARK   26  A    between atoms: C_100  and  C_101
REMARK   27  A    between atoms: C_100  and  O_102
REMARK                            x       y       z     vdW  Elec       q    Type
REMARK                         _______ _______ _______ _____ _____    ______ ____
ROOT
ATOM      1  C   UNL     1      -5.053  -0.942 131.814  0.00  0.00    +0.000 C 
ATOM      2  O   UNL     1      -4.052  -0.186 131.828  0.00  0.00    +0.000 OA
ATOM      3  N   UNL     1      -5.051  -1.990 130.934  0.00  0.00    +0.000 N 
ATOM      4  C   UNL     1      -6.110  -2.644 130.174  0.00  0.00    +0.000 C 
ATOM      5  C   UNL     1      -5.825  -4.083 130.455  0.00  0.00    +0.000 C 
ATOM      6  C   UNL     1      -4.306  -4.123 130.372  0.00  0.00    +0.000 C 
ATOM      7  C   UNL     1      -3.828  -2.743 130.861  0.00  0.00    +0.000 C 
ENDROOT
BRANCH   1  27
ATOM      8  C   UNL     1      -6.962   4.003 127.753  0.00  0.00    +0.000 C 
ATOM      9  N   UNL     1      -6.736   4.705 129.941  0.00  0.00    +0.000 N 
ATOM     10  C   UNL     1      -5.180   6.077 130.916  0.00  0.00    +0.000 C 
ATOM     11  O   UNL     1      -4.387   7.059 131.613  0.00  0.00    +0.000 OA
ATOM     12  C   UNL     1      -4.500   7.040 130.083  0.00  0.00    +0.000 C 
ATOM     13  C   UNL     1      -3.274   7.761 129.807  0.00  0.00    +0.000 C 
ATOM     14  N   UNL     1      -5.896   7.784 130.228  0.00  0.00    +0.000 N 
ATOM     15  C   UNL     1      -7.197   7.371 130.720  0.00  0.00    +0.000 C 
ATOM     16  O   UNL     1      -8.200   7.959 130.347  0.00  0.00    +0.000 OA
ATOM     17  C   UNL     1      -7.606   6.277 131.692  0.00  0.00    +0.000 C 
ATOM     18  C   UNL     1      -6.461   5.533 131.710  0.00  0.00    +0.000 C 
ATOM     19  C   UNL     1      -5.388   6.402 132.981  0.00  0.00    +0.000 C 
ATOM     20  C   UNL     1      -3.545   5.904 133.084  0.00  0.00    +0.000 C 
ATOM     21  C   UNL     1      -2.806   5.457 131.875  0.00  0.00    +0.000 C 
ATOM     22  C   UNL     1      -3.876   4.630 131.232  0.00  0.00    +0.000 C 
ATOM     23  C   UNL     1      -5.395   5.324 129.630  0.00  0.00    +0.000 C 
ATOM     24  S   UNL     1      -6.019   4.525 133.393  0.00  0.00    +0.000 S 
ATOM     25  S   UNL     1      -6.906   3.078 132.672  0.00  0.00    +0.000 S 
ATOM     26  C   UNL     1      -6.577   0.504 133.560  0.00  0.00    +0.000 C 
ATOM     27  C   UNL     1      -6.515  -0.601 132.467  0.00  0.00    +0.000 C 
ATOM     28  N   UNL     1      -7.633  -0.527 131.533  0.00  0.00    +0.000 N 
ATOM     29  C   UNL     1      -7.568   0.083 130.269  0.00  0.00    +0.000 C 
ATOM     30  O   UNL     1      -8.502  -0.038 129.416  0.00  0.00    +0.000 OA
ATOM     31  C   UNL     1      -6.701   1.321 130.369  0.00  0.00    +0.000 C 
ATOM     32  N   UNL     1      -6.313   1.145 128.985  0.00  0.00    +0.000 N 
ATOM     33  C   UNL     1      -7.018   1.459 127.926  0.00  0.00    +0.000 C 
ATOM     34  O   UNL     1      -6.347   1.364 126.884  0.00  0.00    +0.000 OA
ATOM     35  C   UNL     1      -8.548   2.117 128.180  0.00  0.00    +0.000 C 
ATOM     36  N   UNL     1      -9.084   3.404 127.551  0.00  0.00    +0.000 N 
ATOM     37  C   UNL     1      -8.319   4.192 126.778  0.00  0.00    +0.000 C 
ATOM     38  O   UNL     1      -8.746   4.859 125.844  0.00  0.00    +0.000 OA
ATOM     39  H   UNL     1      -5.728   4.530 131.058  0.00  0.00    +0.000 HD
ATOM     40  H   UNL     1      -5.818   8.468 129.524  0.00  0.00    +0.000 HD
ATOM     41  H   UNL     1      -8.431  -1.069 131.799  0.00  0.00    +0.000 HD
ATOM     42  H   UNL     1      -5.343   1.197 128.770  0.00  0.00    +0.000 HD
ATOM     43  H   UNL     1      -9.160   4.198 128.185  0.00  0.00    +0.000 HD
BRANCH  12  44
ATOM     44  C   UNL     1      -3.751   5.403 129.626  0.00  0.00    +0.000 A 
ATOM     45  C   UNL     1      -4.239   4.582 127.909  0.00  0.00    +0.000 A 
ATOM     46  C   UNL     1      -3.523   3.969 127.234  0.00  0.00    +0.000 A 
ATOM     47  C   UNL     1      -2.721   3.500 128.043  0.00  0.00    +0.000 A 
ATOM     48  C   UNL     1      -2.352   4.112 129.241  0.00  0.00    +0.000 A 
ATOM     49  C   UNL     1      -2.632   5.190 129.963  0.00  0.00    +0.000 A 
BRANCH  47  50
ATOM     50  O   UNL     1      -2.261   2.351 127.640  0.00  0.00    +0.000 OA
ATOM     51  H   UNL     1      -1.303   2.262 127.704  0.00  0.00    +0.000 HD
ENDBRANCH  47  50
ENDBRANCH  12  44
BRANCH  35  52
ATOM     52  C   UNL     1      -8.932   2.368 129.657  0.00  0.00    +0.000 C 
ATOM     53  C   UNL     1      -9.598   3.629 129.852  0.00  0.00    +0.000 C 
BRANCH  52  54
ATOM     54  O   UNL     1      -9.889   1.744 130.520  0.00  0.00    +0.000 OA
ATOM     55  H   UNL     1     -10.185   0.883 130.072  0.00  0.00    +0.000 HD
ENDBRANCH  52  54
ENDBRANCH  35  52
BRANCH   8  56
ATOM     56  C   UNL     1      -7.503   3.227 125.596  0.00  0.00    +0.000 C 
ATOM     57  C   UNL     1      -6.997   3.331 123.538  0.00  0.00    +0.000 C 
BRANCH  56  59
ATOM     58  C   UNL     1      -9.457   1.665 124.721  0.00  0.00    +0.000 C 
ATOM     59  C   UNL     1      -8.023   1.588 124.480  0.00  0.00    +0.000 C 
ENDBRANCH  56  59
ENDBRANCH   8  56
BRANCH  31  60
ATOM     60  C   UNL     1      -5.515   1.371 131.423  0.00  0.00    +0.000 C 
BRANCH  60  61
ATOM     61  C   UNL     1      -4.002   1.632 131.090  0.00  0.00    +0.000 C 
ATOM     62  N   UNL     1      -3.308   2.073 132.997  0.00  0.00    +0.000 N 
ATOM     63  O   UNL     1      -3.248   1.553 130.080  0.00  0.00    +0.000 OA
ATOM     64  H   UNL     1      -4.015   2.675 133.466  0.00  0.00    +0.000 HD
ATOM     65  H   UNL     1      -2.409   2.633 132.857  0.00  0.00    +0.000 HD
ENDBRANCH  60  61
ENDBRANCH  31  60
ENDBRANCH   1  27
BRANCH   7  66
ATOM     66  C   UNL     1      -3.082  -2.860 132.174  0.00  0.00    +0.000 C 
ATOM     67  O   UNL     1      -2.243  -2.051 132.564  0.00  0.00    +0.000 OA
ATOM     68  N   UNL     1      -3.471  -4.002 132.850  0.00  0.00    +0.000 N 
ATOM     69  H   UNL     1      -4.085  -4.680 132.427  0.00  0.00    +0.000 HD
BRANCH  68  70
ATOM     70  C   UNL     1      -3.247  -4.161 134.238  0.00  0.00    +0.000 C 
BRANCH  70  71
ATOM     71  C   UNL     1      -1.975  -5.058 134.550  0.00  0.00    +0.000 C 
ATOM     72  O   UNL     1      -2.053  -6.273 134.345  0.00  0.00    +0.000 OA
ATOM     73  N   UNL     1      -0.822  -4.491 135.096  0.00  0.00    +0.000 N 
ATOM     74  H   UNL     1       0.008  -5.078 135.191  0.00  0.00    +0.000 HD
BRANCH  73  75
ATOM     75  C   UNL     1      -0.574  -3.053 135.314  0.00  0.00    +0.000 C 
BRANCH  75  76
ATOM     76  C   UNL     1      -0.534  -2.682 136.765  0.00  0.00    +0.000 A 
ATOM     77  C   UNL     1       0.552  -3.049 137.555  0.00  0.00    +0.000 A 
ATOM     78  C   UNL     1       0.599  -2.707 138.905  0.00  0.00    +0.000 A 
ATOM     79  C   UNL     1      -0.454  -2.005 139.465  0.00  0.00    +0.000 A 
ATOM     80  C   UNL     1      -1.555  -1.681 138.702  0.00  0.00    +0.000 A 
ATOM     81  C   UNL     1      -1.589  -2.014 137.369  0.00  0.00    +0.000 A 
BRANCH  79  82
ATOM     82  O   UNL     1      -0.497  -1.592 140.760  0.00  0.00    +0.000 OA
ATOM     83  H   UNL     1      -1.239  -1.968 141.256  0.00  0.00    +0.000 HD
ENDBRANCH  79  82
ENDBRANCH  75  76
BRANCH  75  84
ATOM     84  C   UNL     1       0.606  -2.537 134.524  0.00  0.00    +0.000 C 
ATOM     85  N   UNL     1       0.360  -1.040 134.098  0.00  0.00    +0.000 N 
ATOM     86  O   UNL     1       1.469  -3.284 134.031  0.00  0.00    +0.000 OA
ATOM     87  H   UNL     1       0.856  -0.809 133.185  0.00  0.00    +0.000 HD
ATOM     88  H   UNL     1      -0.654  -0.784 133.925  0.00  0.00    +0.000 HD
ENDBRANCH  75  84
ENDBRANCH  73  75
ENDBRANCH  70  71
BRANCH  70  89
ATOM     89  C   UNL     1      -4.537  -4.756 134.608  0.00  0.00    +0.000 C 
BRANCH  89  90
ATOM     90  C   UNL     1      -5.722  -4.069 135.142  0.00  0.00    +0.000 C 
BRANCH  90  91
ATOM     91  C   UNL     1      -5.592  -3.210 136.367  0.00  0.00    +0.000 C 
BRANCH  91  92
ATOM     92  N   UNL     1      -5.297  -1.806 135.944  0.00  0.00    +0.000 N 
ATOM     93  C   UNL     1      -5.003  -0.766 136.864  0.00  0.00    +0.000 C 
ATOM     94  O   UNL     1      -5.026  -1.120 138.063  0.00  0.00    +0.000 OA
ATOM     95  H   UNL     1      -5.276  -1.677 134.947  0.00  0.00    +0.000 HD
BRANCH  93  96
ATOM     96  C   UNL     1      -4.442   0.876 136.538  0.00  0.00    +0.000 A 
ATOM     97  C   UNL     1      -4.955   1.751 137.311  0.00  0.00    +0.000 A 
ATOM     98  C   UNL     1      -4.921   3.294 136.881  0.00  0.00    +0.000 A 
ATOM     99  C   UNL     1      -4.899   4.193 137.675  0.00  0.00    +0.000 A 
ATOM    100  C   UNL     1      -3.892   4.151 136.872  0.00  0.00    +0.000 A 
ATOM    101  C   UNL     1      -3.762   2.193 136.095  0.00  0.00    +0.000 A 
ATOM    102  C   UNL     1      -4.276   6.022 137.888  0.00  0.00    +0.000 C 
ATOM    103  O   UNL     1      -4.352   5.449 139.196  0.00  0.00    +0.000 OA
ATOM    104  C   UNL     1      -5.126   4.385 139.001  0.00  0.00    +0.000 C 
ATOM    105  O   UNL     1      -5.597   3.386 139.505  0.00  0.00    +0.000 OA
ATOM    106  C   UNL     1      -4.049   7.683 137.094  0.00  0.00    +0.000 A 
ATOM    107  C   UNL     1      -2.990   7.729 136.218  0.00  0.00    +0.000 A 
ATOM    108  C   UNL     1      -2.522   8.893 135.565  0.00  0.00    +0.000 A 
ATOM    109  C   UNL     1      -3.103  10.128 135.805  0.00  0.00    +0.000 A 
ATOM    110  C   UNL     1      -4.137  10.223 136.723  0.00  0.00    +0.000 A 
ATOM    111  C   UNL     1      -4.621   9.039 137.354  0.00  0.00    +0.000 A 
ATOM    112  O   UNL     1      -5.667   9.277 138.206  0.00  0.00    +0.000 OA
ATOM    113  C   UNL     1      -5.483   8.567 139.369  0.00  0.00    +0.000 A 
ATOM    114  C   UNL     1      -6.516   9.045 140.440  0.00  0.00    +0.000 A 
ATOM    115  C   UNL     1      -6.473   8.700 141.782  0.00  0.00    +0.000 A 
ATOM    116  C   UNL     1      -5.255   8.187 142.167  0.00  0.00    +0.000 A 
ATOM    117  C   UNL     1      -4.209   7.696 141.057  0.00  0.00    +0.000 A 
ATOM    118  C   UNL     1      -4.432   7.428 139.402  0.00  0.00    +0.000 A 
BRANCH 115 119
ATOM    119  O   UNL     1      -7.512   8.829 142.664  0.00  0.00    +0.000 OA
ATOM    120  H   UNL     1      -7.356   9.451 143.403  0.00  0.00    +0.000 HD
ENDBRANCH 115 119
BRANCH 109 121
ATOM    121  O   UNL     1      -2.719  11.278 135.178  0.00  0.00    +0.000 OA
ATOM    122  H   UNL     1      -3.397  11.974 135.182  0.00  0.00    +0.000 HD
ENDBRANCH 109 121
ENDBRANCH  93  96
ENDBRANCH  91  92
ENDBRANCH  90  91
ENDBRANCH  89  90
ENDBRANCH  70  89
ENDBRANCH  68  70
ENDBRANCH   7  66
TORSDOF 23
ENDMDL
MODEL 5
REMARK VINA RESULT:      -8.2      4.833     13.419
REMARK  Name = CHEMBL1790713
REMARK  27 active torsions:
REMARK  status: ('A' for Active; 'I' for Inactive)
REMARK    1  A    between atoms: C_1  and  C_2
REMARK    2  A    between atoms: C_2  and  C_3
REMARK    3  A    between atoms: C_3  and  C_4
REMARK    4  A    between atoms: C_3  and  C_5
REMARK    5  A    between atoms: C_9  and  C_10
REMARK    6  A    between atoms: C_9  and  C_11
REMARK    7  A    between atoms: C_14  and  O_15
REMARK    8  A    between atoms: C_31  and  C_32
REMARK    9  A    between atoms: C_38  and  C_39
REMARK   10  A    between atoms: N_41  and  C_42
REMARK   11  A    between atoms: C_42  and  C_43
REMARK   12  A    between atoms: C_42  and  C_74
REMARK   13  A    between atoms: C_43  and  C_44
REMARK   14  A    between atoms: C_44  and  C_45
REMARK   15  A    between atoms: C_45  and  N_46
REMARK   16  A    between atoms: C_47  and  C_49
REMARK   17  A    between atoms: C_62  and  O_63
REMARK   18  A    between atoms: C_69  and  O_70
REMARK   19  A    between atoms: N_76  and  C_77
REMARK   20  A    between atoms: C_77  and  C_78
REMARK   21  A    between atoms: C_77  and  C_81
REMARK   22  A    between atoms: C_84  and  O_85
REMARK   23  A    between atoms: C_91  and  C_92
REMARK   24  A    between atoms: C_92  and  C_93
REMARK   25  A    between atoms: C_99  and  C_100
REMARK   26  A    between atoms: C_100  and  C_101
REMARK   27  A    between atoms: C_100  and  O_102
REMARK                            x       y       z     vdW  Elec       q    Type
REMARK                         _______ _______ _______ _____ _____    ______ ____
ROOT
ATOM      1  C   UNL     1      -4.742  10.061 138.954  0.00  0.00    +0.000 C 
ATOM      2  O   UNL     1      -3.906   9.730 138.079  0.00  0.00    +0.000 OA
ATOM      3  N   UNL     1      -6.054  10.166 138.579  0.00  0.00    +0.000 N 
ATOM      4  C   UNL     1      -7.135  11.049 139.000  0.00  0.00    +0.000 C 
ATOM      5  C   UNL     1      -8.240  10.070 139.227  0.00  0.00    +0.000 C 
ATOM      6  C   UNL     1      -8.067   9.124 138.048  0.00  0.00    +0.000 C 
ATOM      7  C   UNL     1      -6.555   9.099 137.755  0.00  0.00    +0.000 C 
ENDROOT
BRANCH   1  27
ATOM      8  C   UNL     1       1.705  11.498 137.976  0.00  0.00    +0.000 C 
ATOM      9  N   UNL     1       1.397   9.979 139.687  0.00  0.00    +0.000 N 
ATOM     10  C   UNL     1       1.891   7.744 139.806  0.00  0.00    +0.000 C 
ATOM     11  O   UNL     1       2.314   6.393 140.082  0.00  0.00    +0.000 OA
ATOM     12  C   UNL     1       2.940   7.229 138.958  0.00  0.00    +0.000 C 
ATOM     13  C   UNL     1       3.430   6.119 138.166  0.00  0.00    +0.000 C 
ATOM     14  N   UNL     1       3.840   7.938 140.056  0.00  0.00    +0.000 N 
ATOM     15  C   UNL     1       3.552   8.877 141.125  0.00  0.00    +0.000 C 
ATOM     16  O   UNL     1       4.439   9.596 141.556  0.00  0.00    +0.000 OA
ATOM     17  C   UNL     1       2.273   9.167 141.893  0.00  0.00    +0.000 C 
ATOM     18  C   UNL     1       1.360   8.574 141.070  0.00  0.00    +0.000 C 
ATOM     19  C   UNL     1       1.390   6.775 141.601  0.00  0.00    +0.000 C 
ATOM     20  C   UNL     1       0.512   5.497 140.481  0.00  0.00    +0.000 C 
ATOM     21  C   UNL     1       0.445   5.691 139.009  0.00  0.00    +0.000 C 
ATOM     22  C   UNL     1       0.198   7.168 138.972  0.00  0.00    +0.000 C 
ATOM     23  C   UNL     1       1.787   8.839 138.778  0.00  0.00    +0.000 C 
ATOM     24  S   UNL     1      -0.311   7.826 141.902  0.00  0.00    +0.000 S 
ATOM     25  S   UNL     1      -1.117   9.450 141.566  0.00  0.00    +0.000 S 
ATOM     26  C   UNL     1      -3.836   9.811 141.519  0.00  0.00    +0.000 C 
ATOM     27  C   UNL     1      -4.390  10.740 140.401  0.00  0.00    +0.000 C 
ATOM     28  N   UNL     1      -3.708  12.029 140.356  0.00  0.00    +0.000 N 
ATOM     29  C   UNL     1      -2.668  12.342 139.465  0.00  0.00    +0.000 C 
ATOM     30  O   UNL     1      -2.231  13.528 139.333  0.00  0.00    +0.000 OA
ATOM     31  C   UNL     1      -1.793  11.119 139.287  0.00  0.00    +0.000 C 
ATOM     32  N   UNL     1      -1.473  11.560 137.946  0.00  0.00    +0.000 N 
ATOM     33  C   UNL     1      -0.615  12.491 137.609  0.00  0.00    +0.000 C 
ATOM     34  O   UNL     1      -0.421  12.514 136.381  0.00  0.00    +0.000 OA
ATOM     35  C   UNL     1       0.194  13.287 138.854  0.00  0.00    +0.000 C 
ATOM     36  N   UNL     1       1.708  13.484 138.954  0.00  0.00    +0.000 N 
ATOM     37  C   UNL     1       2.557  12.945 138.065  0.00  0.00    +0.000 C 
ATOM     38  O   UNL     1       3.620  13.458 137.734  0.00  0.00    +0.000 OA
ATOM     39  H   UNL     1       0.575   8.728 139.917  0.00  0.00    +0.000 HD
ATOM     40  H   UNL     1       4.716   7.941 139.608  0.00  0.00    +0.000 HD
ATOM     41  H   UNL     1      -4.127  12.738 140.924  0.00  0.00    +0.000 HD
ATOM     42  H   UNL     1      -1.547  10.890 137.213  0.00  0.00    +0.000 HD
ATOM     43  H   UNL     1       2.174  12.914 139.658  0.00  0.00    +0.000 HD
BRANCH  12  44
ATOM     44  C   UNL     1       1.508   7.534 137.814  0.00  0.00    +0.000 A 
ATOM     45  C   UNL     1       1.546   9.115 136.648  0.00  0.00    +0.000 A 
ATOM     46  C   UNL     1       1.126   9.159 135.568  0.00  0.00    +0.000 A 
ATOM     47  C   UNL     1       0.232   8.312 135.589  0.00  0.00    +0.000 A 
ATOM     48  C   UNL     1       0.235   7.172 136.392  0.00  0.00    +0.000 A 
ATOM     49  C   UNL     1       0.970   6.591 137.332  0.00  0.00    +0.000 A 
BRANCH  47  50
ATOM     50  O   UNL     1      -0.728   8.619 134.763  0.00  0.00    +0.000 OA
ATOM     51  H   UNL     1      -1.448   7.979 134.737  0.00  0.00    +0.000 HD
ENDBRANCH  47  50
ENDBRANCH  12  44
BRANCH  35  52
ATOM     52  C   UNL     1      -0.098  12.768 140.281  0.00  0.00    +0.000 C 
ATOM     53  C   UNL     1       1.088  12.681 141.094  0.00  0.00    +0.000 C 
BRANCH  52  54
ATOM     54  O   UNL     1      -0.799  13.345 141.387  0.00  0.00    +0.000 OA
ATOM     55  H   UNL     1      -0.957  12.606 142.065  0.00  0.00    +0.000 HD
ENDBRANCH  52  54
ENDBRANCH  35  52
BRANCH   8  56
ATOM     56  C   UNL     1       2.003  13.277 136.460  0.00  0.00    +0.000 C 
ATOM     57  C   UNL     1       2.588  13.795 134.488  0.00  0.00    +0.000 C 
BRANCH  56  59
ATOM     58  C   UNL     1       1.278  15.771 136.983  0.00  0.00    +0.000 C 
ATOM     59  C   UNL     1       1.205  15.021 135.737  0.00  0.00    +0.000 C 
ENDBRANCH  56  59
ENDBRANCH   8  56
BRANCH  31  60
ATOM     60  C   UNL     1      -2.428   9.669 139.411  0.00  0.00    +0.000 C 
BRANCH  60  61
ATOM     61  C   UNL     1      -2.376   8.548 138.311  0.00  0.00    +0.000 C 
ATOM     62  N   UNL     1      -2.957   6.920 139.462  0.00  0.00    +0.000 N 
ATOM     63  O   UNL     1      -2.170   8.478 137.067  0.00  0.00    +0.000 OA
ATOM     64  H   UNL     1      -2.482   6.991 140.384  0.00  0.00    +0.000 HD
ATOM     65  H   UNL     1      -2.596   6.056 138.947  0.00  0.00    +0.000 HD
ENDBRANCH  60  61
ENDBRANCH  31  60
ENDBRANCH   1  27
BRANCH   7  66
ATOM     66  C   UNL     1      -5.965   7.738 138.060  0.00  0.00    +0.000 C 
ATOM     67  O   UNL     1      -5.910   7.248 139.186  0.00  0.00    +0.000 OA
ATOM     68  N   UNL     1      -5.492   7.146 136.903  0.00  0.00    +0.000 N 
ATOM     69  H   UNL     1      -5.469   7.646 136.028  0.00  0.00    +0.000 HD
BRANCH  68  70
ATOM     70  C   UNL     1      -5.258   5.753 136.819  0.00  0.00    +0.000 C 
BRANCH  70  71
ATOM     71  C   UNL     1      -3.829   5.411 136.220  0.00  0.00    +0.000 C 
ATOM     72  O   UNL     1      -2.845   5.519 136.958  0.00  0.00    +0.000 OA
ATOM     73  N   UNL     1      -3.687   5.055 134.877  0.00  0.00    +0.000 N 
ATOM     74  H   UNL     1      -2.770   4.747 134.552  0.00  0.00    +0.000 HD
BRANCH  73  75
ATOM     75  C   UNL     1      -4.782   4.818 133.916  0.00  0.00    +0.000 C 
BRANCH  75  76
ATOM     76  C   UNL     1      -4.787   5.799 132.785  0.00  0.00    +0.000 A 
ATOM     77  C   UNL     1      -5.940   5.994 132.029  0.00  0.00    +0.000 A 
ATOM     78  C   UNL     1      -5.957   6.906 130.976  0.00  0.00    +0.000 A 
ATOM     79  C   UNL     1      -4.808   7.616 130.674  0.00  0.00    +0.000 A 
ATOM     80  C   UNL     1      -3.648   7.394 131.386  0.00  0.00    +0.000 A 
ATOM     81  C   UNL     1      -3.644   6.499 132.430  0.00  0.00    +0.000 A 
BRANCH  79  82
ATOM     82  O   UNL     1      -4.720   8.553 129.693  0.00  0.00    +0.000 OA
ATOM     83  H   UNL     1      -5.186   9.375 129.907  0.00  0.00    +0.000 HD
ENDBRANCH  79  82
ENDBRANCH  75  76
BRANCH  75  84
ATOM     84  C   UNL     1      -4.863   3.377 133.469  0.00  0.00    +0.000 C 
ATOM     85  N   UNL     1      -6.115   2.676 134.123  0.00  0.00    +0.000 N 
ATOM     86  O   UNL     1      -3.914   2.779 132.934  0.00  0.00    +0.000 OA
ATOM     87  H   UNL     1      -5.949   1.635 134.263  0.00  0.00    +0.000 HD
ATOM     88  H   UNL     1      -6.379   3.038 135.084  0.00  0.00    +0.000 HD
ENDBRANCH  75  84
ENDBRANCH  73  75
ENDBRANCH  70  71
BRANCH  70  89
ATOM     89  C   UNL     1      -6.397   5.384 135.969  0.00  0.00    +0.000 C 
BRANCH  89  90
ATOM     90  C   UNL     1      -7.357   6.284 135.315  0.00  0.00    +0.000 C 
BRANCH  90  91
ATOM     91  C   UNL     1      -8.801   5.884 135.216  0.00  0.00    +0.000 C 
BRANCH  91  92
ATOM     92  N   UNL     1      -8.948   4.871 134.126  0.00  0.00    +0.000 N 
ATOM     93  C   UNL     1      -9.379   5.203 132.814  0.00  0.00    +0.000 C 
ATOM     94  O   UNL     1      -9.642   6.415 132.651  0.00  0.00    +0.000 OA
ATOM     95  H   UNL     1      -8.666   3.944 134.390  0.00  0.00    +0.000 HD
BRANCH  93  96
ATOM     96  C   UNL     1      -9.418   4.187 131.371  0.00  0.00    +0.000 A 
ATOM     97  C   UNL     1      -8.537   3.264 131.376  0.00  0.00    +0.000 A 
ATOM     98  C   UNL     1      -8.131   2.560 129.995  0.00  0.00    +0.000 A 
ATOM     99  C   UNL     1      -7.740   1.428 129.929  0.00  0.00    +0.000 A 
ATOM    100  C   UNL     1      -8.815   1.672 129.262  0.00  0.00    +0.000 A 
ATOM    101  C   UNL     1      -9.690   3.420 130.055  0.00  0.00    +0.000 A 
ATOM    102  C   UNL     1      -7.693  -0.100 128.730  0.00  0.00    +0.000 C 
ATOM    103  O   UNL     1      -7.611  -0.610 130.063  0.00  0.00    +0.000 OA
ATOM    104  C   UNL     1      -7.265   0.466 130.763  0.00  0.00    +0.000 C 
ATOM    105  O   UNL     1      -7.074   0.918 131.874  0.00  0.00    +0.000 OA
ATOM    106  C   UNL     1      -7.484  -0.694 126.984  0.00  0.00    +0.000 A 
ATOM    107  C   UNL     1      -8.591  -0.474 126.198  0.00  0.00    +0.000 A 
ATOM    108  C   UNL     1      -8.747  -0.926 124.867  0.00  0.00    +0.000 A 
ATOM    109  C   UNL     1      -7.766  -1.689 124.252  0.00  0.00    +0.000 A 
ATOM    110  C   UNL     1      -6.631  -2.037 124.968  0.00  0.00    +0.000 A 
ATOM    111  C   UNL     1      -6.469  -1.551 126.299  0.00  0.00    +0.000 A 
ATOM    112  O   UNL     1      -5.287  -1.941 126.871  0.00  0.00    +0.000 OA
ATOM    113  C   UNL     1      -5.514  -2.349 128.164  0.00  0.00    +0.000 A 
ATOM    114  C   UNL     1      -4.232  -3.049 128.722  0.00  0.00    +0.000 A 
ATOM    115  C   UNL     1      -4.183  -3.768 129.906  0.00  0.00    +0.000 A 
ATOM    116  C   UNL     1      -5.427  -4.113 130.379  0.00  0.00    +0.000 A 
ATOM    117  C   UNL     1      -6.732  -3.383 129.801  0.00  0.00    +0.000 A 
ATOM    118  C   UNL     1      -6.861  -1.994 128.844  0.00  0.00    +0.000 A 
BRANCH 115 119
ATOM    119  O   UNL     1      -3.037  -4.111 130.572  0.00  0.00    +0.000 OA
ATOM    120  H   UNL     1      -3.023  -3.879 131.522  0.00  0.00    +0.000 HD
ENDBRANCH 115 119
BRANCH 109 121
ATOM    121  O   UNL     1      -7.845  -2.123 122.961  0.00  0.00    +0.000 OA
ATOM    122  H   UNL     1      -7.663  -1.433 122.302  0.00  0.00    +0.000 HD
ENDBRANCH 109 121
ENDBRANCH  93  96
ENDBRANCH  91  92
ENDBRANCH  90  91
ENDBRANCH  89  90
ENDBRANCH  70  89
ENDBRANCH  68  70
ENDBRANCH   7  66
TORSDOF 23
ENDMDL
MODEL 6
REMARK VINA RESULT:      -8.1      2.494      4.245
REMARK  Name = CHEMBL1790713
REMARK  27 active torsions:
REMARK  status: ('A' for Active; 'I' for Inactive)
REMARK    1  A    between atoms: C_1  and  C_2
REMARK    2  A    between atoms: C_2  and  C_3
REMARK    3  A    between atoms: C_3  and  C_4
REMARK    4  A    between atoms: C_3  and  C_5
REMARK    5  A    between atoms: C_9  and  C_10
REMARK    6  A    between atoms: C_9  and  C_11
REMARK    7  A    between atoms: C_14  and  O_15
REMARK    8  A    between atoms: C_31  and  C_32
REMARK    9  A    between atoms: C_38  and  C_39
REMARK   10  A    between atoms: N_41  and  C_42
REMARK   11  A    between atoms: C_42  and  C_43
REMARK   12  A    between atoms: C_42  and  C_74
REMARK   13  A    between atoms: C_43  and  C_44
REMARK   14  A    between atoms: C_44  and  C_45
REMARK   15  A    between atoms: C_45  and  N_46
REMARK   16  A    between atoms: C_47  and  C_49
REMARK   17  A    between atoms: C_62  and  O_63
REMARK   18  A    between atoms: C_69  and  O_70
REMARK   19  A    between atoms: N_76  and  C_77
REMARK   20  A    between atoms: C_77  and  C_78
REMARK   21  A    between atoms: C_77  and  C_81
REMARK   22  A    between atoms: C_84  and  O_85
REMARK   23  A    between atoms: C_91  and  C_92
REMARK   24  A    between atoms: C_92  and  C_93
REMARK   25  A    between atoms: C_99  and  C_100
REMARK   26  A    between atoms: C_100  and  C_101
REMARK   27  A    between atoms: C_100  and  O_102
REMARK                            x       y       z     vdW  Elec       q    Type
REMARK                         _______ _______ _______ _____ _____    ______ ____
ROOT
ATOM      1  C   UNL     1      -5.533  -2.024 131.002  0.00  0.00    +0.000 C 
ATOM      2  O   UNL     1      -4.871  -1.019 131.353  0.00  0.00    +0.000 OA
ATOM      3  N   UNL     1      -5.030  -3.261 131.305  0.00  0.00    +0.000 N 
ATOM      4  C   UNL     1      -5.076  -4.543 130.613  0.00  0.00    +0.000 C 
ATOM      5  C   UNL     1      -5.482  -5.458 131.723  0.00  0.00    +0.000 C 
ATOM      6  C   UNL     1      -4.652  -4.929 132.883  0.00  0.00    +0.000 C 
ATOM      7  C   UNL     1      -4.514  -3.415 132.638  0.00  0.00    +0.000 C 
ENDROOT
BRANCH   1  27
ATOM      8  C   UNL     1      -5.224   4.325 128.956  0.00  0.00    +0.000 C 
ATOM      9  N   UNL     1      -7.242   3.827 129.962  0.00  0.00    +0.000 N 
ATOM     10  C   UNL     1      -8.113   4.494 131.975  0.00  0.00    +0.000 C 
ATOM     11  O   UNL     1      -8.850   4.978 133.115  0.00  0.00    +0.000 OA
ATOM     12  C   UNL     1      -7.643   5.734 132.545  0.00  0.00    +0.000 C 
ATOM     13  C   UNL     1      -7.316   6.474 133.747  0.00  0.00    +0.000 C 
ATOM     14  N   UNL     1      -8.605   6.327 131.431  0.00  0.00    +0.000 N 
ATOM     15  C   UNL     1      -9.276   5.746 130.283  0.00  0.00    +0.000 C 
ATOM     16  O   UNL     1      -9.606   6.458 129.349  0.00  0.00    +0.000 OA
ATOM     17  C   UNL     1      -9.702   4.318 129.982  0.00  0.00    +0.000 C 
ATOM     18  C   UNL     1      -8.962   3.646 130.911  0.00  0.00    +0.000 C 
ATOM     19  C   UNL     1     -10.011   3.739 132.464  0.00  0.00    +0.000 C 
ATOM     20  C   UNL     1      -9.204   3.225 134.120  0.00  0.00    +0.000 C 
ATOM     21  C   UNL     1      -7.753   3.434 134.359  0.00  0.00    +0.000 C 
ATOM     22  C   UNL     1      -7.230   3.062 133.007  0.00  0.00    +0.000 C 
ATOM     23  C   UNL     1      -6.798   4.494 131.241  0.00  0.00    +0.000 C 
ATOM     24  S   UNL     1      -9.698   1.921 131.635  0.00  0.00    +0.000 S 
ATOM     25  S   UNL     1      -8.759   1.049 130.309  0.00  0.00    +0.000 S 
ATOM     26  C   UNL     1      -8.164  -1.628 130.384  0.00  0.00    +0.000 C 
ATOM     27  C   UNL     1      -6.743  -2.032 129.899  0.00  0.00    +0.000 C 
ATOM     28  N   UNL     1      -6.420  -1.480 128.588  0.00  0.00    +0.000 N 
ATOM     29  C   UNL     1      -5.657  -0.317 128.387  0.00  0.00    +0.000 C 
ATOM     30  O   UNL     1      -5.244   0.024 127.235  0.00  0.00    +0.000 OA
ATOM     31  C   UNL     1      -6.003   0.686 129.467  0.00  0.00    +0.000 C 
ATOM     32  N   UNL     1      -4.662   1.224 129.378  0.00  0.00    +0.000 N 
ATOM     33  C   UNL     1      -4.202   2.041 128.463  0.00  0.00    +0.000 C 
ATOM     34  O   UNL     1      -3.074   2.472 128.757  0.00  0.00    +0.000 OA
ATOM     35  C   UNL     1      -5.261   2.508 127.238  0.00  0.00    +0.000 C 
ATOM     36  N   UNL     1      -5.541   3.946 126.798  0.00  0.00    +0.000 N 
ATOM     37  C   UNL     1      -5.007   5.002 127.433  0.00  0.00    +0.000 C 
ATOM     38  O   UNL     1      -4.713   6.056 126.882  0.00  0.00    +0.000 OA
ATOM     39  H   UNL     1      -7.704   3.095 131.205  0.00  0.00    +0.000 HD
ATOM     40  H   UNL     1      -8.325   7.271 131.424  0.00  0.00    +0.000 HD
ATOM     41  H   UNL     1      -6.670  -2.067 127.818  0.00  0.00    +0.000 HD
ATOM     42  H   UNL     1      -4.165   1.360 130.230  0.00  0.00    +0.000 HD
ATOM     43  H   UNL     1      -6.450   4.315 127.072  0.00  0.00    +0.000 HD
BRANCH  12  44
ATOM     44  C   UNL     1      -6.244   4.536 132.790  0.00  0.00    +0.000 A 
ATOM     45  C   UNL     1      -4.647   4.698 131.657  0.00  0.00    +0.000 A 
ATOM     46  C   UNL     1      -3.559   4.495 132.002  0.00  0.00    +0.000 A 
ATOM     47  C   UNL     1      -3.709   3.671 132.905  0.00  0.00    +0.000 A 
ATOM     48  C   UNL     1      -4.830   3.591 133.730  0.00  0.00    +0.000 A 
ATOM     49  C   UNL     1      -6.016   4.165 133.895  0.00  0.00    +0.000 A 
BRANCH  47  50
ATOM     50  O   UNL     1      -2.684   2.873 132.990  0.00  0.00    +0.000 OA
ATOM     51  H   UNL     1      -2.596   2.428 133.841  0.00  0.00    +0.000 HD
ENDBRANCH  47  50
ENDBRANCH  12  44
BRANCH  35  52
ATOM     52  C   UNL     1      -6.711   1.988 127.373  0.00  0.00    +0.000 C 
ATOM     53  C   UNL     1      -7.693   2.993 127.057  0.00  0.00    +0.000 C 
BRANCH  52  54
ATOM     54  O   UNL     1      -7.463   1.034 126.616  0.00  0.00    +0.000 OA
ATOM     55  H   UNL     1      -6.837   0.636 125.923  0.00  0.00    +0.000 HD
ENDBRANCH  52  54
ENDBRANCH  35  52
BRANCH   8  56
ATOM     56  C   UNL     1      -3.310   4.750 127.652  0.00  0.00    +0.000 C 
ATOM     57  C   UNL     1      -1.668   6.061 127.356  0.00  0.00    +0.000 C 
BRANCH  56  59
ATOM     58  C   UNL     1      -2.359   3.401 125.578  0.00  0.00    +0.000 C 
ATOM     59  C   UNL     1      -1.668   3.913 126.753  0.00  0.00    +0.000 C 
ENDBRANCH  56  59
ENDBRANCH   8  56
BRANCH  31  60
ATOM     60  C   UNL     1      -6.456   0.179 130.901  0.00  0.00    +0.000 C 
BRANCH  60  61
ATOM     61  C   UNL     1      -5.760   0.537 132.263  0.00  0.00    +0.000 C 
ATOM     62  N   UNL     1      -7.280  -0.005 133.572  0.00  0.00    +0.000 N 
ATOM     63  O   UNL     1      -4.626   0.937 132.648  0.00  0.00    +0.000 OA
ATOM     64  H   UNL     1      -8.183   0.312 133.165  0.00  0.00    +0.000 HD
ATOM     65  H   UNL     1      -7.093   0.535 134.474  0.00  0.00    +0.000 HD
ENDBRANCH  60  61
ENDBRANCH  31  60
ENDBRANCH   1  27
BRANCH   7  66
ATOM     66  C   UNL     1      -5.255  -2.623 133.695  0.00  0.00    +0.000 C 
ATOM     67  O   UNL     1      -6.472  -2.670 133.864  0.00  0.00    +0.000 OA
ATOM     68  N   UNL     1      -4.374  -1.842 134.420  0.00  0.00    +0.000 N 
ATOM     69  H   UNL     1      -3.403  -1.767 134.162  0.00  0.00    +0.000 HD
BRANCH  68  70
ATOM     70  C   UNL     1      -4.713  -1.318 135.690  0.00  0.00    +0.000 C 
BRANCH  70  71
ATOM     71  C   UNL     1      -3.884  -0.014 136.051  0.00  0.00    +0.000 C 
ATOM     72  O   UNL     1      -4.342   1.082 135.713  0.00  0.00    +0.000 OA
ATOM     73  N   UNL     1      -2.642  -0.111 136.681  0.00  0.00    +0.000 N 
ATOM     74  H   UNL     1      -2.185   0.749 136.986  0.00  0.00    +0.000 HD
BRANCH  73  75
ATOM     75  C   UNL     1      -2.022  -1.345 137.203  0.00  0.00    +0.000 C 
BRANCH  75  76
ATOM     76  C   UNL     1      -0.987  -1.912 136.281  0.00  0.00    +0.000 A 
ATOM     77  C   UNL     1      -0.679  -1.265 135.087  0.00  0.00    +0.000 A 
ATOM     78  C   UNL     1       0.283  -1.783 134.223  0.00  0.00    +0.000 A 
ATOM     79  C   UNL     1       0.930  -2.961 134.554  0.00  0.00    +0.000 A 
ATOM     80  C   UNL     1       0.597  -3.633 135.711  0.00  0.00    +0.000 A 
ATOM     81  C   UNL     1      -0.347  -3.110 136.562  0.00  0.00    +0.000 A 
BRANCH  79  82
ATOM     82  O   UNL     1       1.907  -3.536 133.804  0.00  0.00    +0.000 OA
ATOM     83  H   UNL     1       1.937  -3.202 132.895  0.00  0.00    +0.000 HD
ENDBRANCH  79  82
ENDBRANCH  75  76
BRANCH  75  84
ATOM     84  C   UNL     1      -1.549  -1.201 138.631  0.00  0.00    +0.000 C 
ATOM     85  N   UNL     1      -0.599   0.050 138.764  0.00  0.00    +0.000 N 
ATOM     86  O   UNL     1      -1.645  -2.112 139.471  0.00  0.00    +0.000 OA
ATOM     87  H   UNL     1       0.117  -0.086 139.538  0.00  0.00    +0.000 HD
ATOM     88  H   UNL     1      -0.025   0.269 137.901  0.00  0.00    +0.000 HD
ENDBRANCH  75  84
ENDBRANCH  73  75
ENDBRANCH  70  71
BRANCH  70  89
ATOM     89  C   UNL     1      -4.408  -2.498 136.509  0.00  0.00    +0.000 C 
BRANCH  89  90
ATOM     90  C   UNL     1      -5.175  -3.022 137.648  0.00  0.00    +0.000 C 
BRANCH  90  91
ATOM     91  C   UNL     1      -5.034  -2.377 138.997  0.00  0.00    +0.000 C 
BRANCH  91  92
ATOM     92  N   UNL     1      -5.533  -0.969 138.915  0.00  0.00    +0.000 N 
ATOM     93  C   UNL     1      -5.110   0.054 139.803  0.00  0.00    +0.000 C 
ATOM     94  O   UNL     1      -4.296  -0.325 140.673  0.00  0.00    +0.000 OA
ATOM     95  H   UNL     1      -6.153  -0.801 138.143  0.00  0.00    +0.000 HD
BRANCH  93  96
ATOM     96  C   UNL     1      -5.434   1.788 139.729  0.00  0.00    +0.000 A 
ATOM     97  C   UNL     1      -4.635   2.422 138.964  0.00  0.00    +0.000 A 
ATOM     98  C   UNL     1      -4.488   4.010 139.126  0.00  0.00    +0.000 A 
ATOM     99  C   UNL     1      -4.197   4.735 138.215  0.00  0.00    +0.000 A 
ATOM    100  C   UNL     1      -5.336   4.981 138.764  0.00  0.00    +0.000 A 
ATOM    101  C   UNL     1      -5.953   3.244 139.791  0.00  0.00    +0.000 A 
ATOM    102  C   UNL     1      -4.441   6.555 137.580  0.00  0.00    +0.000 C 
ATOM    103  O   UNL     1      -4.204   5.737 136.431  0.00  0.00    +0.000 OA
ATOM    104  C   UNL     1      -3.679   4.637 136.962  0.00  0.00    +0.000 C 
ATOM    105  O   UNL     1      -3.295   3.506 136.744  0.00  0.00    +0.000 OA
ATOM    106  C   UNL     1      -4.534   8.353 138.028  0.00  0.00    +0.000 A 
ATOM    107  C   UNL     1      -5.723   8.706 138.621  0.00  0.00    +0.000 A 
ATOM    108  C   UNL     1      -6.105  10.025 138.957  0.00  0.00    +0.000 A 
ATOM    109  C   UNL     1      -5.284  11.103 138.664  0.00  0.00    +0.000 A 
ATOM    110  C   UNL     1      -4.087  10.882 138.002  0.00  0.00    +0.000 A 
ATOM    111  C   UNL     1      -3.697   9.545 137.693  0.00  0.00    +0.000 A 
ATOM    112  O   UNL     1      -2.476   9.474 137.075  0.00  0.00    +0.000 OA
ATOM    113  C   UNL     1      -2.543   8.585 136.028  0.00  0.00    +0.000 A 
ATOM    114  C   UNL     1      -1.250   8.706 135.159  0.00  0.00    +0.000 A 
ATOM    115  C   UNL     1      -1.082   8.119 133.914  0.00  0.00    +0.000 A 
ATOM    116  C   UNL     1      -2.268   7.709 133.349  0.00  0.00    +0.000 A 
ATOM    117  C   UNL     1      -3.584   7.583 134.254  0.00  0.00    +0.000 A 
ATOM    118  C   UNL     1      -3.745   7.611 135.938  0.00  0.00    +0.000 A 
BRANCH 115 119
ATOM    119  O   UNL     1       0.119   7.937 133.283  0.00  0.00    +0.000 OA
ATOM    120  H   UNL     1       0.863   8.458 133.647  0.00  0.00    +0.000 HD
ENDBRANCH 115 119
BRANCH 109 121
ATOM    121  O   UNL     1      -5.583  12.393 138.996  0.00  0.00    +0.000 OA
ATOM    122  H   UNL     1      -5.229  12.669 139.857  0.00  0.00    +0.000 HD
ENDBRANCH 109 121
ENDBRANCH  93  96
ENDBRANCH  91  92
ENDBRANCH  90  91
ENDBRANCH  89  90
ENDBRANCH  70  89
ENDBRANCH  68  70
ENDBRANCH   7  66
TORSDOF 23
ENDMDL
MODEL 7
REMARK VINA RESULT:      -8.1      3.246     12.274
REMARK  Name = CHEMBL1790713
REMARK  27 active torsions:
REMARK  status: ('A' for Active; 'I' for Inactive)
REMARK    1  A    between atoms: C_1  and  C_2
REMARK    2  A    between atoms: C_2  and  C_3
REMARK    3  A    between atoms: C_3  and  C_4
REMARK    4  A    between atoms: C_3  and  C_5
REMARK    5  A    between atoms: C_9  and  C_10
REMARK    6  A    between atoms: C_9  and  C_11
REMARK    7  A    between atoms: C_14  and  O_15
REMARK    8  A    between atoms: C_31  and  C_32
REMARK    9  A    between atoms: C_38  and  C_39
REMARK   10  A    between atoms: N_41  and  C_42
REMARK   11  A    between atoms: C_42  and  C_43
REMARK   12  A    between atoms: C_42  and  C_74
REMARK   13  A    between atoms: C_43  and  C_44
REMARK   14  A    between atoms: C_44  and  C_45
REMARK   15  A    between atoms: C_45  and  N_46
REMARK   16  A    between atoms: C_47  and  C_49
REMARK   17  A    between atoms: C_62  and  O_63
REMARK   18  A    between atoms: C_69  and  O_70
REMARK   19  A    between atoms: N_76  and  C_77
REMARK   20  A    between atoms: C_77  and  C_78
REMARK   21  A    between atoms: C_77  and  C_81
REMARK   22  A    between atoms: C_84  and  O_85
REMARK   23  A    between atoms: C_91  and  C_92
REMARK   24  A    between atoms: C_92  and  C_93
REMARK   25  A    between atoms: C_99  and  C_100
REMARK   26  A    between atoms: C_100  and  C_101
REMARK   27  A    between atoms: C_100  and  O_102
REMARK                            x       y       z     vdW  Elec       q    Type
REMARK                         _______ _______ _______ _____ _____    ______ ____
ROOT
ATOM      1  C   UNL     1      -6.264   0.687 133.746  0.00  0.00    +0.000 C 
ATOM      2  O   UNL     1      -6.151   0.676 134.995  0.00  0.00    +0.000 OA
ATOM      3  N   UNL     1      -7.019   1.678 133.180  0.00  0.00    +0.000 N 
ATOM      4  C   UNL     1      -7.883   1.714 132.006  0.00  0.00    +0.000 C 
ATOM      5  C   UNL     1      -7.412   2.964 131.335  0.00  0.00    +0.000 C 
ATOM      6  C   UNL     1      -7.223   3.901 132.518  0.00  0.00    +0.000 C 
ATOM      7  C   UNL     1      -6.800   3.002 133.696  0.00  0.00    +0.000 C 
ENDROOT
BRANCH   1  27
ATOM      8  C   UNL     1      -5.965  -4.271 138.209  0.00  0.00    +0.000 C 
ATOM      9  N   UNL     1      -3.944  -3.927 137.147  0.00  0.00    +0.000 N 
ATOM     10  C   UNL     1      -1.969  -3.070 137.934  0.00  0.00    +0.000 C 
ATOM     11  O   UNL     1      -0.630  -2.727 138.340  0.00  0.00    +0.000 OA
ATOM     12  C   UNL     1      -1.701  -3.161 139.349  0.00  0.00    +0.000 C 
ATOM     13  C   UNL     1      -1.102  -2.547 140.517  0.00  0.00    +0.000 C 
ATOM     14  N   UNL     1      -1.398  -4.666 138.945  0.00  0.00    +0.000 N 
ATOM     15  C   UNL     1      -1.652  -5.446 137.748  0.00  0.00    +0.000 C 
ATOM     16  O   UNL     1      -1.718  -6.662 137.820  0.00  0.00    +0.000 OA
ATOM     17  C   UNL     1      -1.856  -5.031 136.300  0.00  0.00    +0.000 C 
ATOM     18  C   UNL     1      -2.107  -3.700 136.466  0.00  0.00    +0.000 C 
ATOM     19  C   UNL     1      -0.396  -2.934 136.549  0.00  0.00    +0.000 C 
ATOM     20  C   UNL     1      -0.256  -1.116 137.125  0.00  0.00    +0.000 C 
ATOM     21  C   UNL     1      -1.218  -0.551 138.106  0.00  0.00    +0.000 C 
ATOM     22  C   UNL     1      -2.476  -1.191 137.606  0.00  0.00    +0.000 C 
ATOM     23  C   UNL     1      -3.415  -3.174 138.343  0.00  0.00    +0.000 C 
ATOM     24  S   UNL     1      -1.579  -2.449 134.982  0.00  0.00    +0.000 S 
ATOM     25  S   UNL     1      -3.283  -2.650 134.306  0.00  0.00    +0.000 S 
ATOM     26  C   UNL     1      -4.417  -0.907 132.517  0.00  0.00    +0.000 C 
ATOM     27  C   UNL     1      -5.916  -0.561 132.746  0.00  0.00    +0.000 C 
ATOM     28  N   UNL     1      -6.749  -1.750 132.890  0.00  0.00    +0.000 N 
ATOM     29  C   UNL     1      -7.158  -2.283 134.124  0.00  0.00    +0.000 C 
ATOM     30  O   UNL     1      -8.030  -3.203 134.202  0.00  0.00    +0.000 OA
ATOM     31  C   UNL     1      -6.024  -2.139 135.118  0.00  0.00    +0.000 C 
ATOM     32  N   UNL     1      -6.993  -2.042 136.189  0.00  0.00    +0.000 N 
ATOM     33  C   UNL     1      -7.647  -3.030 136.749  0.00  0.00    +0.000 C 
ATOM     34  O   UNL     1      -8.265  -2.657 137.761  0.00  0.00    +0.000 OA
ATOM     35  C   UNL     1      -7.362  -4.581 136.158  0.00  0.00    +0.000 C 
ATOM     36  N   UNL     1      -7.004  -5.808 137.000  0.00  0.00    +0.000 N 
ATOM     37  C   UNL     1      -6.799  -5.727 138.325  0.00  0.00    +0.000 C 
ATOM     38  O   UNL     1      -7.057  -6.626 139.115  0.00  0.00    +0.000 OA
ATOM     39  H   UNL     1      -3.085  -2.739 136.767  0.00  0.00    +0.000 HD
ATOM     40  H   UNL     1      -1.374  -5.097 139.830  0.00  0.00    +0.000 HD
ATOM     41  H   UNL     1      -7.130  -2.095 132.032  0.00  0.00    +0.000 HD
ATOM     42  H   UNL     1      -6.882  -1.300 136.844  0.00  0.00    +0.000 HD
ATOM     43  H   UNL     1      -6.036  -6.117 136.928  0.00  0.00    +0.000 HD
BRANCH  12  44
ATOM     44  C   UNL     1      -2.988  -1.831 139.194  0.00  0.00    +0.000 A 
ATOM     45  C   UNL     1      -4.826  -2.218 139.772  0.00  0.00    +0.000 A 
ATOM     46  C   UNL     1      -5.540  -1.458 140.281  0.00  0.00    +0.000 A 
ATOM     47  C   UNL     1      -5.145  -0.377 139.842  0.00  0.00    +0.000 A 
ATOM     48  C   UNL     1      -3.829  -0.102 139.472  0.00  0.00    +0.000 A 
ATOM     49  C   UNL     1      -2.651  -0.707 139.374  0.00  0.00    +0.000 A 
BRANCH  47  50
ATOM     50  O   UNL     1      -6.120   0.482 139.761  0.00  0.00    +0.000 OA
ATOM     51  H   UNL     1      -6.935   0.125 139.390  0.00  0.00    +0.000 HD
ENDBRANCH  47  50
ENDBRANCH  12  44
BRANCH  35  52
ATOM     52  C   UNL     1      -6.276  -4.691 135.062  0.00  0.00    +0.000 C 
ATOM     53  C   UNL     1      -5.428  -5.842 135.233  0.00  0.00    +0.000 C 
BRANCH  52  54
ATOM     54  O   UNL     1      -6.352  -4.971 133.660  0.00  0.00    +0.000 OA
ATOM     55  H   UNL     1      -5.616  -5.633 133.443  0.00  0.00    +0.000 HD
ENDBRANCH  52  54
ENDBRANCH  35  52
BRANCH   8  56
ATOM     56  C   UNL     1      -8.088  -4.836 139.058  0.00  0.00    +0.000 C 
ATOM     57  C   UNL     1      -9.663  -6.256 138.987  0.00  0.00    +0.000 C 
BRANCH  56  59
ATOM     58  C   UNL     1      -8.902  -3.634 141.275  0.00  0.00    +0.000 C 
ATOM     59  C   UNL     1      -9.251  -4.944 140.742  0.00  0.00    +0.000 C 
ENDBRANCH  56  59
ENDBRANCH   8  56
BRANCH  31  60
ATOM     60  C   UNL     1      -5.009  -0.926 134.987  0.00  0.00    +0.000 C 
BRANCH  60  61
ATOM     61  C   UNL     1      -4.713   0.148 136.095  0.00  0.00    +0.000 C 
ATOM     62  N   UNL     1      -3.061   1.071 135.239  0.00  0.00    +0.000 N 
ATOM     63  O   UNL     1      -5.246   0.542 137.170  0.00  0.00    +0.000 OA
ATOM     64  H   UNL     1      -2.455   0.331 134.829  0.00  0.00    +0.000 HD
ATOM     65  H   UNL     1      -2.542   1.543 136.044  0.00  0.00    +0.000 HD
ENDBRANCH  60  61
ENDBRANCH  31  60
ENDBRANCH   1  27
BRANCH   7  66
ATOM     66  C   UNL     1      -5.372   3.287 134.111  0.00  0.00    +0.000 C 
ATOM     67  O   UNL     1      -4.387   3.000 133.434  0.00  0.00    +0.000 OA
ATOM     68  N   UNL     1      -5.342   3.897 135.353  0.00  0.00    +0.000 N 
ATOM     69  H   UNL     1      -6.178   4.008 135.904  0.00  0.00    +0.000 HD
BRANCH  68  70
ATOM     70  C   UNL     1      -4.211   4.617 135.804  0.00  0.00    +0.000 C 
BRANCH  70  71
ATOM     71  C   UNL     1      -4.143   4.715 137.386  0.00  0.00    +0.000 C 
ATOM     72  O   UNL     1      -3.812   3.709 138.020  0.00  0.00    +0.000 OA
ATOM     73  N   UNL     1      -4.505   5.893 138.042  0.00  0.00    +0.000 N 
ATOM     74  H   UNL     1      -4.355   5.952 139.050  0.00  0.00    +0.000 HD
BRANCH  73  75
ATOM     75  C   UNL     1      -4.842   7.181 137.404  0.00  0.00    +0.000 C 
BRANCH  75  76
ATOM     76  C   UNL     1      -6.300   7.512 137.493  0.00  0.00    +0.000 A 
ATOM     77  C   UNL     1      -6.715   8.836 137.601  0.00  0.00    +0.000 A 
ATOM     78  C   UNL     1      -8.069   9.155 137.683  0.00  0.00    +0.000 A 
ATOM     79  C   UNL     1      -9.008   8.139 137.668  0.00  0.00    +0.000 A 
ATOM     80  C   UNL     1      -8.604   6.821 137.610  0.00  0.00    +0.000 A 
ATOM     81  C   UNL     1      -7.266   6.517 137.520  0.00  0.00    +0.000 A 
BRANCH  79  82
ATOM     82  O   UNL     1     -10.352   8.336 137.708  0.00  0.00    +0.000 OA
ATOM     83  H   UNL     1     -10.637   9.123 137.220  0.00  0.00    +0.000 HD
ENDBRANCH  79  82
ENDBRANCH  75  76
BRANCH  75  84
ATOM     84  C   UNL     1      -3.937   8.306 137.846  0.00  0.00    +0.000 C 
ATOM     85  N   UNL     1      -4.188   8.639 139.367  0.00  0.00    +0.000 N 
ATOM     86  O   UNL     1      -3.335   9.045 137.048  0.00  0.00    +0.000 OA
ATOM     87  H   UNL     1      -3.991   9.662 139.579  0.00  0.00    +0.000 HD
ATOM     88  H   UNL     1      -5.182   8.482 139.700  0.00  0.00    +0.000 HD
ENDBRANCH  75  84
ENDBRANCH  73  75
ENDBRANCH  70  71
BRANCH  70  89
ATOM     89  C   UNL     1      -4.461   5.886 135.109  0.00  0.00    +0.000 C 
BRANCH  89  90
ATOM     90  C   UNL     1      -3.496   6.706 134.362  0.00  0.00    +0.000 C 
BRANCH  90  91
ATOM     91  C   UNL     1      -3.817   7.136 132.959  0.00  0.00    +0.000 C 
BRANCH  91  92
ATOM     92  N   UNL     1      -4.305   5.950 132.189  0.00  0.00    +0.000 N 
ATOM     93  C   UNL     1      -3.658   5.466 131.022  0.00  0.00    +0.000 C 
ATOM     94  O   UNL     1      -2.652   6.126 130.682  0.00  0.00    +0.000 OA
ATOM     95  H   UNL     1      -5.101   5.496 132.602  0.00  0.00    +0.000 HD
BRANCH  93  96
ATOM     96  C   UNL     1      -3.972   3.984 130.116  0.00  0.00    +0.000 A 
ATOM     97  C   UNL     1      -4.689   4.166 129.077  0.00  0.00    +0.000 A 
ATOM     98  C   UNL     1      -5.436   2.915 128.410  0.00  0.00    +0.000 A 
ATOM     99  C   UNL     1      -5.693   2.855 127.240  0.00  0.00    +0.000 A 
ATOM    100  C   UNL     1      -4.929   1.915 127.678  0.00  0.00    +0.000 A 
ATOM    101  C   UNL     1      -4.054   2.576 129.481  0.00  0.00    +0.000 A 
ATOM    102  C   UNL     1      -5.947   1.575 125.800  0.00  0.00    +0.000 C 
ATOM    103  O   UNL     1      -5.532   2.805 125.200  0.00  0.00    +0.000 OA
ATOM    104  C   UNL     1      -5.756   3.689 126.168  0.00  0.00    +0.000 C 
ATOM    105  O   UNL     1      -5.626   4.845 126.517  0.00  0.00    +0.000 OA
ATOM    106  C   UNL     1      -6.641  -0.070 125.294  0.00  0.00    +0.000 A 
ATOM    107  C   UNL     1      -5.883  -1.135 125.721  0.00  0.00    +0.000 A 
ATOM    108  C   UNL     1      -6.116  -2.488 125.381  0.00  0.00    +0.000 A 
ATOM    109  C   UNL     1      -7.147  -2.842 124.525  0.00  0.00    +0.000 A 
ATOM    110  C   UNL     1      -7.939  -1.848 123.972  0.00  0.00    +0.000 A 
ATOM    111  C   UNL     1      -7.715  -0.489 124.344  0.00  0.00    +0.000 A 
ATOM    112  O   UNL     1      -8.594   0.379 123.752  0.00  0.00    +0.000 OA
ATOM    113  C   UNL     1      -7.914   1.484 123.299  0.00  0.00    +0.000 A 
ATOM    114  C   UNL     1      -8.854   2.338 122.388  0.00  0.00    +0.000 A 
ATOM    115  C   UNL     1      -8.432   3.395 121.595  0.00  0.00    +0.000 A 
ATOM    116  C   UNL     1      -7.070   3.414 121.405  0.00  0.00    +0.000 A 
ATOM    117  C   UNL     1      -6.118   2.538 122.351  0.00  0.00    +0.000 A 
ATOM    118  C   UNL     1      -6.470   1.742 123.802  0.00  0.00    +0.000 A 
BRANCH 115 119
ATOM    119  O   UNL     1      -9.251   4.346 121.049  0.00  0.00    +0.000 OA
ATOM    120  H   UNL     1     -10.159   4.371 121.411  0.00  0.00    +0.000 HD
ENDBRANCH 115 119
BRANCH 109 121
ATOM    121  O   UNL     1      -7.442  -4.132 124.189  0.00  0.00    +0.000 OA
ATOM    122  H   UNL     1      -8.121  -4.214 123.500  0.00  0.00    +0.000 HD
ENDBRANCH 109 121
ENDBRANCH  93  96
ENDBRANCH  91  92
ENDBRANCH  90  91
ENDBRANCH  89  90
ENDBRANCH  70  89
ENDBRANCH  68  70
ENDBRANCH   7  66
TORSDOF 23
ENDMDL
MODEL 8
REMARK VINA RESULT:      -8.0      2.968     11.820
REMARK  Name = CHEMBL1790713
REMARK  27 active torsions:
REMARK  status: ('A' for Active; 'I' for Inactive)
REMARK    1  A    between atoms: C_1  and  C_2
REMARK    2  A    between atoms: C_2  and  C_3
REMARK    3  A    between atoms: C_3  and  C_4
REMARK    4  A    between atoms: C_3  and  C_5
REMARK    5  A    between atoms: C_9  and  C_10
REMARK    6  A    between atoms: C_9  and  C_11
REMARK    7  A    between atoms: C_14  and  O_15
REMARK    8  A    between atoms: C_31  and  C_32
REMARK    9  A    between atoms: C_38  and  C_39
REMARK   10  A    between atoms: N_41  and  C_42
REMARK   11  A    between atoms: C_42  and  C_43
REMARK   12  A    between atoms: C_42  and  C_74
REMARK   13  A    between atoms: C_43  and  C_44
REMARK   14  A    between atoms: C_44  and  C_45
REMARK   15  A    between atoms: C_45  and  N_46
REMARK   16  A    between atoms: C_47  and  C_49
REMARK   17  A    between atoms: C_62  and  O_63
REMARK   18  A    between atoms: C_69  and  O_70
REMARK   19  A    between atoms: N_76  and  C_77
REMARK   20  A    between atoms: C_77  and  C_78
REMARK   21  A    between atoms: C_77  and  C_81
REMARK   22  A    between atoms: C_84  and  O_85
REMARK   23  A    between atoms: C_91  and  C_92
REMARK   24  A    between atoms: C_92  and  C_93
REMARK   25  A    between atoms: C_99  and  C_100
REMARK   26  A    between atoms: C_100  and  C_101
REMARK   27  A    between atoms: C_100  and  O_102
REMARK                            x       y       z     vdW  Elec       q    Type
REMARK                         _______ _______ _______ _____ _____    ______ ____
ROOT
ATOM      1  C   UNL     1      -5.792   1.332 133.888  0.00  0.00    +0.000 C 
ATOM      2  O   UNL     1      -5.592   1.258 135.124  0.00  0.00    +0.000 OA
ATOM      3  N   UNL     1      -6.746   2.208 133.446  0.00  0.00    +0.000 N 
ATOM      4  C   UNL     1      -7.684   2.168 132.330  0.00  0.00    +0.000 C 
ATOM      5  C   UNL     1      -7.486   3.524 131.734  0.00  0.00    +0.000 C 
ATOM      6  C   UNL     1      -7.380   4.398 132.975  0.00  0.00    +0.000 C 
ATOM      7  C   UNL     1      -6.725   3.512 134.052  0.00  0.00    +0.000 C 
ENDROOT
BRANCH   1  27
ATOM      8  C   UNL     1      -5.953  -4.203 137.620  0.00  0.00    +0.000 C 
ATOM      9  N   UNL     1      -3.824  -3.713 136.873  0.00  0.00    +0.000 N 
ATOM     10  C   UNL     1      -1.975  -2.975 138.008  0.00  0.00    +0.000 C 
ATOM     11  O   UNL     1      -0.701  -2.692 138.620  0.00  0.00    +0.000 OA
ATOM     12  C   UNL     1      -1.879  -3.263 139.419  0.00  0.00    +0.000 C 
ATOM     13  C   UNL     1      -1.438  -2.818 140.726  0.00  0.00    +0.000 C 
ATOM     14  N   UNL     1      -1.503  -4.697 138.850  0.00  0.00    +0.000 N 
ATOM     15  C   UNL     1      -1.596  -5.301 137.534  0.00  0.00    +0.000 C 
ATOM     16  O   UNL     1      -1.649  -6.516 137.427  0.00  0.00    +0.000 OA
ATOM     17  C   UNL     1      -1.630  -4.687 136.144  0.00  0.00    +0.000 C 
ATOM     18  C   UNL     1      -1.922  -3.392 136.461  0.00  0.00    +0.000 C 
ATOM     19  C   UNL     1      -0.247  -2.646 136.860  0.00  0.00    +0.000 C 
ATOM     20  C   UNL     1      -0.211  -0.927 137.696  0.00  0.00    +0.000 C 
ATOM     21  C   UNL     1      -1.294  -0.504 138.621  0.00  0.00    +0.000 C 
ATOM     22  C   UNL     1      -2.471  -1.068 137.885  0.00  0.00    +0.000 C 
ATOM     23  C   UNL     1      -3.458  -3.135 138.218  0.00  0.00    +0.000 C 
ATOM     24  S   UNL     1      -1.239  -1.946 135.242  0.00  0.00    +0.000 S 
ATOM     25  S   UNL     1      -2.844  -2.050 134.341  0.00  0.00    +0.000 S 
ATOM     26  C   UNL     1      -3.782  -0.073 132.686  0.00  0.00    +0.000 C 
ATOM     27  C   UNL     1      -5.304   0.237 132.775  0.00  0.00    +0.000 C 
ATOM     28  N   UNL     1      -6.127  -0.961 132.649  0.00  0.00    +0.000 N 
ATOM     29  C   UNL     1      -6.674  -1.662 133.737  0.00  0.00    +0.000 C 
ATOM     30  O   UNL     1      -7.534  -2.584 133.578  0.00  0.00    +0.000 OA
ATOM     31  C   UNL     1      -5.673  -1.658 134.872  0.00  0.00    +0.000 C 
ATOM     32  N   UNL     1      -6.767  -1.712 135.819  0.00  0.00    +0.000 N 
ATOM     33  C   UNL     1      -7.466  -2.769 136.152  0.00  0.00    +0.000 C 
ATOM     34  O   UNL     1      -8.209  -2.542 137.122  0.00  0.00    +0.000 OA
ATOM     35  C   UNL     1      -7.084  -4.222 135.390  0.00  0.00    +0.000 C 
ATOM     36  N   UNL     1      -6.810  -5.555 136.091  0.00  0.00    +0.000 N 
ATOM     37  C   UNL     1      -6.769  -5.660 137.429  0.00  0.00    +0.000 C 
ATOM     38  O   UNL     1      -7.106  -6.662 138.048  0.00  0.00    +0.000 OA
ATOM     39  H   UNL     1      -2.946  -2.483 136.771  0.00  0.00    +0.000 HD
ATOM     40  H   UNL     1      -1.580  -5.248 139.663  0.00  0.00    +0.000 HD
ATOM     41  H   UNL     1      -6.395  -1.182 131.711  0.00  0.00    +0.000 HD
ATOM     42  H   UNL     1      -6.748  -1.069 136.579  0.00  0.00    +0.000 HD
ATOM     43  H   UNL     1      -5.836  -5.850 136.096  0.00  0.00    +0.000 HD
BRANCH  12  44
ATOM     44  C   UNL     1      -3.161  -1.925 139.293  0.00  0.00    +0.000 A 
ATOM     45  C   UNL     1      -5.042  -2.377 139.637  0.00  0.00    +0.000 A 
ATOM     46  C   UNL     1      -5.812  -1.683 140.158  0.00  0.00    +0.000 A 
ATOM     47  C   UNL     1      -5.389  -0.558 139.890  0.00  0.00    +0.000 A 
ATOM     48  C   UNL     1      -4.046  -0.241 139.687  0.00  0.00    +0.000 A 
ATOM     49  C   UNL     1      -2.857  -0.829 139.637  0.00  0.00    +0.000 A 
BRANCH  47  50
ATOM     50  O   UNL     1      -6.361   0.305 139.814  0.00  0.00    +0.000 OA
ATOM     51  H   UNL     1      -6.214   1.114 140.316  0.00  0.00    +0.000 HD
ENDBRANCH  47  50
ENDBRANCH  12  44
BRANCH  35  52
ATOM     52  C   UNL     1      -5.872  -4.177 134.431  0.00  0.00    +0.000 C 
ATOM     53  C   UNL     1      -5.038  -5.347 134.533  0.00  0.00    +0.000 C 
BRANCH  52  54
ATOM     54  O   UNL     1      -5.773  -4.247 133.005  0.00  0.00    +0.000 OA
ATOM     55  H   UNL     1      -4.807  -4.059 132.758  0.00  0.00    +0.000 HD
ENDBRANCH  52  54
ENDBRANCH  35  52
BRANCH   8  56
ATOM     56  C   UNL     1      -8.154  -4.882 138.115  0.00  0.00    +0.000 C 
ATOM     57  C   UNL     1      -9.560  -5.208 139.669  0.00  0.00    +0.000 C 
BRANCH  56  59
ATOM     58  C   UNL     1     -10.137  -5.889 136.674  0.00  0.00    +0.000 C 
ATOM     59  C   UNL     1     -10.122  -4.735 137.563  0.00  0.00    +0.000 C 
ENDBRANCH  56  59
ENDBRANCH   8  56
BRANCH  31  60
ATOM     60  C   UNL     1      -4.670  -0.439 135.037  0.00  0.00    +0.000 C 
BRANCH  60  61
ATOM     61  C   UNL     1      -4.558   0.494 136.296  0.00  0.00    +0.000 C 
ATOM     62  N   UNL     1      -2.997   1.715 135.674  0.00  0.00    +0.000 N 
ATOM     63  O   UNL     1      -5.181   0.666 137.381  0.00  0.00    +0.000 OA
ATOM     64  H   UNL     1      -2.287   1.117 135.205  0.00  0.00    +0.000 HD
ATOM     65  H   UNL     1      -2.576   2.126 136.566  0.00  0.00    +0.000 HD
ENDBRANCH  60  61
ENDBRANCH  31  60
ENDBRANCH   1  27
BRANCH   7  66
ATOM     66  C   UNL     1      -5.343   4.019 134.405  0.00  0.00    +0.000 C 
ATOM     67  O   UNL     1      -4.330   3.771 133.755  0.00  0.00    +0.000 OA
ATOM     68  N   UNL     1      -5.388   4.780 135.560  0.00  0.00    +0.000 N 
ATOM     69  H   UNL     1      -6.232   4.858 136.106  0.00  0.00    +0.000 HD
BRANCH  68  70
ATOM     70  C   UNL     1      -4.354   5.684 135.899  0.00  0.00    +0.000 C 
BRANCH  70  71
ATOM     71  C   UNL     1      -4.693   6.539 137.193  0.00  0.00    +0.000 C 
ATOM     72  O   UNL     1      -5.052   7.710 137.041  0.00  0.00    +0.000 OA
ATOM     73  N   UNL     1      -4.532   5.994 138.468  0.00  0.00    +0.000 N 
ATOM     74  H   UNL     1      -4.853   6.536 139.271  0.00  0.00    +0.000 HD
BRANCH  73  75
ATOM     75  C   UNL     1      -4.188   4.593 138.782  0.00  0.00    +0.000 C 
BRANCH  75  76
ATOM     76  C   UNL     1      -2.723   4.394 139.023  0.00  0.00    +0.000 A 
ATOM     77  C   UNL     1      -1.857   5.484 139.030  0.00  0.00    +0.000 A 
ATOM     78  C   UNL     1      -0.493   5.310 139.255  0.00  0.00    +0.000 A 
ATOM     79  C   UNL     1       0.004   4.034 139.461  0.00  0.00    +0.000 A 
ATOM     80  C   UNL     1      -0.839   2.944 139.407  0.00  0.00    +0.000 A 
ATOM     81  C   UNL     1      -2.185   3.127 139.194  0.00  0.00    +0.000 A 
BRANCH  79  82
ATOM     82  O   UNL     1       1.308   3.752 139.722  0.00  0.00    +0.000 OA
ATOM     83  H   UNL     1       1.604   2.917 139.330  0.00  0.00    +0.000 HD
ENDBRANCH  79  82
ENDBRANCH  75  76
BRANCH  75  84
ATOM     84  C   UNL     1      -5.065   4.004 139.862  0.00  0.00    +0.000 C 
ATOM     85  N   UNL     1      -4.753   4.688 141.247  0.00  0.00    +0.000 N 
ATOM     86  O   UNL     1      -5.690   2.939 139.721  0.00  0.00    +0.000 OA
ATOM     87  H   UNL     1      -4.932   4.024 142.059  0.00  0.00    +0.000 HD
ATOM     88  H   UNL     1      -3.749   5.003 141.375  0.00  0.00    +0.000 HD
ENDBRANCH  75  84
ENDBRANCH  73  75
ENDBRANCH  70  71
BRANCH  70  89
ATOM     89  C   UNL     1      -4.299   6.444 134.644  0.00  0.00    +0.000 C 
BRANCH  89  90
ATOM     90  C   UNL     1      -3.131   7.105 134.045  0.00  0.00    +0.000 C 
BRANCH  90  91
ATOM     91  C   UNL     1      -3.070   7.299 132.557  0.00  0.00    +0.000 C 
BRANCH  91  92
ATOM     92  N   UNL     1      -3.720   6.128 131.890  0.00  0.00    +0.000 N 
ATOM     93  C   UNL     1      -3.177   5.492 130.743  0.00  0.00    +0.000 C 
ATOM     94  O   UNL     1      -2.114   6.003 130.327  0.00  0.00    +0.000 OA
ATOM     95  H   UNL     1      -4.547   5.801 132.357  0.00  0.00    +0.000 HD
BRANCH  93  96
ATOM     96  C   UNL     1      -3.693   3.998 129.957  0.00  0.00    +0.000 A 
ATOM     97  C   UNL     1      -4.408   4.191 128.918  0.00  0.00    +0.000 A 
ATOM     98  C   UNL     1      -5.320   2.997 128.361  0.00  0.00    +0.000 A 
ATOM     99  C   UNL     1      -5.611   2.884 127.203  0.00  0.00    +0.000 A 
ATOM    100  C   UNL     1      -4.958   1.891 127.699  0.00  0.00    +0.000 A 
ATOM    101  C   UNL     1      -3.963   2.568 129.432  0.00  0.00    +0.000 A 
ATOM    102  C   UNL     1      -6.057   1.544 125.868  0.00  0.00    +0.000 C 
ATOM    103  O   UNL     1      -5.509   2.666 125.170  0.00  0.00    +0.000 OA
ATOM    104  C   UNL     1      -5.598   3.639 126.072  0.00  0.00    +0.000 C 
ATOM    105  O   UNL     1      -5.319   4.792 126.330  0.00  0.00    +0.000 OA
ATOM    106  C   UNL     1      -6.960  -0.034 125.499  0.00  0.00    +0.000 A 
ATOM    107  C   UNL     1      -6.328  -1.152 125.994  0.00  0.00    +0.000 A 
ATOM    108  C   UNL     1      -6.734  -2.486 125.760  0.00  0.00    +0.000 A 
ATOM    109  C   UNL     1      -7.822  -2.771 124.950  0.00  0.00    +0.000 A 
ATOM    110  C   UNL     1      -8.499  -1.729 124.336  0.00  0.00    +0.000 A 
ATOM    111  C   UNL     1      -8.101  -0.386 124.600  0.00  0.00    +0.000 A 
ATOM    112  O   UNL     1      -8.882   0.540 123.958  0.00  0.00    +0.000 OA
ATOM    113  C   UNL     1      -8.082   1.516 123.413  0.00  0.00    +0.000 A 
ATOM    114  C   UNL     1      -8.933   2.410 122.454  0.00  0.00    +0.000 A 
ATOM    115  C   UNL     1      -8.405   3.346 121.578  0.00  0.00    +0.000 A 
ATOM    116  C   UNL     1      -7.056   3.182 121.365  0.00  0.00    +0.000 A 
ATOM    117  C   UNL     1      -6.195   2.266 122.359  0.00  0.00    +0.000 A 
ATOM    118  C   UNL     1      -6.606   1.628 123.871  0.00  0.00    +0.000 A 
BRANCH 115 119
ATOM    119  O   UNL     1      -9.114   4.349 120.974  0.00  0.00    +0.000 OA
ATOM    120  H   UNL     1      -8.576   5.005 120.487  0.00  0.00    +0.000 HD
ENDBRANCH 115 119
BRANCH 109 121
ATOM    121  O   UNL     1      -8.281  -4.035 124.718  0.00  0.00    +0.000 OA
ATOM    122  H   UNL     1      -7.719  -4.554 124.119  0.00  0.00    +0.000 HD
ENDBRANCH 109 121
ENDBRANCH  93  96
ENDBRANCH  91  92
ENDBRANCH  90  91
ENDBRANCH  89  90
ENDBRANCH  70  89
ENDBRANCH  68  70
ENDBRANCH   7  66
TORSDOF 23
ENDMDL
MODEL 9
REMARK VINA RESULT:      -7.8      4.916     13.178
REMARK  Name = CHEMBL1790713
REMARK  27 active torsions:
REMARK  status: ('A' for Active; 'I' for Inactive)
REMARK    1  A    between atoms: C_1  and  C_2
REMARK    2  A    between atoms: C_2  and  C_3
REMARK    3  A    between atoms: C_3  and  C_4
REMARK    4  A    between atoms: C_3  and  C_5
REMARK    5  A    between atoms: C_9  and  C_10
REMARK    6  A    between atoms: C_9  and  C_11
REMARK    7  A    between atoms: C_14  and  O_15
REMARK    8  A    between atoms: C_31  and  C_32
REMARK    9  A    between atoms: C_38  and  C_39
REMARK   10  A    between atoms: N_41  and  C_42
REMARK   11  A    between atoms: C_42  and  C_43
REMARK   12  A    between atoms: C_42  and  C_74
REMARK   13  A    between atoms: C_43  and  C_44
REMARK   14  A    between atoms: C_44  and  C_45
REMARK   15  A    between atoms: C_45  and  N_46
REMARK   16  A    between atoms: C_47  and  C_49
REMARK   17  A    between atoms: C_62  and  O_63
REMARK   18  A    between atoms: C_69  and  O_70
REMARK   19  A    between atoms: N_76  and  C_77
REMARK   20  A    between atoms: C_77  and  C_78
REMARK   21  A    between atoms: C_77  and  C_81
REMARK   22  A    between atoms: C_84  and  O_85
REMARK   23  A    between atoms: C_91  and  C_92
REMARK   24  A    between atoms: C_92  and  C_93
REMARK   25  A    between atoms: C_99  and  C_100
REMARK   26  A    between atoms: C_100  and  C_101
REMARK   27  A    between atoms: C_100  and  O_102
REMARK                            x       y       z     vdW  Elec       q    Type
REMARK                         _______ _______ _______ _____ _____    ______ ____
ROOT
ATOM      1  C   UNL     1      -4.847  10.267 139.263  0.00  0.00    +0.000 C 
ATOM      2  O   UNL     1      -4.058   9.862 138.376  0.00  0.00    +0.000 OA
ATOM      3  N   UNL     1      -6.167  10.409 138.930  0.00  0.00    +0.000 N 
ATOM      4  C   UNL     1      -7.195  11.355 139.347  0.00  0.00    +0.000 C 
ATOM      5  C   UNL     1      -8.330  10.434 139.659  0.00  0.00    +0.000 C 
ATOM      6  C   UNL     1      -8.239   9.428 138.522  0.00  0.00    +0.000 C 
ATOM      7  C   UNL     1      -6.741   9.327 138.177  0.00  0.00    +0.000 C 
ENDROOT
BRANCH   1  27
ATOM      8  C   UNL     1       1.594  11.452 137.962  0.00  0.00    +0.000 C 
ATOM      9  N   UNL     1       1.312  10.020 139.751  0.00  0.00    +0.000 N 
ATOM     10  C   UNL     1       1.742   7.778 139.952  0.00  0.00    +0.000 C 
ATOM     11  O   UNL     1       2.135   6.428 140.272  0.00  0.00    +0.000 OA
ATOM     12  C   UNL     1       2.738   7.193 139.086  0.00  0.00    +0.000 C 
ATOM     13  C   UNL     1       3.161   6.034 138.327  0.00  0.00    +0.000 C 
ATOM     14  N   UNL     1       3.705   7.920 140.114  0.00  0.00    +0.000 N 
ATOM     15  C   UNL     1       3.490   8.914 141.150  0.00  0.00    +0.000 C 
ATOM     16  O   UNL     1       4.416   9.622 141.512  0.00  0.00    +0.000 OA
ATOM     17  C   UNL     1       2.254   9.279 141.955  0.00  0.00    +0.000 C 
ATOM     18  C   UNL     1       1.289   8.679 141.198  0.00  0.00    +0.000 C 
ATOM     19  C   UNL     1       1.287   6.905 141.808  0.00  0.00    +0.000 C 
ATOM     20  C   UNL     1       0.324   5.609 140.783  0.00  0.00    +0.000 C 
ATOM     21  C   UNL     1       0.202   5.740 139.308  0.00  0.00    +0.000 C 
ATOM     22  C   UNL     1      -0.001   7.220 139.214  0.00  0.00    +0.000 C 
ATOM     23  C   UNL     1       1.629   8.829 138.880  0.00  0.00    +0.000 C 
ATOM     24  S   UNL     1      -0.368   8.023 142.129  0.00  0.00    +0.000 S 
ATOM     25  S   UNL     1      -1.137   9.656 141.752  0.00  0.00    +0.000 S 
ATOM     26  C   UNL     1      -3.844  10.102 141.798  0.00  0.00    +0.000 C 
ATOM     27  C   UNL     1      -4.415  10.998 140.663  0.00  0.00    +0.000 C 
ATOM     28  N   UNL     1      -3.697  12.261 140.532  0.00  0.00    +0.000 N 
ATOM     29  C   UNL     1      -2.686  12.501 139.587  0.00  0.00    +0.000 C 
ATOM     30  O   UNL     1      -2.219  13.665 139.383  0.00  0.00    +0.000 OA
ATOM     31  C   UNL     1      -1.856  11.244 139.429  0.00  0.00    +0.000 C 
ATOM     32  N   UNL     1      -1.579  11.615 138.057  0.00  0.00    +0.000 N 
ATOM     33  C   UNL     1      -0.708  12.501 137.644  0.00  0.00    +0.000 C 
ATOM     34  O   UNL     1      -0.565  12.464 136.410  0.00  0.00    +0.000 OA
ATOM     35  C   UNL     1       0.176  13.325 138.818  0.00  0.00    +0.000 C 
ATOM     36  N   UNL     1       1.698  13.478 138.849  0.00  0.00    +0.000 N 
ATOM     37  C   UNL     1       2.493  12.873 137.951  0.00  0.00    +0.000 C 
ATOM     38  O   UNL     1       3.556  13.336 137.555  0.00  0.00    +0.000 OA
ATOM     39  H   UNL     1       0.462   8.808 140.071  0.00  0.00    +0.000 HD
ATOM     40  H   UNL     1       4.561   7.875 139.631  0.00  0.00    +0.000 HD
ATOM     41  H   UNL     1      -4.070  13.008 141.083  0.00  0.00    +0.000 HD
ATOM     42  H   UNL     1      -1.704  10.916 137.359  0.00  0.00    +0.000 HD
ATOM     43  H   UNL     1       2.176  12.924 139.558  0.00  0.00    +0.000 HD
BRANCH  12  44
ATOM     44  C   UNL     1       1.270   7.493 137.988  0.00  0.00    +0.000 A 
ATOM     45  C   UNL     1       1.353   8.948 136.671  0.00  0.00    +0.000 A 
ATOM     46  C   UNL     1       0.878   8.920 135.613  0.00  0.00    +0.000 A 
ATOM     47  C   UNL     1      -0.071   8.148 135.761  0.00  0.00    +0.000 A 
ATOM     48  C   UNL     1      -0.102   7.093 136.672  0.00  0.00    +0.000 A 
ATOM     49  C   UNL     1       0.642   6.551 137.629  0.00  0.00    +0.000 A 
BRANCH  47  50
ATOM     50  O   UNL     1      -1.050   8.445 134.957  0.00  0.00    +0.000 OA
ATOM     51  H   UNL     1      -1.732   7.766 134.893  0.00  0.00    +0.000 HD
ENDBRANCH  47  50
ENDBRANCH  12  44
BRANCH  35  52
ATOM     52  C   UNL     1      -0.072  12.879 140.278  0.00  0.00    +0.000 C 
ATOM     53  C   UNL     1       1.143  12.789 141.046  0.00  0.00    +0.000 C 
BRANCH  52  54
ATOM     54  O   UNL     1      -0.708  13.527 141.385  0.00  0.00    +0.000 OA
ATOM     55  H   UNL     1      -0.602  14.527 141.252  0.00  0.00    +0.000 HD
ENDBRANCH  52  54
ENDBRANCH  35  52
BRANCH   8  56
ATOM     56  C   UNL     1       1.883  13.151 136.356  0.00  0.00    +0.000 C 
ATOM     57  C   UNL     1       2.561  13.586 134.394  0.00  0.00    +0.000 C 
BRANCH  56  59
ATOM     58  C   UNL     1       1.464  15.766 136.471  0.00  0.00    +0.000 C 
ATOM     59  C   UNL     1       1.030  14.794 135.476  0.00  0.00    +0.000 C 
ENDBRANCH  56  59
ENDBRANCH   8  56
BRANCH  31  60
ATOM     60  C   UNL     1      -2.529   9.822 139.644  0.00  0.00    +0.000 C 
BRANCH  60  61
ATOM     61  C   UNL     1      -2.569   8.657 138.590  0.00  0.00    +0.000 C 
ATOM     62  N   UNL     1      -3.119   7.091 139.839  0.00  0.00    +0.000 N 
ATOM     63  O   UNL     1      -2.439   8.533 137.340  0.00  0.00    +0.000 OA
ATOM     64  H   UNL     1      -2.588   7.187 140.728  0.00  0.00    +0.000 HD
ATOM     65  H   UNL     1      -2.810   6.199 139.339  0.00  0.00    +0.000 HD
ENDBRANCH  60  61
ENDBRANCH  31  60
ENDBRANCH   1  27
BRANCH   7  66
ATOM     66  C   UNL     1      -6.194   7.959 138.526  0.00  0.00    +0.000 C 
ATOM     67  O   UNL     1      -6.206   7.480 139.658  0.00  0.00    +0.000 OA
ATOM     68  N   UNL     1      -5.675   7.344 137.401  0.00  0.00    +0.000 N 
ATOM     69  H   UNL     1      -5.598   7.833 136.523  0.00  0.00    +0.000 HD
BRANCH  68  70
ATOM     70  C   UNL     1      -5.464   5.946 137.343  0.00  0.00    +0.000 C 
BRANCH  70  71
ATOM     71  C   UNL     1      -4.099   5.565 136.629  0.00  0.00    +0.000 C 
ATOM     72  O   UNL     1      -3.706   6.278 135.701  0.00  0.00    +0.000 OA
ATOM     73  N   UNL     1      -3.395   4.420 137.005  0.00  0.00    +0.000 N 
ATOM     74  H   UNL     1      -2.474   4.260 136.594  0.00  0.00    +0.000 HD
BRANCH  73  75
ATOM     75  C   UNL     1      -3.713   3.532 138.141  0.00  0.00    +0.000 C 
BRANCH  75  76
ATOM     76  C   UNL     1      -4.251   2.203 137.709  0.00  0.00    +0.000 A 
ATOM     77  C   UNL     1      -4.301   1.871 136.358  0.00  0.00    +0.000 A 
ATOM     78  C   UNL     1      -4.798   0.636 135.945  0.00  0.00    +0.000 A 
ATOM     79  C   UNL     1      -5.258  -0.262 136.893  0.00  0.00    +0.000 A 
ATOM     80  C   UNL     1      -5.257   0.078 138.229  0.00  0.00    +0.000 A 
ATOM     81  C   UNL     1      -4.756   1.295 138.627  0.00  0.00    +0.000 A 
BRANCH  79  82
ATOM     82  O   UNL     1      -5.731  -1.504 136.606  0.00  0.00    +0.000 OA
ATOM     83  H   UNL     1      -5.037  -2.124 136.337  0.00  0.00    +0.000 HD
ENDBRANCH  79  82
ENDBRANCH  75  76
BRANCH  75  84
ATOM     84  C   UNL     1      -2.583   3.433 139.139  0.00  0.00    +0.000 C 
ATOM     85  N   UNL     1      -1.465   2.463 138.597  0.00  0.00    +0.000 N 
ATOM     86  O   UNL     1      -2.687   3.808 140.320  0.00  0.00    +0.000 OA
ATOM     87  H   UNL     1      -0.949   1.981 139.393  0.00  0.00    +0.000 HD
ATOM     88  H   UNL     1      -1.817   1.671 137.987  0.00  0.00    +0.000 HD
ENDBRANCH  75  84
ENDBRANCH  73  75
ENDBRANCH  70  71
BRANCH  70  89
ATOM     89  C   UNL     1      -6.679   5.565 136.613  0.00  0.00    +0.000 C 
BRANCH  89  90
ATOM     90  C   UNL     1      -7.178   6.123 135.348  0.00  0.00    +0.000 C 
BRANCH  90  91
ATOM     91  C   UNL     1      -8.637   6.010 135.011  0.00  0.00    +0.000 C 
BRANCH  91  92
ATOM     92  N   UNL     1      -8.812   4.958 133.962  0.00  0.00    +0.000 N 
ATOM     93  C   UNL     1      -9.219   5.250 132.634  0.00  0.00    +0.000 C 
ATOM     94  O   UNL     1      -9.437   6.463 132.418  0.00  0.00    +0.000 OA
ATOM     95  H   UNL     1      -8.565   4.034 134.268  0.00  0.00    +0.000 HD
BRANCH  93  96
ATOM     96  C   UNL     1      -9.281   4.177 131.234  0.00  0.00    +0.000 A 
ATOM     97  C   UNL     1      -8.413   3.243 131.270  0.00  0.00    +0.000 A 
ATOM     98  C   UNL     1      -8.026   2.478 129.917  0.00  0.00    +0.000 A 
ATOM     99  C   UNL     1      -7.649   1.340 129.895  0.00  0.00    +0.000 A 
ATOM    100  C   UNL     1      -8.726   1.569 129.226  0.00  0.00    +0.000 A 
ATOM    101  C   UNL     1      -9.574   3.359 129.953  0.00  0.00    +0.000 A 
ATOM    102  C   UNL     1      -7.631  -0.237 128.759  0.00  0.00    +0.000 C 
ATOM    103  O   UNL     1      -7.546  -0.693 130.112  0.00  0.00    +0.000 OA
ATOM    104  C   UNL     1      -7.180   0.406 130.765  0.00  0.00    +0.000 C 
ATOM    105  O   UNL     1      -6.976   0.901 131.855  0.00  0.00    +0.000 OA
ATOM    106  C   UNL     1      -7.443  -0.904 127.038  0.00  0.00    +0.000 A 
ATOM    107  C   UNL     1      -8.553  -0.703 126.251  0.00  0.00    +0.000 A 
ATOM    108  C   UNL     1      -8.725  -1.207 124.941  0.00  0.00    +0.000 A 
ATOM    109  C   UNL     1      -7.758  -2.008 124.351  0.00  0.00    +0.000 A 
ATOM    110  C   UNL     1      -6.623  -2.340 125.073  0.00  0.00    +0.000 A 
ATOM    111  C   UNL     1      -6.445  -1.802 126.382  0.00  0.00    +0.000 A 
ATOM    112  O   UNL     1      -5.263  -2.183 126.961  0.00  0.00    +0.000 OA
ATOM    113  C   UNL     1      -5.485  -2.536 128.270  0.00  0.00    +0.000 A 
ATOM    114  C   UNL     1      -4.208  -3.228 128.848  0.00  0.00    +0.000 A 
ATOM    115  C   UNL     1      -4.159  -3.899 130.060  0.00  0.00    +0.000 A 
ATOM    116  C   UNL     1      -5.404  -4.208 130.555  0.00  0.00    +0.000 A 
ATOM    117  C   UNL     1      -6.704  -3.486 129.958  0.00  0.00    +0.000 A 
ATOM    118  C   UNL     1      -6.822  -2.136 128.945  0.00  0.00    +0.000 A 
BRANCH 115 119
ATOM    119  O   UNL     1      -3.012  -4.229 130.732  0.00  0.00    +0.000 OA
ATOM    120  H   UNL     1      -2.266  -4.513 130.167  0.00  0.00    +0.000 HD
ENDBRANCH 115 119
BRANCH 109 121
ATOM    121  O   UNL     1      -7.853  -2.493 123.079  0.00  0.00    +0.000 OA
ATOM    122  H   UNL     1      -8.620  -3.070 122.935  0.00  0.00    +0.000 HD
ENDBRANCH 109 121
ENDBRANCH  93  96
ENDBRANCH  91  92
ENDBRANCH  90  91
ENDBRANCH  89  90
ENDBRANCH  70  89
ENDBRANCH  68  70
ENDBRANCH   7  66
TORSDOF 23
ENDMDL
