MODEL 1
REMARK VINA RESULT:      -9.1      0.000      0.000
REMARK  Name = CHEMBL514113
REMARK  8 active torsions:
REMARK  status: ('A' for Active; 'I' for Inactive)
REMARK    1  A    between atoms: C_1  and  O_2
REMARK    2  A    between atoms: O_2  and  C_3
REMARK    3  A    between atoms: C_6  and  N_7
REMARK    4  A    between atoms: N_7  and  C_8
REMARK    5  A    between atoms: N_7  and  S_20
REMARK    6  A    between atoms: C_8  and  C_9
REMARK    7  A    between atoms: C_12  and  C_13
REMARK    8  A    between atoms: S_20  and  C_23
REMARK                            x       y       z     vdW  Elec       q    Type
REMARK                         _______ _______ _______ _____ _____    ______ ____
ROOT
ATOM      1  N   UNL     1      -8.699   2.267 123.393  0.00  0.00    +0.000 N 
ENDROOT
BRANCH   1   5
ATOM      2  C   UNL     1      -6.410   4.247 120.289  0.00  0.00    +0.000 A 
ATOM      3  C   UNL     1      -5.833   3.835 121.443  0.00  0.00    +0.000 A 
ATOM      4  C   UNL     1      -6.649   3.271 122.396  0.00  0.00    +0.000 A 
ATOM      5  C   UNL     1      -8.014   3.038 122.337  0.00  0.00    +0.000 A 
ATOM      6  C   UNL     1      -8.587   3.502 121.160  0.00  0.00    +0.000 A 
ATOM      7  C   UNL     1      -7.795   4.124 120.155  0.00  0.00    +0.000 A 
BRANCH   2   9
ATOM      8  C   UNL     1      -5.918   5.746 118.590  0.00  0.00    +0.000 C 
ATOM      9  O   UNL     1      -5.504   4.645 119.363  0.00  0.00    +0.000 OA
ENDBRANCH   2   9
ENDBRANCH   1   5
BRANCH   1  10
ATOM     10  S   UNL     1      -8.465   2.827 125.040  0.00  0.00    +0.000 S 
ATOM     11  O   UNL     1      -8.742   4.246 125.064  0.00  0.00    +0.000 OA
ATOM     12  O   UNL     1      -9.267   1.912 125.849  0.00  0.00    +0.000 OA
BRANCH  10  13
ATOM     13  C   UNL     1      -6.744   2.653 125.621  0.00  0.00    +0.000 A 
ATOM     14  C   UNL     1      -6.146   1.441 125.909  0.00  0.00    +0.000 A 
ATOM     15  C   UNL     1      -4.844   1.400 126.382  0.00  0.00    +0.000 A 
ATOM     16  C   UNL     1      -4.114   2.571 126.434  0.00  0.00    +0.000 A 
ATOM     17  C   UNL     1      -4.740   3.743 126.039  0.00  0.00    +0.000 A 
ATOM     18  N   UNL     1      -6.043   3.822 125.661  0.00  0.00    +0.000 NA
ENDBRANCH  10  13
ENDBRANCH   1  10
BRANCH   1  19
ATOM     19  C   UNL     1      -9.218   0.874 123.207  0.00  0.00    +0.000 C 
BRANCH  19  20
ATOM     20  C   UNL     1      -8.397  -0.329 123.595  0.00  0.00    +0.000 A 
ATOM     21  C   UNL     1      -7.149  -0.694 123.116  0.00  0.00    +0.000 A 
ATOM     22  S   UNL     1      -6.415  -1.830 124.197  0.00  0.00    +0.000 S 
ATOM     23  C   UNL     1      -7.801  -1.743 125.233  0.00  0.00    +0.000 A 
ATOM     24  N   UNL     1      -8.804  -1.042 124.737  0.00  0.00    +0.000 NA
BRANCH  23  25
ATOM     25  C   UNL     1      -7.846  -2.524 126.473  0.00  0.00    +0.000 A 
ATOM     26  C   UNL     1      -8.823  -3.489 126.775  0.00  0.00    +0.000 A 
ATOM     27  C   UNL     1      -8.928  -3.990 128.080  0.00  0.00    +0.000 A 
ATOM     28  C   UNL     1      -8.011  -3.597 129.056  0.00  0.00    +0.000 A 
ATOM     29  C   UNL     1      -6.982  -2.719 128.729  0.00  0.00    +0.000 A 
ATOM     30  C   UNL     1      -6.894  -2.200 127.442  0.00  0.00    +0.000 A 
ENDBRANCH  23  25
ENDBRANCH  19  20
ENDBRANCH   1  19
TORSDOF 7
ENDMDL
MODEL 2
REMARK VINA RESULT:      -8.6      1.978      3.786
REMARK  Name = CHEMBL514113
REMARK  8 active torsions:
REMARK  status: ('A' for Active; 'I' for Inactive)
REMARK    1  A    between atoms: C_1  and  O_2
REMARK    2  A    between atoms: O_2  and  C_3
REMARK    3  A    between atoms: C_6  and  N_7
REMARK    4  A    between atoms: N_7  and  C_8
REMARK    5  A    between atoms: N_7  and  S_20
REMARK    6  A    between atoms: C_8  and  C_9
REMARK    7  A    between atoms: C_12  and  C_13
REMARK    8  A    between atoms: S_20  and  C_23
REMARK                            x       y       z     vdW  Elec       q    Type
REMARK                         _______ _______ _______ _____ _____    ______ ____
ROOT
ATOM      1  N   UNL     1      -8.580   2.213 123.606  0.00  0.00    +0.000 N 
ENDROOT
BRANCH   1   5
ATOM      2  C   UNL     1      -7.051   4.114 120.021  0.00  0.00    +0.000 A 
ATOM      3  C   UNL     1      -8.381   4.000 120.252  0.00  0.00    +0.000 A 
ATOM      4  C   UNL     1      -8.774   3.328 121.387  0.00  0.00    +0.000 A 
ATOM      5  C   UNL     1      -7.983   2.750 122.366  0.00  0.00    +0.000 A 
ATOM      6  C   UNL     1      -6.626   2.849 122.089  0.00  0.00    +0.000 A 
ATOM      7  C   UNL     1      -6.165   3.503 120.912  0.00  0.00    +0.000 A 
BRANCH   2   9
ATOM      8  C   UNL     1      -5.571   5.645 119.104  0.00  0.00    +0.000 C 
ATOM      9  O   UNL     1      -6.770   4.918 118.968  0.00  0.00    +0.000 OA
ENDBRANCH   2   9
ENDBRANCH   1   5
BRANCH   1  10
ATOM     10  S   UNL     1      -9.647   0.832 123.418  0.00  0.00    +0.000 S 
ATOM     11  O   UNL     1     -10.631   0.892 124.477  0.00  0.00    +0.000 OA
ATOM     12  O   UNL     1     -10.072   0.893 122.022  0.00  0.00    +0.000 OA
BRANCH  10  13
ATOM     13  C   UNL     1      -8.798  -0.768 123.628  0.00  0.00    +0.000 A 
ATOM     14  C   UNL     1      -7.457  -0.971 123.360  0.00  0.00    +0.000 A 
ATOM     15  C   UNL     1      -6.898  -2.230 123.511  0.00  0.00    +0.000 A 
ATOM     16  C   UNL     1      -7.663  -3.241 124.057  0.00  0.00    +0.000 A 
ATOM     17  C   UNL     1      -8.975  -2.949 124.398  0.00  0.00    +0.000 A 
ATOM     18  N   UNL     1      -9.572  -1.749 124.173  0.00  0.00    +0.000 NA
ENDBRANCH  10  13
ENDBRANCH   1  10
BRANCH   1  19
ATOM     19  C   UNL     1      -8.659   2.975 124.893  0.00  0.00    +0.000 C 
BRANCH  19  20
ATOM     20  C   UNL     1      -7.911   2.523 126.121  0.00  0.00    +0.000 A 
ATOM     21  C   UNL     1      -7.455   3.304 127.172  0.00  0.00    +0.000 A 
ATOM     22  S   UNL     1      -7.118   2.301 128.543  0.00  0.00    +0.000 S 
ATOM     23  C   UNL     1      -7.617   0.905 127.649  0.00  0.00    +0.000 A 
ATOM     24  N   UNL     1      -7.868   1.140 126.374  0.00  0.00    +0.000 NA
BRANCH  23  25
ATOM     25  C   UNL     1      -7.598  -0.419 128.277  0.00  0.00    +0.000 A 
ATOM     26  C   UNL     1      -7.571  -1.638 127.575  0.00  0.00    +0.000 A 
ATOM     27  C   UNL     1      -7.814  -2.839 128.254  0.00  0.00    +0.000 A 
ATOM     28  C   UNL     1      -7.998  -2.837 129.638  0.00  0.00    +0.000 A 
ATOM     29  C   UNL     1      -7.923  -1.640 130.346  0.00  0.00    +0.000 A 
ATOM     30  C   UNL     1      -7.710  -0.444 129.668  0.00  0.00    +0.000 A 
ENDBRANCH  23  25
ENDBRANCH  19  20
ENDBRANCH   1  19
TORSDOF 7
ENDMDL
MODEL 3
REMARK VINA RESULT:      -8.6      2.713      7.905
REMARK  Name = CHEMBL514113
REMARK  8 active torsions:
REMARK  status: ('A' for Active; 'I' for Inactive)
REMARK    1  A    between atoms: C_1  and  O_2
REMARK    2  A    between atoms: O_2  and  C_3
REMARK    3  A    between atoms: C_6  and  N_7
REMARK    4  A    between atoms: N_7  and  C_8
REMARK    5  A    between atoms: N_7  and  S_20
REMARK    6  A    between atoms: C_8  and  C_9
REMARK    7  A    between atoms: C_12  and  C_13
REMARK    8  A    between atoms: S_20  and  C_23
REMARK                            x       y       z     vdW  Elec       q    Type
REMARK                         _______ _______ _______ _____ _____    ______ ____
ROOT
ATOM      1  N   UNL     1      -9.089  -0.804 125.579  0.00  0.00    +0.000 N 
ENDROOT
BRANCH   1   5
ATOM      2  C   UNL     1      -6.223  -1.884 128.648  0.00  0.00    +0.000 A 
ATOM      3  C   UNL     1      -7.447  -2.460 128.586  0.00  0.00    +0.000 A 
ATOM      4  C   UNL     1      -8.312  -2.011 127.615  0.00  0.00    +0.000 A 
ATOM      5  C   UNL     1      -8.100  -1.040 126.650  0.00  0.00    +0.000 A 
ATOM      6  C   UNL     1      -6.852  -0.440 126.757  0.00  0.00    +0.000 A 
ATOM      7  C   UNL     1      -5.931  -0.841 127.765  0.00  0.00    +0.000 A 
BRANCH   2   9
ATOM      8  C   UNL     1      -5.894  -3.722 130.022  0.00  0.00    +0.000 C 
ATOM      9  O   UNL     1      -5.400  -2.498 129.532  0.00  0.00    +0.000 OA
ENDBRANCH   2   9
ENDBRANCH   1   5
BRANCH   1  10
ATOM     10  S   UNL     1      -9.037  -1.911 124.218  0.00  0.00    +0.000 S 
ATOM     11  O   UNL     1      -9.781  -3.095 124.586  0.00  0.00    +0.000 OA
ATOM     12  O   UNL     1      -9.468  -1.102 123.080  0.00  0.00    +0.000 OA
BRANCH  10  13
ATOM     13  C   UNL     1      -7.353  -2.492 123.826  0.00  0.00    +0.000 A 
ATOM     14  C   UNL     1      -6.757  -3.588 124.423  0.00  0.00    +0.000 A 
ATOM     15  C   UNL     1      -5.457  -3.940 124.095  0.00  0.00    +0.000 A 
ATOM     16  C   UNL     1      -4.819  -3.267 123.073  0.00  0.00    +0.000 A 
ATOM     17  C   UNL     1      -5.507  -2.240 122.445  0.00  0.00    +0.000 A 
ATOM     18  N   UNL     1      -6.744  -1.814 122.812  0.00  0.00    +0.000 NA
ENDBRANCH  10  13
ENDBRANCH   1  10
BRANCH   1  19
ATOM     19  C   UNL     1      -9.822   0.489 125.388  0.00  0.00    +0.000 C 
BRANCH  19  20
ATOM     20  C   UNL     1      -9.107   1.738 124.944  0.00  0.00    +0.000 A 
ATOM     21  C   UNL     1      -8.242   2.529 125.683  0.00  0.00    +0.000 A 
ATOM     22  S   UNL     1      -7.307   3.528 124.621  0.00  0.00    +0.000 S 
ATOM     23  C   UNL     1      -8.107   2.826 123.254  0.00  0.00    +0.000 A 
ATOM     24  N   UNL     1      -9.106   2.022 123.566  0.00  0.00    +0.000 NA
BRANCH  23  25
ATOM     25  C   UNL     1      -7.752   3.247 121.896  0.00  0.00    +0.000 A 
ATOM     26  C   UNL     1      -6.444   3.522 121.459  0.00  0.00    +0.000 A 
ATOM     27  C   UNL     1      -6.239   4.160 120.228  0.00  0.00    +0.000 A 
ATOM     28  C   UNL     1      -7.325   4.445 119.398  0.00  0.00    +0.000 A 
ATOM     29  C   UNL     1      -8.611   4.080 119.787  0.00  0.00    +0.000 A 
ATOM     30  C   UNL     1      -8.817   3.472 121.021  0.00  0.00    +0.000 A 
ENDBRANCH  23  25
ENDBRANCH  19  20
ENDBRANCH   1  19
TORSDOF 7
ENDMDL
MODEL 4
REMARK VINA RESULT:      -8.5      4.862      7.628
REMARK  Name = CHEMBL514113
REMARK  8 active torsions:
REMARK  status: ('A' for Active; 'I' for Inactive)
REMARK    1  A    between atoms: C_1  and  O_2
REMARK    2  A    between atoms: O_2  and  C_3
REMARK    3  A    between atoms: C_6  and  N_7
REMARK    4  A    between atoms: N_7  and  C_8
REMARK    5  A    between atoms: N_7  and  S_20
REMARK    6  A    between atoms: C_8  and  C_9
REMARK    7  A    between atoms: C_12  and  C_13
REMARK    8  A    between atoms: S_20  and  C_23
REMARK                            x       y       z     vdW  Elec       q    Type
REMARK                         _______ _______ _______ _____ _____    ______ ____
ROOT
ATOM      1  N   UNL     1      -7.098   3.776 127.043  0.00  0.00    +0.000 N 
ENDROOT
BRANCH   1   5
ATOM      2  C   UNL     1      -9.392   0.901 124.748  0.00  0.00    +0.000 A 
ATOM      3  C   UNL     1      -9.145   2.147 124.279  0.00  0.00    +0.000 A 
ATOM      4  C   UNL     1      -8.461   3.011 125.103  0.00  0.00    +0.000 A 
ATOM      5  C   UNL     1      -7.956   2.779 126.371  0.00  0.00    +0.000 A 
ATOM      6  C   UNL     1      -8.253   1.506 126.843  0.00  0.00    +0.000 A 
ATOM      7  C   UNL     1      -8.988   0.584 126.047  0.00  0.00    +0.000 A 
BRANCH   2   9
ATOM      8  C   UNL     1     -10.161   0.713 122.568  0.00  0.00    +0.000 C 
ATOM      9  O   UNL     1      -9.932   0.086 123.809  0.00  0.00    +0.000 OA
ENDBRANCH   2   9
ENDBRANCH   1   5
BRANCH   1  10
ATOM     10  S   UNL     1      -5.759   4.409 126.101  0.00  0.00    +0.000 S 
ATOM     11  O   UNL     1      -5.223   3.319 125.315  0.00  0.00    +0.000 OA
ATOM     12  O   UNL     1      -6.311   5.587 125.436  0.00  0.00    +0.000 OA
BRANCH  10  13
ATOM     13  C   UNL     1      -4.372   5.000 127.128  0.00  0.00    +0.000 A 
ATOM     14  C   UNL     1      -3.286   4.222 127.480  0.00  0.00    +0.000 A 
ATOM     15  C   UNL     1      -2.292   4.739 128.296  0.00  0.00    +0.000 A 
ATOM     16  C   UNL     1      -2.336   6.074 128.640  0.00  0.00    +0.000 A 
ATOM     17  C   UNL     1      -3.402   6.829 128.174  0.00  0.00    +0.000 A 
ATOM     18  N   UNL     1      -4.436   6.323 127.452  0.00  0.00    +0.000 NA
ENDBRANCH  10  13
ENDBRANCH   1  10
BRANCH   1  19
ATOM     19  C   UNL     1      -7.049   3.971 128.527  0.00  0.00    +0.000 C 
BRANCH  19  20
ATOM     20  C   UNL     1      -8.290   4.291 129.319  0.00  0.00    +0.000 A 
ATOM     21  C   UNL     1      -8.624   3.846 130.589  0.00  0.00    +0.000 A 
ATOM     22  S   UNL     1      -9.861   4.857 131.258  0.00  0.00    +0.000 S 
ATOM     23  C   UNL     1      -9.852   5.823 129.821  0.00  0.00    +0.000 A 
ATOM     24  N   UNL     1      -9.099   5.341 128.850  0.00  0.00    +0.000 NA
BRANCH  23  25
ATOM     25  C   UNL     1     -10.741   6.983 129.706  0.00  0.00    +0.000 A 
ATOM     26  C   UNL     1     -11.799   7.271 130.587  0.00  0.00    +0.000 A 
ATOM     27  C   UNL     1     -12.742   8.250 130.247  0.00  0.00    +0.000 A 
ATOM     28  C   UNL     1     -12.586   8.997 129.079  0.00  0.00    +0.000 A 
ATOM     29  C   UNL     1     -11.482   8.781 128.258  0.00  0.00    +0.000 A 
ATOM     30  C   UNL     1     -10.561   7.790 128.581  0.00  0.00    +0.000 A 
ENDBRANCH  23  25
ENDBRANCH  19  20
ENDBRANCH   1  19
TORSDOF 7
ENDMDL
MODEL 5
REMARK VINA RESULT:      -8.3      6.720      9.731
REMARK  Name = CHEMBL514113
REMARK  8 active torsions:
REMARK  status: ('A' for Active; 'I' for Inactive)
REMARK    1  A    between atoms: C_1  and  O_2
REMARK    2  A    between atoms: O_2  and  C_3
REMARK    3  A    between atoms: C_6  and  N_7
REMARK    4  A    between atoms: N_7  and  C_8
REMARK    5  A    between atoms: N_7  and  S_20
REMARK    6  A    between atoms: C_8  and  C_9
REMARK    7  A    between atoms: C_12  and  C_13
REMARK    8  A    between atoms: S_20  and  C_23
REMARK                            x       y       z     vdW  Elec       q    Type
REMARK                         _______ _______ _______ _____ _____    ______ ____
ROOT
ATOM      1  N   UNL     1      -9.903   5.634 131.244  0.00  0.00    +0.000 N 
ENDROOT
BRANCH   1   5
ATOM      2  C   UNL     1     -12.430   8.682 129.478  0.00  0.00    +0.000 A 
ATOM      3  C   UNL     1     -12.813   7.995 130.580  0.00  0.00    +0.000 A 
ATOM      4  C   UNL     1     -11.973   7.004 131.034  0.00  0.00    +0.000 A 
ATOM      5  C   UNL     1     -10.747   6.609 130.524  0.00  0.00    +0.000 A 
ATOM      6  C   UNL     1     -10.394   7.305 129.375  0.00  0.00    +0.000 A 
ATOM      7  C   UNL     1     -11.242   8.315 128.842  0.00  0.00    +0.000 A 
BRANCH   2   9
ATOM      8  C   UNL     1     -13.294  10.701 130.224  0.00  0.00    +0.000 C 
ATOM      9  O   UNL     1     -13.246   9.729 129.205  0.00  0.00    +0.000 OA
ENDBRANCH   2   9
ENDBRANCH   1   5
BRANCH   1  10
ATOM     10  S   UNL     1      -9.978   3.975 130.677  0.00  0.00    +0.000 S 
ATOM     11  O   UNL     1      -9.652   3.115 131.794  0.00  0.00    +0.000 OA
ATOM     12  O   UNL     1     -11.286   3.873 130.034  0.00  0.00    +0.000 OA
BRANCH  10  13
ATOM     13  C   UNL     1      -8.742   3.597 129.390  0.00  0.00    +0.000 A 
ATOM     14  C   UNL     1      -7.588   4.332 129.190  0.00  0.00    +0.000 A 
ATOM     15  C   UNL     1      -6.718   3.999 128.163  0.00  0.00    +0.000 A 
ATOM     16  C   UNL     1      -6.952   2.851 127.434  0.00  0.00    +0.000 A 
ATOM     17  C   UNL     1      -8.075   2.101 127.748  0.00  0.00    +0.000 A 
ATOM     18  N   UNL     1      -8.992   2.457 128.686  0.00  0.00    +0.000 NA
ENDBRANCH  10  13
ENDBRANCH   1  10
BRANCH   1  19
ATOM     19  C   UNL     1      -9.333   5.870 132.609  0.00  0.00    +0.000 C 
BRANCH  19  20
ATOM     20  C   UNL     1      -7.850   6.025 132.825  0.00  0.00    +0.000 A 
ATOM     21  C   UNL     1      -7.084   5.506 133.857  0.00  0.00    +0.000 A 
ATOM     22  S   UNL     1      -5.411   5.522 133.411  0.00  0.00    +0.000 S 
ATOM     23  C   UNL     1      -5.824   6.200 131.872  0.00  0.00    +0.000 A 
ATOM     24  N   UNL     1      -7.095   6.538 131.754  0.00  0.00    +0.000 NA
BRANCH  23  25
ATOM     25  C   UNL     1      -4.778   6.485 130.886  0.00  0.00    +0.000 A 
ATOM     26  C   UNL     1      -4.572   7.735 130.276  0.00  0.00    +0.000 A 
ATOM     27  C   UNL     1      -3.721   7.838 129.167  0.00  0.00    +0.000 A 
ATOM     28  C   UNL     1      -3.013   6.721 128.722  0.00  0.00    +0.000 A 
ATOM     29  C   UNL     1      -3.141   5.506 129.390  0.00  0.00    +0.000 A 
ATOM     30  C   UNL     1      -4.006   5.397 130.473  0.00  0.00    +0.000 A 
ENDBRANCH  23  25
ENDBRANCH  19  20
ENDBRANCH   1  19
TORSDOF 7
ENDMDL
MODEL 6
REMARK VINA RESULT:      -8.3      2.010      5.216
REMARK  Name = CHEMBL514113
REMARK  8 active torsions:
REMARK  status: ('A' for Active; 'I' for Inactive)
REMARK    1  A    between atoms: C_1  and  O_2
REMARK    2  A    between atoms: O_2  and  C_3
REMARK    3  A    between atoms: C_6  and  N_7
REMARK    4  A    between atoms: N_7  and  C_8
REMARK    5  A    between atoms: N_7  and  S_20
REMARK    6  A    between atoms: C_8  and  C_9
REMARK    7  A    between atoms: C_12  and  C_13
REMARK    8  A    between atoms: S_20  and  C_23
REMARK                            x       y       z     vdW  Elec       q    Type
REMARK                         _______ _______ _______ _____ _____    ______ ____
ROOT
ATOM      1  N   UNL     1      -8.249   1.305 123.990  0.00  0.00    +0.000 N 
ENDROOT
BRANCH   1   5
ATOM      2  C   UNL     1      -7.211   3.922 120.692  0.00  0.00    +0.000 A 
ATOM      3  C   UNL     1      -6.280   3.491 121.576  0.00  0.00    +0.000 A 
ATOM      4  C   UNL     1      -6.712   2.713 122.625  0.00  0.00    +0.000 A 
ATOM      5  C   UNL     1      -7.996   2.277 122.907  0.00  0.00    +0.000 A 
ATOM      6  C   UNL     1      -8.937   2.761 122.006  0.00  0.00    +0.000 A 
ATOM      7  C   UNL     1      -8.550   3.598 120.923  0.00  0.00    +0.000 A 
BRANCH   2   9
ATOM      8  C   UNL     1      -5.398   5.110 119.868  0.00  0.00    +0.000 C 
ATOM      9  O   UNL     1      -6.665   4.548 119.621  0.00  0.00    +0.000 OA
ENDBRANCH   2   9
ENDBRANCH   1   5
BRANCH   1  10
ATOM     10  S   UNL     1      -8.143  -0.391 123.551  0.00  0.00    +0.000 S 
ATOM     11  O   UNL     1      -9.287  -0.701 122.721  0.00  0.00    +0.000 OA
ATOM     12  O   UNL     1      -6.791  -0.541 123.018  0.00  0.00    +0.000 OA
BRANCH  10  13
ATOM     13  C   UNL     1      -8.258  -1.514 124.984  0.00  0.00    +0.000 A 
ATOM     14  C   UNL     1      -7.314  -1.577 125.992  0.00  0.00    +0.000 A 
ATOM     15  C   UNL     1      -7.459  -2.487 127.028  0.00  0.00    +0.000 A 
ATOM     16  C   UNL     1      -8.620  -3.229 127.108  0.00  0.00    +0.000 A 
ATOM     17  C   UNL     1      -9.574  -3.050 126.119  0.00  0.00    +0.000 A 
ATOM     18  N   UNL     1      -9.414  -2.234 125.043  0.00  0.00    +0.000 NA
ENDBRANCH  10  13
ENDBRANCH   1  10
BRANCH   1  19
ATOM     19  C   UNL     1      -8.953   1.644 125.268  0.00  0.00    +0.000 C 
BRANCH  19  20
ATOM     20  C   UNL     1      -8.188   1.952 126.529  0.00  0.00    +0.000 A 
ATOM     21  C   UNL     1      -8.450   1.499 127.812  0.00  0.00    +0.000 A 
ATOM     22  S   UNL     1      -7.045   1.700 128.804  0.00  0.00    +0.000 S 
ATOM     23  C   UNL     1      -6.183   2.359 127.454  0.00  0.00    +0.000 A 
ATOM     24  N   UNL     1      -6.929   2.561 126.383  0.00  0.00    +0.000 NA
BRANCH  23  25
ATOM     25  C   UNL     1      -4.785   2.772 127.601  0.00  0.00    +0.000 A 
ATOM     26  C   UNL     1      -4.264   3.452 128.716  0.00  0.00    +0.000 A 
ATOM     27  C   UNL     1      -2.987   4.025 128.650  0.00  0.00    +0.000 A 
ATOM     28  C   UNL     1      -2.198   3.847 127.512  0.00  0.00    +0.000 A 
ATOM     29  C   UNL     1      -2.676   3.087 126.448  0.00  0.00    +0.000 A 
ATOM     30  C   UNL     1      -3.954   2.542 126.502  0.00  0.00    +0.000 A 
ENDBRANCH  23  25
ENDBRANCH  19  20
ENDBRANCH   1  19
TORSDOF 7
ENDMDL
MODEL 7
REMARK VINA RESULT:      -8.3      7.421      9.867
REMARK  Name = CHEMBL514113
REMARK  8 active torsions:
REMARK  status: ('A' for Active; 'I' for Inactive)
REMARK    1  A    between atoms: C_1  and  O_2
REMARK    2  A    between atoms: O_2  and  C_3
REMARK    3  A    between atoms: C_6  and  N_7
REMARK    4  A    between atoms: N_7  and  C_8
REMARK    5  A    between atoms: N_7  and  S_20
REMARK    6  A    between atoms: C_8  and  C_9
REMARK    7  A    between atoms: C_12  and  C_13
REMARK    8  A    between atoms: S_20  and  C_23
REMARK                            x       y       z     vdW  Elec       q    Type
REMARK                         _______ _______ _______ _____ _____    ______ ____
ROOT
ATOM      1  N   UNL     1      -9.891   5.912 130.828  0.00  0.00    +0.000 N 
ENDROOT
BRANCH   1   5
ATOM      2  C   UNL     1     -12.547   8.934 129.213  0.00  0.00    +0.000 A 
ATOM      3  C   UNL     1     -12.913   8.152 130.257  0.00  0.00    +0.000 A 
ATOM      4  C   UNL     1     -12.029   7.179 130.663  0.00  0.00    +0.000 A 
ATOM      5  C   UNL     1     -10.773   6.887 130.156  0.00  0.00    +0.000 A 
ATOM      6  C   UNL     1     -10.437   7.678 129.065  0.00  0.00    +0.000 A 
ATOM      7  C   UNL     1     -11.328   8.676 128.582  0.00  0.00    +0.000 A 
BRANCH   2   9
ATOM      8  C   UNL     1     -13.407  10.940 129.996  0.00  0.00    +0.000 C 
ATOM      9  O   UNL     1     -13.414   9.952 128.993  0.00  0.00    +0.000 OA
ENDBRANCH   2   9
ENDBRANCH   1   5
BRANCH   1  10
ATOM     10  S   UNL     1      -9.785   4.323 130.090  0.00  0.00    +0.000 S 
ATOM     11  O   UNL     1     -11.108   3.737 130.120  0.00  0.00    +0.000 OA
ATOM     12  O   UNL     1      -9.122   4.564 128.811  0.00  0.00    +0.000 OA
BRANCH  10  13
ATOM     13  C   UNL     1      -8.716   3.169 131.014  0.00  0.00    +0.000 A 
ATOM     14  C   UNL     1      -9.178   2.301 131.986  0.00  0.00    +0.000 A 
ATOM     15  C   UNL     1      -8.291   1.483 132.668  0.00  0.00    +0.000 A 
ATOM     16  C   UNL     1      -6.969   1.451 132.271  0.00  0.00    +0.000 A 
ATOM     17  C   UNL     1      -6.587   2.273 131.222  0.00  0.00    +0.000 A 
ATOM     18  N   UNL     1      -7.417   3.153 130.602  0.00  0.00    +0.000 NA
ENDBRANCH  10  13
ENDBRANCH   1  10
BRANCH   1  19
ATOM     19  C   UNL     1      -9.425   6.045 132.246  0.00  0.00    +0.000 C 
BRANCH  19  20
ATOM     20  C   UNL     1      -7.959   6.093 132.590  0.00  0.00    +0.000 A 
ATOM     21  C   UNL     1      -7.311   5.447 133.631  0.00  0.00    +0.000 A 
ATOM     22  S   UNL     1      -5.608   5.399 133.322  0.00  0.00    +0.000 S 
ATOM     23  C   UNL     1      -5.855   6.224 131.819  0.00  0.00    +0.000 A 
ATOM     24  N   UNL     1      -7.092   6.645 131.630  0.00  0.00    +0.000 NA
BRANCH  23  25
ATOM     25  C   UNL     1      -4.716   6.525 130.946  0.00  0.00    +0.000 A 
ATOM     26  C   UNL     1      -4.585   7.695 130.177  0.00  0.00    +0.000 A 
ATOM     27  C   UNL     1      -3.595   7.772 129.188  0.00  0.00    +0.000 A 
ATOM     28  C   UNL     1      -2.688   6.725 129.023  0.00  0.00    +0.000 A 
ATOM     29  C   UNL     1      -2.755   5.610 129.854  0.00  0.00    +0.000 A 
ATOM     30  C   UNL     1      -3.755   5.521 130.817  0.00  0.00    +0.000 A 
ENDBRANCH  23  25
ENDBRANCH  19  20
ENDBRANCH   1  19
TORSDOF 7
ENDMDL
MODEL 8
REMARK VINA RESULT:      -8.2      4.580      7.533
REMARK  Name = CHEMBL514113
REMARK  8 active torsions:
REMARK  status: ('A' for Active; 'I' for Inactive)
REMARK    1  A    between atoms: C_1  and  O_2
REMARK    2  A    between atoms: O_2  and  C_3
REMARK    3  A    between atoms: C_6  and  N_7
REMARK    4  A    between atoms: N_7  and  C_8
REMARK    5  A    between atoms: N_7  and  S_20
REMARK    6  A    between atoms: C_8  and  C_9
REMARK    7  A    between atoms: C_12  and  C_13
REMARK    8  A    between atoms: S_20  and  C_23
REMARK                            x       y       z     vdW  Elec       q    Type
REMARK                         _______ _______ _______ _____ _____    ______ ____
ROOT
ATOM      1  N   UNL     1      -7.676   3.093 126.972  0.00  0.00    +0.000 N 
ENDROOT
BRANCH   1   5
ATOM      2  C   UNL     1      -8.352  -0.649 124.888  0.00  0.00    +0.000 A 
ATOM      3  C   UNL     1      -9.362   0.016 125.497  0.00  0.00    +0.000 A 
ATOM      4  C   UNL     1      -9.043   1.164 126.186  0.00  0.00    +0.000 A 
ATOM      5  C   UNL     1      -7.805   1.767 126.334  0.00  0.00    +0.000 A 
ATOM      6  C   UNL     1      -6.781   1.047 125.730  0.00  0.00    +0.000 A 
ATOM      7  C   UNL     1      -7.050  -0.165 125.035  0.00  0.00    +0.000 A 
BRANCH   2   9
ATOM      8  C   UNL     1      -7.784  -2.278 123.339  0.00  0.00    +0.000 C 
ATOM      9  O   UNL     1      -8.791  -1.673 124.116  0.00  0.00    +0.000 OA
ENDBRANCH   2   9
ENDBRANCH   1   5
BRANCH   1  10
ATOM     10  S   UNL     1      -7.592   4.470 125.887  0.00  0.00    +0.000 S 
ATOM     11  O   UNL     1      -8.902   5.085 125.858  0.00  0.00    +0.000 OA
ATOM     12  O   UNL     1      -6.439   5.231 126.361  0.00  0.00    +0.000 OA
BRANCH  10  13
ATOM     13  C   UNL     1      -7.229   4.007 124.161  0.00  0.00    +0.000 A 
ATOM     14  C   UNL     1      -5.972   4.083 123.590  0.00  0.00    +0.000 A 
ATOM     15  C   UNL     1      -5.789   3.746 122.258  0.00  0.00    +0.000 A 
ATOM     16  C   UNL     1      -6.847   3.210 121.552  0.00  0.00    +0.000 A 
ATOM     17  C   UNL     1      -8.059   3.066 122.210  0.00  0.00    +0.000 A 
ATOM     18  N   UNL     1      -8.288   3.476 123.486  0.00  0.00    +0.000 NA
ENDBRANCH  10  13
ENDBRANCH   1  10
BRANCH   1  19
ATOM     19  C   UNL     1      -7.224   3.299 128.385  0.00  0.00    +0.000 C 
BRANCH  19  20
ATOM     20  C   UNL     1      -8.190   3.701 129.468  0.00  0.00    +0.000 A 
ATOM     21  C   UNL     1      -8.092   3.452 130.828  0.00  0.00    +0.000 A 
ATOM     22  S   UNL     1      -9.145   4.517 131.697  0.00  0.00    +0.000 S 
ATOM     23  C   UNL     1      -9.644   5.244 130.207  0.00  0.00    +0.000 A 
ATOM     24  N   UNL     1      -9.182   4.639 129.128  0.00  0.00    +0.000 NA
BRANCH  23  25
ATOM     25  C   UNL     1     -10.614   6.343 130.210  0.00  0.00    +0.000 A 
ATOM     26  C   UNL     1     -11.755   6.401 131.030  0.00  0.00    +0.000 A 
ATOM     27  C   UNL     1     -12.748   7.358 130.777  0.00  0.00    +0.000 A 
ATOM     28  C   UNL     1     -12.565   8.306 129.770  0.00  0.00    +0.000 A 
ATOM     29  C   UNL     1     -11.389   8.311 129.026  0.00  0.00    +0.000 A 
ATOM     30  C   UNL     1     -10.416   7.345 129.257  0.00  0.00    +0.000 A 
ENDBRANCH  23  25
ENDBRANCH  19  20
ENDBRANCH   1  19
TORSDOF 7
ENDMDL
MODEL 9
REMARK VINA RESULT:      -8.0      2.972      6.432
REMARK  Name = CHEMBL514113
REMARK  8 active torsions:
REMARK  status: ('A' for Active; 'I' for Inactive)
REMARK    1  A    between atoms: C_1  and  O_2
REMARK    2  A    between atoms: O_2  and  C_3
REMARK    3  A    between atoms: C_6  and  N_7
REMARK    4  A    between atoms: N_7  and  C_8
REMARK    5  A    between atoms: N_7  and  S_20
REMARK    6  A    between atoms: C_8  and  C_9
REMARK    7  A    between atoms: C_12  and  C_13
REMARK    8  A    between atoms: S_20  and  C_23
REMARK                            x       y       z     vdW  Elec       q    Type
REMARK                         _______ _______ _______ _____ _____    ______ ____
ROOT
ATOM      1  N   UNL     1      -6.629   3.584 126.946  0.00  0.00    +0.000 N 
ENDROOT
BRANCH   1   5
ATOM      2  C   UNL     1      -8.453   3.158 130.856  0.00  0.00    +0.000 A 
ATOM      3  C   UNL     1      -8.863   2.420 129.798  0.00  0.00    +0.000 A 
ATOM      4  C   UNL     1      -8.268   2.666 128.582  0.00  0.00    +0.000 A 
ATOM      5  C   UNL     1      -7.266   3.573 128.278  0.00  0.00    +0.000 A 
ATOM      6  C   UNL     1      -6.888   4.341 129.372  0.00  0.00    +0.000 A 
ATOM      7  C   UNL     1      -7.495   4.152 130.644  0.00  0.00    +0.000 A 
BRANCH   2   9
ATOM      8  C   UNL     1      -9.783   1.578 131.912  0.00  0.00    +0.000 C 
ATOM      9  O   UNL     1      -8.987   2.735 132.028  0.00  0.00    +0.000 OA
ENDBRANCH   2   9
ENDBRANCH   1   5
BRANCH   1  10
ATOM     10  S   UNL     1      -7.547   4.337 125.653  0.00  0.00    +0.000 S 
ATOM     11  O   UNL     1      -8.550   5.183 126.262  0.00  0.00    +0.000 OA
ATOM     12  O   UNL     1      -6.529   4.921 124.782  0.00  0.00    +0.000 OA
BRANCH  10  13
ATOM     13  C   UNL     1      -8.470   3.139 124.633  0.00  0.00    +0.000 A 
ATOM     14  C   UNL     1      -8.330   3.024 123.262  0.00  0.00    +0.000 A 
ATOM     15  C   UNL     1      -9.098   2.111 122.557  0.00  0.00    +0.000 A 
ATOM     16  C   UNL     1      -9.901   1.232 123.255  0.00  0.00    +0.000 A 
ATOM     17  C   UNL     1      -9.924   1.332 124.638  0.00  0.00    +0.000 A 
ATOM     18  N   UNL     1      -9.253   2.279 125.344  0.00  0.00    +0.000 NA
ENDBRANCH  10  13
ENDBRANCH   1  10
BRANCH   1  19
ATOM     19  C   UNL     1      -5.497   2.685 126.554  0.00  0.00    +0.000 C 
BRANCH  19  20
ATOM     20  C   UNL     1      -5.638   1.185 126.585  0.00  0.00    +0.000 A 
ATOM     21  C   UNL     1      -5.502   0.343 127.678  0.00  0.00    +0.000 A 
ATOM     22  S   UNL     1      -6.236  -1.187 127.335  0.00  0.00    +0.000 S 
ATOM     23  C   UNL     1      -6.697  -0.617 125.766  0.00  0.00    +0.000 A 
ATOM     24  N   UNL     1      -6.208   0.570 125.456  0.00  0.00    +0.000 NA
BRANCH  23  25
ATOM     25  C   UNL     1      -7.445  -1.488 124.854  0.00  0.00    +0.000 A 
ATOM     26  C   UNL     1      -7.384  -1.419 123.451  0.00  0.00    +0.000 A 
ATOM     27  C   UNL     1      -8.322  -2.115 122.677  0.00  0.00    +0.000 A 
ATOM     28  C   UNL     1      -9.261  -2.943 123.293  0.00  0.00    +0.000 A 
ATOM     29  C   UNL     1      -9.255  -3.091 124.677  0.00  0.00    +0.000 A 
ATOM     30  C   UNL     1      -8.342  -2.378 125.448  0.00  0.00    +0.000 A 
ENDBRANCH  23  25
ENDBRANCH  19  20
ENDBRANCH   1  19
TORSDOF 7
ENDMDL
