MODEL 1
REMARK VINA RESULT:      -9.7      0.000      0.000
REMARK  Name = CHEMBL3416861
REMARK  1 active torsions:
REMARK  status: ('A' for Active; 'I' for Inactive)
REMARK    1  A    between atoms: C_2  and  C_3
REMARK                            x       y       z     vdW  Elec       q    Type
REMARK                         _______ _______ _______ _____ _____    ______ ____
ROOT
ATOM      1  O   UNL     1      -7.937   3.858 125.027  0.00  0.00    +0.000 OA
ATOM      2  C   UNL     1      -7.484   3.166 124.108  0.00  0.00    +0.000 C 
ATOM      3  N   UNL     1      -7.926   1.841 123.920  0.00  0.00    +0.000 N 
ATOM      4  C   UNL     1      -7.035   0.705 123.698  0.00  0.00    +0.000 C 
ATOM      5  C   UNL     1      -6.949  -0.208 124.959  0.00  0.00    +0.000 C 
ATOM      6  C   UNL     1      -8.341  -0.693 125.470  0.00  0.00    +0.000 C 
ATOM      7  C   UNL     1      -9.269   0.545 125.607  0.00  0.00    +0.000 C 
ATOM      8  C   UNL     1      -9.264   1.428 124.341  0.00  0.00    +0.000 C 
ATOM      9  O   UNL     1      -8.909  -1.584 124.449  0.00  0.00    +0.000 OA
ATOM     10  C   UNL     1      -9.204  -2.898 124.987  0.00  0.00    +0.000 C 
ATOM     11  C   UNL     1      -8.801  -2.848 126.407  0.00  0.00    +0.000 A 
ATOM     12  C   UNL     1      -8.891  -3.881 127.344  0.00  0.00    +0.000 A 
ATOM     13  C   UNL     1      -8.465  -3.633 128.644  0.00  0.00    +0.000 A 
ATOM     14  C   UNL     1      -7.966  -2.367 128.973  0.00  0.00    +0.000 A 
ATOM     15  C   UNL     1      -7.885  -1.338 128.009  0.00  0.00    +0.000 A 
ATOM     16  C   UNL     1      -8.303  -1.582 126.706  0.00  0.00    +0.000 A 
ENDROOT
BRANCH   2  17
ATOM     17  C   UNL     1      -6.557   3.774 123.118  0.00  0.00    +0.000 A 
ATOM     18  C   UNL     1      -5.238   4.135 123.361  0.00  0.00    +0.000 A 
ATOM     19  N   UNL     1      -4.658   4.561 122.190  0.00  0.00    +0.000 N 
ATOM     20  C   UNL     1      -5.568   4.512 121.160  0.00  0.00    +0.000 A 
ATOM     21  C   UNL     1      -5.430   4.904 119.814  0.00  0.00    +0.000 A 
ATOM     22  C   UNL     1      -6.541   4.756 118.984  0.00  0.00    +0.000 A 
ATOM     23 CL   UNL     1      -6.457   5.300 117.348  0.00  0.00    +0.000 Cl
ATOM     24  C   UNL     1      -7.720   4.193 119.460  0.00  0.00    +0.000 A 
ATOM     25  C   UNL     1      -7.826   3.779 120.800  0.00  0.00    +0.000 A 
ATOM     26  C   UNL     1      -6.748   3.975 121.692  0.00  0.00    +0.000 A 
ATOM     27  H   UNL     1      -3.703   4.877 122.087  0.00  0.00    +0.000 HD
ENDBRANCH   2  17
TORSDOF 1
ENDMDL
MODEL 2
REMARK VINA RESULT:      -9.4      4.864      6.866
REMARK  Name = CHEMBL3416861
REMARK  1 active torsions:
REMARK  status: ('A' for Active; 'I' for Inactive)
REMARK    1  A    between atoms: C_2  and  C_3
REMARK                            x       y       z     vdW  Elec       q    Type
REMARK                         _______ _______ _______ _____ _____    ______ ____
ROOT
ATOM      1  O   UNL     1      -5.274   1.118 125.787  0.00  0.00    +0.000 OA
ATOM      2  C   UNL     1      -5.612   2.258 125.449  0.00  0.00    +0.000 C 
ATOM      3  N   UNL     1      -4.839   3.378 125.818  0.00  0.00    +0.000 N 
ATOM      4  C   UNL     1      -5.395   4.604 126.386  0.00  0.00    +0.000 C 
ATOM      5  C   UNL     1      -5.081   4.720 127.909  0.00  0.00    +0.000 C 
ATOM      6  C   UNL     1      -3.561   4.599 128.241  0.00  0.00    +0.000 C 
ATOM      7  C   UNL     1      -3.009   3.327 127.543  0.00  0.00    +0.000 C 
ATOM      8  C   UNL     1      -3.402   3.254 126.052  0.00  0.00    +0.000 C 
ATOM      9  O   UNL     1      -2.882   5.769 127.668  0.00  0.00    +0.000 OA
ATOM     10  C   UNL     1      -2.173   6.528 128.681  0.00  0.00    +0.000 C 
ATOM     11  C   UNL     1      -2.414   5.818 129.953  0.00  0.00    +0.000 A 
ATOM     12  C   UNL     1      -1.934   6.171 131.217  0.00  0.00    +0.000 A 
ATOM     13  C   UNL     1      -2.266   5.364 132.300  0.00  0.00    +0.000 A 
ATOM     14  C   UNL     1      -3.061   4.230 132.091  0.00  0.00    +0.000 A 
ATOM     15  C   UNL     1      -3.534   3.893 130.804  0.00  0.00    +0.000 A 
ATOM     16  C   UNL     1      -3.211   4.700 129.719  0.00  0.00    +0.000 A 
ENDROOT
BRANCH   2  17
ATOM     17  C   UNL     1      -6.776   2.441 124.543  0.00  0.00    +0.000 A 
ATOM     18  C   UNL     1      -8.105   2.216 124.879  0.00  0.00    +0.000 A 
ATOM     19  N   UNL     1      -8.911   2.593 123.831  0.00  0.00    +0.000 N 
ATOM     20  C   UNL     1      -8.149   3.054 122.783  0.00  0.00    +0.000 A 
ATOM     21  C   UNL     1      -8.543   3.486 121.502  0.00  0.00    +0.000 A 
ATOM     22  C   UNL     1      -7.539   3.888 120.621  0.00  0.00    +0.000 A 
ATOM     23 CL   UNL     1      -7.955   4.344 119.010  0.00  0.00    +0.000 Cl
ATOM     24  C   UNL     1      -6.206   3.909 121.017  0.00  0.00    +0.000 A 
ATOM     25  C   UNL     1      -5.837   3.503 122.313  0.00  0.00    +0.000 A 
ATOM     26  C   UNL     1      -6.816   3.023 123.213  0.00  0.00    +0.000 A 
ATOM     27  H   UNL     1      -9.921   2.537 123.815  0.00  0.00    +0.000 HD
ENDBRANCH   2  17
TORSDOF 1
ENDMDL
MODEL 3
REMARK VINA RESULT:      -9.1      8.787     10.799
REMARK  Name = CHEMBL3416861
REMARK  1 active torsions:
REMARK  status: ('A' for Active; 'I' for Inactive)
REMARK    1  A    between atoms: C_2  and  C_3
REMARK                            x       y       z     vdW  Elec       q    Type
REMARK                         _______ _______ _______ _____ _____    ______ ____
ROOT
ATOM      1  O   UNL     1      -5.548   4.250 129.222  0.00  0.00    +0.000 OA
ATOM      2  C   UNL     1      -5.597   4.610 130.404  0.00  0.00    +0.000 C 
ATOM      3  N   UNL     1      -6.837   4.820 131.042  0.00  0.00    +0.000 N 
ATOM      4  C   UNL     1      -7.152   5.995 131.850  0.00  0.00    +0.000 C 
ATOM      5  C   UNL     1      -8.128   6.956 131.104  0.00  0.00    +0.000 C 
ATOM      6  C   UNL     1      -9.435   6.257 130.616  0.00  0.00    +0.000 C 
ATOM      7  C   UNL     1      -9.040   4.973 129.837  0.00  0.00    +0.000 C 
ATOM      8  C   UNL     1      -8.034   4.098 130.614  0.00  0.00    +0.000 C 
ATOM      9  O   UNL     1     -10.201   5.858 131.804  0.00  0.00    +0.000 OA
ATOM     10  C   UNL     1     -11.528   6.443 131.810  0.00  0.00    +0.000 C 
ATOM     11  C   UNL     1     -11.611   7.255 130.579  0.00  0.00    +0.000 A 
ATOM     12  C   UNL     1     -12.700   8.014 130.144  0.00  0.00    +0.000 A 
ATOM     13  C   UNL     1     -12.587   8.708 128.945  0.00  0.00    +0.000 A 
ATOM     14  C   UNL     1     -11.396   8.622 128.214  0.00  0.00    +0.000 A 
ATOM     15  C   UNL     1     -10.308   7.848 128.673  0.00  0.00    +0.000 A 
ATOM     16  C   UNL     1     -10.413   7.159 129.875  0.00  0.00    +0.000 A 
ENDROOT
BRANCH   2  17
ATOM     17  C   UNL     1      -4.343   4.705 131.196  0.00  0.00    +0.000 A 
ATOM     18  C   UNL     1      -3.595   3.629 131.658  0.00  0.00    +0.000 A 
ATOM     19  N   UNL     1      -2.448   4.093 132.255  0.00  0.00    +0.000 N 
ATOM     20  C   UNL     1      -2.414   5.467 132.222  0.00  0.00    +0.000 A 
ATOM     21  C   UNL     1      -1.466   6.360 132.759  0.00  0.00    +0.000 A 
ATOM     22  C   UNL     1      -1.698   7.725 132.589  0.00  0.00    +0.000 A 
ATOM     23 CL   UNL     1      -0.617   8.866 133.301  0.00  0.00    +0.000 Cl
ATOM     24  C   UNL     1      -2.797   8.179 131.868  0.00  0.00    +0.000 A 
ATOM     25  C   UNL     1      -3.715   7.269 131.312  0.00  0.00    +0.000 A 
ATOM     26  C   UNL     1      -3.554   5.880 131.521  0.00  0.00    +0.000 A 
ATOM     27  H   UNL     1      -1.727   3.519 132.672  0.00  0.00    +0.000 HD
ENDBRANCH   2  17
TORSDOF 1
ENDMDL
MODEL 4
REMARK VINA RESULT:      -8.7      2.091      3.223
REMARK  Name = CHEMBL3416861
REMARK  1 active torsions:
REMARK  status: ('A' for Active; 'I' for Inactive)
REMARK    1  A    between atoms: C_2  and  C_3
REMARK                            x       y       z     vdW  Elec       q    Type
REMARK                         _______ _______ _______ _____ _____    ______ ____
ROOT
ATOM      1  O   UNL     1      -6.741   2.823 126.284  0.00  0.00    +0.000 OA
ATOM      2  C   UNL     1      -7.412   2.013 125.634  0.00  0.00    +0.000 C 
ATOM      3  N   UNL     1      -7.939   0.859 126.248  0.00  0.00    +0.000 N 
ATOM      4  C   UNL     1      -7.846  -0.484 125.681  0.00  0.00    +0.000 C 
ATOM      5  C   UNL     1      -6.810  -1.359 126.452  0.00  0.00    +0.000 C 
ATOM      6  C   UNL     1      -7.076  -1.426 127.988  0.00  0.00    +0.000 C 
ATOM      7  C   UNL     1      -7.249   0.023 128.518  0.00  0.00    +0.000 C 
ATOM      8  C   UNL     1      -8.250   0.843 127.676  0.00  0.00    +0.000 C 
ATOM      9  O   UNL     1      -8.340  -2.146 128.193  0.00  0.00    +0.000 OA
ATOM     10  C   UNL     1      -8.163  -3.315 129.033  0.00  0.00    +0.000 C 
ATOM     11  C   UNL     1      -6.726  -3.349 129.372  0.00  0.00    +0.000 A 
ATOM     12  C   UNL     1      -6.070  -4.295 130.164  0.00  0.00    +0.000 A 
ATOM     13  C   UNL     1      -4.704  -4.148 130.375  0.00  0.00    +0.000 A 
ATOM     14  C   UNL     1      -4.033  -3.064 129.797  0.00  0.00    +0.000 A 
ATOM     15  C   UNL     1      -4.718  -2.119 129.001  0.00  0.00    +0.000 A 
ATOM     16  C   UNL     1      -6.082  -2.265 128.780  0.00  0.00    +0.000 A 
ENDROOT
BRANCH   2  17
ATOM     17  C   UNL     1      -7.769   2.318 124.224  0.00  0.00    +0.000 A 
ATOM     18  C   UNL     1      -8.985   2.029 123.618  0.00  0.00    +0.000 A 
ATOM     19  N   UNL     1      -8.998   2.551 122.347  0.00  0.00    +0.000 N 
ATOM     20  C   UNL     1      -7.803   3.175 122.074  0.00  0.00    +0.000 A 
ATOM     21  C   UNL     1      -7.356   3.792 120.890  0.00  0.00    +0.000 A 
ATOM     22  C   UNL     1      -6.071   4.335 120.892  0.00  0.00    +0.000 A 
ATOM     23 CL   UNL     1      -5.439   5.027 119.443  0.00  0.00    +0.000 Cl
ATOM     24  C   UNL     1      -5.286   4.312 122.040  0.00  0.00    +0.000 A 
ATOM     25  C   UNL     1      -5.765   3.718 123.222  0.00  0.00    +0.000 A 
ATOM     26  C   UNL     1      -7.033   3.095 123.242  0.00  0.00    +0.000 A 
ATOM     27  H   UNL     1      -9.765   2.487 121.690  0.00  0.00    +0.000 HD
ENDBRANCH   2  17
TORSDOF 1
ENDMDL
MODEL 5
REMARK VINA RESULT:      -8.4      8.519     10.854
REMARK  Name = CHEMBL3416861
REMARK  1 active torsions:
REMARK  status: ('A' for Active; 'I' for Inactive)
REMARK    1  A    between atoms: C_2  and  C_3
REMARK                            x       y       z     vdW  Elec       q    Type
REMARK                         _______ _______ _______ _____ _____    ______ ____
ROOT
ATOM      1  O   UNL     1      -7.438   2.619 130.295  0.00  0.00    +0.000 OA
ATOM      2  C   UNL     1      -7.328   3.304 131.318  0.00  0.00    +0.000 C 
ATOM      3  N   UNL     1      -8.409   4.081 131.784  0.00  0.00    +0.000 N 
ATOM      4  C   UNL     1      -8.295   5.476 132.199  0.00  0.00    +0.000 C 
ATOM      5  C   UNL     1      -8.924   6.439 131.145  0.00  0.00    +0.000 C 
ATOM      6  C   UNL     1     -10.403   6.089 130.790  0.00  0.00    +0.000 C 
ATOM      7  C   UNL     1     -10.477   4.578 130.440  0.00  0.00    +0.000 C 
ATOM      8  C   UNL     1      -9.790   3.692 131.501  0.00  0.00    +0.000 C 
ATOM      9  O   UNL     1     -11.220   6.324 131.988  0.00  0.00    +0.000 OA
ATOM     10  C   UNL     1     -12.279   7.282 131.737  0.00  0.00    +0.000 C 
ATOM     11  C   UNL     1     -12.130   7.680 130.322  0.00  0.00    +0.000 A 
ATOM     12  C   UNL     1     -12.923   8.588 129.616  0.00  0.00    +0.000 A 
ATOM     13  C   UNL     1     -12.626   8.825 128.279  0.00  0.00    +0.000 A 
ATOM     14  C   UNL     1     -11.553   8.149 127.685  0.00  0.00    +0.000 A 
ATOM     15  C   UNL     1     -10.766   7.235 128.419  0.00  0.00    +0.000 A 
ATOM     16  C   UNL     1     -11.053   7.000 129.758  0.00  0.00    +0.000 A 
ENDROOT
BRANCH   2  17
ATOM     17  C   UNL     1      -6.089   3.216 132.132  0.00  0.00    +0.000 A 
ATOM     18  C   UNL     1      -5.863   2.315 133.166  0.00  0.00    +0.000 A 
ATOM     19  N   UNL     1      -4.572   2.451 133.616  0.00  0.00    +0.000 N 
ATOM     20  C   UNL     1      -3.923   3.441 132.917  0.00  0.00    +0.000 A 
ATOM     21  C   UNL     1      -2.621   3.954 133.076  0.00  0.00    +0.000 A 
ATOM     22  C   UNL     1      -2.227   4.987 132.225  0.00  0.00    +0.000 A 
ATOM     23 CL   UNL     1      -0.675   5.713 132.431  0.00  0.00    +0.000 Cl
ATOM     24  C   UNL     1      -3.074   5.451 131.224  0.00  0.00    +0.000 A 
ATOM     25  C   UNL     1      -4.359   4.902 131.062  0.00  0.00    +0.000 A 
ATOM     26  C   UNL     1      -4.822   3.903 131.947  0.00  0.00    +0.000 A 
ATOM     27  H   UNL     1      -4.148   1.913 134.361  0.00  0.00    +0.000 HD
ENDBRANCH   2  17
TORSDOF 1
ENDMDL
MODEL 6
REMARK VINA RESULT:      -8.3      7.308      8.568
REMARK  Name = CHEMBL3416861
REMARK  1 active torsions:
REMARK  status: ('A' for Active; 'I' for Inactive)
REMARK    1  A    between atoms: C_2  and  C_3
REMARK                            x       y       z     vdW  Elec       q    Type
REMARK                         _______ _______ _______ _____ _____    ______ ____
ROOT
ATOM      1  O   UNL     1      -8.484   4.608 129.473  0.00  0.00    +0.000 OA
ATOM      2  C   UNL     1      -9.082   4.428 130.540  0.00  0.00    +0.000 C 
ATOM      3  N   UNL     1      -8.649   3.441 131.449  0.00  0.00    +0.000 N 
ATOM      4  C   UNL     1      -9.538   2.478 132.095  0.00  0.00    +0.000 C 
ATOM      5  C   UNL     1      -9.367   1.050 131.493  0.00  0.00    +0.000 C 
ATOM      6  C   UNL     1      -7.893   0.540 131.516  0.00  0.00    +0.000 C 
ATOM      7  C   UNL     1      -6.986   1.637 130.895  0.00  0.00    +0.000 C 
ATOM      8  C   UNL     1      -7.247   3.031 131.503  0.00  0.00    +0.000 C 
ATOM      9  O   UNL     1      -7.501   0.361 132.921  0.00  0.00    +0.000 OA
ATOM     10  C   UNL     1      -7.080  -1.000 133.192  0.00  0.00    +0.000 C 
ATOM     11  C   UNL     1      -7.214  -1.722 131.910  0.00  0.00    +0.000 A 
ATOM     12  C   UNL     1      -6.927  -3.068 131.669  0.00  0.00    +0.000 A 
ATOM     13  C   UNL     1      -7.110  -3.564 130.383  0.00  0.00    +0.000 A 
ATOM     14  C   UNL     1      -7.571  -2.705 129.377  0.00  0.00    +0.000 A 
ATOM     15  C   UNL     1      -7.854  -1.348 129.645  0.00  0.00    +0.000 A 
ATOM     16  C   UNL     1      -7.679  -0.849 130.930  0.00  0.00    +0.000 A 
ENDROOT
BRANCH   2  17
ATOM     17  C   UNL     1     -10.190   5.339 130.924  0.00  0.00    +0.000 A 
ATOM     18  C   UNL     1     -10.744   5.449 132.194  0.00  0.00    +0.000 A 
ATOM     19  N   UNL     1     -11.669   6.466 132.203  0.00  0.00    +0.000 N 
ATOM     20  C   UNL     1     -11.765   7.036 130.955  0.00  0.00    +0.000 A 
ATOM     21  C   UNL     1     -12.615   8.059 130.494  0.00  0.00    +0.000 A 
ATOM     22  C   UNL     1     -12.506   8.431 129.153  0.00  0.00    +0.000 A 
ATOM     23 CL   UNL     1     -13.582   9.618 128.511  0.00  0.00    +0.000 Cl
ATOM     24  C   UNL     1     -11.555   7.847 128.324  0.00  0.00    +0.000 A 
ATOM     25  C   UNL     1     -10.694   6.848 128.814  0.00  0.00    +0.000 A 
ATOM     26  C   UNL     1     -10.818   6.393 130.146  0.00  0.00    +0.000 A 
ATOM     27  H   UNL     1     -12.215   6.758 133.003  0.00  0.00    +0.000 HD
ENDBRANCH   2  17
TORSDOF 1
ENDMDL
MODEL 7
REMARK VINA RESULT:      -8.0      5.710      7.638
REMARK  Name = CHEMBL3416861
REMARK  1 active torsions:
REMARK  status: ('A' for Active; 'I' for Inactive)
REMARK    1  A    between atoms: C_2  and  C_3
REMARK                            x       y       z     vdW  Elec       q    Type
REMARK                         _______ _______ _______ _____ _____    ______ ____
ROOT
ATOM      1  O   UNL     1      -7.406   4.634 128.020  0.00  0.00    +0.000 OA
ATOM      2  C   UNL     1      -7.845   3.763 128.779  0.00  0.00    +0.000 C 
ATOM      3  N   UNL     1      -7.309   2.459 128.766  0.00  0.00    +0.000 N 
ATOM      4  C   UNL     1      -8.117   1.243 128.739  0.00  0.00    +0.000 C 
ATOM      5  C   UNL     1      -8.072   0.558 127.338  0.00  0.00    +0.000 C 
ATOM      6  C   UNL     1      -6.623   0.268 126.836  0.00  0.00    +0.000 C 
ATOM      7  C   UNL     1      -5.791   1.573 126.967  0.00  0.00    +0.000 C 
ATOM      8  C   UNL     1      -5.925   2.220 128.361  0.00  0.00    +0.000 C 
ATOM      9  O   UNL     1      -6.035  -0.744 127.723  0.00  0.00    +0.000 OA
ATOM     10  C   UNL     1      -5.612  -1.922 126.989  0.00  0.00    +0.000 C 
ATOM     11  C   UNL     1      -5.951  -1.654 125.576  0.00  0.00    +0.000 A 
ATOM     12  C   UNL     1      -5.736  -2.499 124.485  0.00  0.00    +0.000 A 
ATOM     13  C   UNL     1      -6.119  -2.061 123.222  0.00  0.00    +0.000 A 
ATOM     14  C   UNL     1      -6.700  -0.794 123.084  0.00  0.00    +0.000 A 
ATOM     15  C   UNL     1      -6.908   0.043 124.202  0.00  0.00    +0.000 A 
ATOM     16  C   UNL     1      -6.533  -0.393 125.467  0.00  0.00    +0.000 A 
ENDROOT
BRANCH   2  17
ATOM     17  C   UNL     1      -8.862   4.123 129.801  0.00  0.00    +0.000 A 
ATOM     18  C   UNL     1      -9.079   3.452 130.998  0.00  0.00    +0.000 A 
ATOM     19  N   UNL     1     -10.019   4.129 131.738  0.00  0.00    +0.000 N 
ATOM     20  C   UNL     1     -10.457   5.238 131.055  0.00  0.00    +0.000 A 
ATOM     21  C   UNL     1     -11.445   6.180 131.401  0.00  0.00    +0.000 A 
ATOM     22  C   UNL     1     -11.699   7.210 130.495  0.00  0.00    +0.000 A 
ATOM     23 CL   UNL     1     -12.958   8.342 130.827  0.00  0.00    +0.000 Cl
ATOM     24  C   UNL     1     -10.963   7.327 129.320  0.00  0.00    +0.000 A 
ATOM     25  C   UNL     1      -9.959   6.393 129.009  0.00  0.00    +0.000 A 
ATOM     26  C   UNL     1      -9.717   5.296 129.866  0.00  0.00    +0.000 A 
ATOM     27  H   UNL     1     -10.357   3.856 132.652  0.00  0.00    +0.000 HD
ENDBRANCH   2  17
TORSDOF 1
ENDMDL
MODEL 8
REMARK VINA RESULT:      -8.0      4.960      7.846
REMARK  Name = CHEMBL3416861
REMARK  1 active torsions:
REMARK  status: ('A' for Active; 'I' for Inactive)
REMARK    1  A    between atoms: C_2  and  C_3
REMARK                            x       y       z     vdW  Elec       q    Type
REMARK                         _______ _______ _______ _____ _____    ______ ____
ROOT
ATOM      1  O   UNL     1      -8.257   1.864 125.533  0.00  0.00    +0.000 OA
ATOM      2  C   UNL     1      -7.792   0.963 126.240  0.00  0.00    +0.000 C 
ATOM      3  N   UNL     1      -7.215   1.256 127.493  0.00  0.00    +0.000 N 
ATOM      4  C   UNL     1      -5.931   0.727 127.946  0.00  0.00    +0.000 C 
ATOM      5  C   UNL     1      -4.824   1.825 127.927  0.00  0.00    +0.000 C 
ATOM      6  C   UNL     1      -5.206   3.107 128.730  0.00  0.00    +0.000 C 
ATOM      7  C   UNL     1      -6.613   3.572 128.266  0.00  0.00    +0.000 C 
ATOM      8  C   UNL     1      -7.643   2.423 128.262  0.00  0.00    +0.000 C 
ATOM      9  O   UNL     1      -5.288   2.739 130.150  0.00  0.00    +0.000 OA
ATOM     10  C   UNL     1      -4.385   3.529 130.964  0.00  0.00    +0.000 C 
ATOM     11  C   UNL     1      -3.692   4.435 130.025  0.00  0.00    +0.000 A 
ATOM     12  C   UNL     1      -2.722   5.390 130.339  0.00  0.00    +0.000 A 
ATOM     13  C   UNL     1      -2.190   6.157 129.309  0.00  0.00    +0.000 A 
ATOM     14  C   UNL     1      -2.643   5.954 127.999  0.00  0.00    +0.000 A 
ATOM     15  C   UNL     1      -3.625   4.983 127.706  0.00  0.00    +0.000 A 
ATOM     16  C   UNL     1      -4.154   4.208 128.731  0.00  0.00    +0.000 A 
ENDROOT
BRANCH   2  17
ATOM     17  C   UNL     1      -7.950  -0.455 125.823  0.00  0.00    +0.000 A 
ATOM     18  C   UNL     1      -9.143  -1.167 125.817  0.00  0.00    +0.000 A 
ATOM     19  N   UNL     1      -8.930  -2.409 125.269  0.00  0.00    +0.000 N 
ATOM     20  C   UNL     1      -7.609  -2.558 124.919  0.00  0.00    +0.000 A 
ATOM     21  C   UNL     1      -6.937  -3.673 124.383  0.00  0.00    +0.000 A 
ATOM     22  C   UNL     1      -5.569  -3.546 124.140  0.00  0.00    +0.000 A 
ATOM     23 CL   UNL     1      -4.678  -4.907 123.566  0.00  0.00    +0.000 Cl
ATOM     24  C   UNL     1      -4.911  -2.342 124.370  0.00  0.00    +0.000 A 
ATOM     25  C   UNL     1      -5.608  -1.230 124.876  0.00  0.00    +0.000 A 
ATOM     26  C   UNL     1      -6.980  -1.338 125.202  0.00  0.00    +0.000 A 
ATOM     27  H   UNL     1      -9.634  -3.126 125.143  0.00  0.00    +0.000 HD
ENDBRANCH   2  17
TORSDOF 1
ENDMDL
MODEL 9
REMARK VINA RESULT:      -8.0      7.413     10.262
REMARK  Name = CHEMBL3416861
REMARK  1 active torsions:
REMARK  status: ('A' for Active; 'I' for Inactive)
REMARK    1  A    between atoms: C_2  and  C_3
REMARK                            x       y       z     vdW  Elec       q    Type
REMARK                         _______ _______ _______ _____ _____    ______ ____
ROOT
ATOM      1  O   UNL     1      -6.437   4.037 132.766  0.00  0.00    +0.000 OA
ATOM      2  C   UNL     1      -6.558   3.663 131.594  0.00  0.00    +0.000 C 
ATOM      3  N   UNL     1      -7.122   4.513 130.621  0.00  0.00    +0.000 N 
ATOM      4  C   UNL     1      -8.150   4.099 129.670  0.00  0.00    +0.000 C 
ATOM      5  C   UNL     1      -9.542   4.697 130.038  0.00  0.00    +0.000 C 
ATOM      6  C   UNL     1      -9.529   6.250 130.193  0.00  0.00    +0.000 C 
ATOM      7  C   UNL     1      -8.365   6.636 131.146  0.00  0.00    +0.000 C 
ATOM      8  C   UNL     1      -7.032   5.966 130.750  0.00  0.00    +0.000 C 
ATOM      9  O   UNL     1      -9.253   6.831 128.872  0.00  0.00    +0.000 OA
ATOM     10  C   UNL     1     -10.308   7.733 128.451  0.00  0.00    +0.000 C 
ATOM     11  C   UNL     1     -11.301   7.724 129.544  0.00  0.00    +0.000 A 
ATOM     12  C   UNL     1     -12.499   8.441 129.598  0.00  0.00    +0.000 A 
ATOM     13  C   UNL     1     -13.302   8.304 130.725  0.00  0.00    +0.000 A 
ATOM     14  C   UNL     1     -12.886   7.462 131.764  0.00  0.00    +0.000 A 
ATOM     15  C   UNL     1     -11.671   6.748 131.687  0.00  0.00    +0.000 A 
ATOM     16  C   UNL     1     -10.868   6.875 130.560  0.00  0.00    +0.000 A 
ENDROOT
BRANCH   2  17
ATOM     17  C   UNL     1      -5.993   2.353 131.179  0.00  0.00    +0.000 A 
ATOM     18  C   UNL     1      -4.645   2.079 130.981  0.00  0.00    +0.000 A 
ATOM     19  N   UNL     1      -4.485   0.741 130.711  0.00  0.00    +0.000 N 
ATOM     20  C   UNL     1      -5.704   0.106 130.705  0.00  0.00    +0.000 A 
ATOM     21  C   UNL     1      -6.021  -1.237 130.422  0.00  0.00    +0.000 A 
ATOM     22  C   UNL     1      -7.365  -1.607 130.474  0.00  0.00    +0.000 A 
ATOM     23 CL   UNL     1      -7.820  -3.217 130.052  0.00  0.00    +0.000 Cl
ATOM     24  C   UNL     1      -8.344  -0.692 130.844  0.00  0.00    +0.000 A 
ATOM     25  C   UNL     1      -8.003   0.637 131.154  0.00  0.00    +0.000 A 
ATOM     26  C   UNL     1      -6.662   1.070 131.046  0.00  0.00    +0.000 A 
ATOM     27  H   UNL     1      -3.604   0.278 130.532  0.00  0.00    +0.000 HD
ENDBRANCH   2  17
TORSDOF 1
ENDMDL
