MODEL 1
REMARK VINA RESULT:      -9.2      0.000      0.000
REMARK  Name = CHEMBL287293
REMARK  3 active torsions:
REMARK  status: ('A' for Active; 'I' for Inactive)
REMARK    1  A    between atoms: C_1  and  N_2
REMARK    2  A    between atoms: C_7  and  C_8
REMARK    3  A    between atoms: C_13  and  N_14
REMARK                            x       y       z     vdW  Elec       q    Type
REMARK                         _______ _______ _______ _____ _____    ______ ____
ROOT
ATOM      1  C   UNL     1      -6.920   4.376 133.813  0.00  0.00    +0.000 C 
ATOM      2  O   UNL     1      -6.321   3.311 133.694  0.00  0.00    +0.000 OA
ATOM      3  N   UNL     1      -7.815   4.817 132.843  0.00  0.00    +0.000 N 
ATOM      4  C   UNL     1      -9.050   4.089 132.532  0.00  0.00    +0.000 C 
ATOM      5  C   UNL     1      -9.274   3.997 131.028  0.00  0.00    +0.000 C 
ATOM      6  C   UNL     1      -9.158   5.381 130.350  0.00  0.00    +0.000 C 
ATOM      7  C   UNL     1      -7.812   6.027 130.704  0.00  0.00    +0.000 C 
ATOM      8  C   UNL     1      -7.587   6.098 132.196  0.00  0.00    +0.000 C 
ENDROOT
BRANCH   6   9
ATOM      9  N   UNL     1     -10.374   6.239 130.559  0.00  0.00    +0.000 N 
ATOM     10  C   UNL     1     -11.002   6.430 131.792  0.00  0.00    +0.000 C 
ATOM     11  O   UNL     1     -10.493   6.677 132.878  0.00  0.00    +0.000 OA
ATOM     12  O   UNL     1     -12.344   6.243 131.742  0.00  0.00    +0.000 OA
ATOM     13  C   UNL     1     -12.953   7.279 131.005  0.00  0.00    +0.000 C 
ATOM     14  C   UNL     1     -12.285   7.446 129.677  0.00  0.00    +0.000 A 
ATOM     15  C   UNL     1     -12.938   8.174 128.681  0.00  0.00    +0.000 A 
ATOM     16  C   UNL     1     -12.324   8.363 127.452  0.00  0.00    +0.000 A 
ATOM     17  C   UNL     1     -11.057   7.835 127.222  0.00  0.00    +0.000 A 
ATOM     18  C   UNL     1     -10.398   7.105 128.217  0.00  0.00    +0.000 A 
ATOM     19  C   UNL     1     -11.007   6.898 129.457  0.00  0.00    +0.000 A 
ENDBRANCH   6   9
BRANCH   1  26
ATOM     20  C   UNL     1      -5.190   8.426 138.921  0.00  0.00    +0.000 C 
ATOM     21  N   UNL     1      -6.324   7.759 138.320  0.00  0.00    +0.000 N 
ATOM     22  C   UNL     1      -7.606   7.797 138.798  0.00  0.00    +0.000 A 
ATOM     23  C   UNL     1      -8.384   7.003 137.981  0.00  0.00    +0.000 A 
ATOM     24  C   UNL     1      -7.549   6.466 136.960  0.00  0.00    +0.000 A 
ATOM     25  C   UNL     1      -7.761   5.599 135.858  0.00  0.00    +0.000 A 
ATOM     26  C   UNL     1      -6.689   5.270 135.009  0.00  0.00    +0.000 A 
ATOM     27  C   UNL     1      -5.432   5.834 135.261  0.00  0.00    +0.000 A 
ATOM     28  C   UNL     1      -5.189   6.664 136.356  0.00  0.00    +0.000 A 
ATOM     29  C   UNL     1      -6.265   6.970 137.190  0.00  0.00    +0.000 A 
ENDBRANCH   1  26
TORSDOF 2
ENDMDL
MODEL 2
REMARK VINA RESULT:      -8.9      6.742     11.581
REMARK  Name = CHEMBL287293
REMARK  3 active torsions:
REMARK  status: ('A' for Active; 'I' for Inactive)
REMARK    1  A    between atoms: C_1  and  N_2
REMARK    2  A    between atoms: C_7  and  C_8
REMARK    3  A    between atoms: C_13  and  N_14
REMARK                            x       y       z     vdW  Elec       q    Type
REMARK                         _______ _______ _______ _____ _____    ______ ____
ROOT
ATOM      1  C   UNL     1      -7.646   1.934 124.914  0.00  0.00    +0.000 C 
ATOM      2  O   UNL     1      -8.272   0.896 125.111  0.00  0.00    +0.000 OA
ATOM      3  N   UNL     1      -7.015   2.608 125.955  0.00  0.00    +0.000 N 
ATOM      4  C   UNL     1      -5.908   2.014 126.712  0.00  0.00    +0.000 C 
ATOM      5  C   UNL     1      -6.067   2.255 128.207  0.00  0.00    +0.000 C 
ATOM      6  C   UNL     1      -6.328   3.747 128.518  0.00  0.00    +0.000 C 
ATOM      7  C   UNL     1      -7.533   4.247 127.711  0.00  0.00    +0.000 C 
ATOM      8  C   UNL     1      -7.377   3.988 126.231  0.00  0.00    +0.000 C 
ENDROOT
BRANCH   6   9
ATOM      9  N   UNL     1      -5.085   4.588 128.434  0.00  0.00    +0.000 N 
ATOM     10  C   UNL     1      -4.183   4.558 127.368  0.00  0.00    +0.000 C 
ATOM     11  O   UNL     1      -4.420   4.573 126.166  0.00  0.00    +0.000 OA
ATOM     12  O   UNL     1      -2.893   4.428 127.764  0.00  0.00    +0.000 OA
ATOM     13  C   UNL     1      -2.460   5.607 128.405  0.00  0.00    +0.000 C 
ATOM     14  C   UNL     1      -3.419   6.005 129.482  0.00  0.00    +0.000 A 
ATOM     15  C   UNL     1      -3.008   6.933 130.441  0.00  0.00    +0.000 A 
ATOM     16  C   UNL     1      -3.890   7.335 131.432  0.00  0.00    +0.000 A 
ATOM     17  C   UNL     1      -5.183   6.819 131.460  0.00  0.00    +0.000 A 
ATOM     18  C   UNL     1      -5.600   5.890 130.501  0.00  0.00    +0.000 A 
ATOM     19  C   UNL     1      -4.720   5.467 129.502  0.00  0.00    +0.000 A 
ENDBRANCH   6   9
BRANCH   1  26
ATOM     20  C   UNL     1      -7.981   4.526 118.697  0.00  0.00    +0.000 C 
ATOM     21  N   UNL     1      -7.075   4.317 119.804  0.00  0.00    +0.000 N 
ATOM     22  C   UNL     1      -5.751   4.664 119.817  0.00  0.00    +0.000 A 
ATOM     23  C   UNL     1      -5.221   4.259 121.025  0.00  0.00    +0.000 A 
ATOM     24  C   UNL     1      -6.261   3.649 121.782  0.00  0.00    +0.000 A 
ATOM     25  C   UNL     1      -6.333   3.048 123.065  0.00  0.00    +0.000 A 
ATOM     26  C   UNL     1      -7.559   2.541 123.533  0.00  0.00    +0.000 A 
ATOM     27  C   UNL     1      -8.694   2.667 122.722  0.00  0.00    +0.000 A 
ATOM     28  C   UNL     1      -8.644   3.224 121.444  0.00  0.00    +0.000 A 
ATOM     29  C   UNL     1      -7.416   3.713 120.997  0.00  0.00    +0.000 A 
ENDBRANCH   1  26
TORSDOF 2
ENDMDL
MODEL 3
REMARK VINA RESULT:      -8.7      3.678      8.070
REMARK  Name = CHEMBL287293
REMARK  3 active torsions:
REMARK  status: ('A' for Active; 'I' for Inactive)
REMARK    1  A    between atoms: C_1  and  N_2
REMARK    2  A    between atoms: C_7  and  C_8
REMARK    3  A    between atoms: C_13  and  N_14
REMARK                            x       y       z     vdW  Elec       q    Type
REMARK                         _______ _______ _______ _____ _____    ______ ____
ROOT
ATOM      1  C   UNL     1      -9.085   4.882 131.445  0.00  0.00    +0.000 C 
ATOM      2  O   UNL     1      -9.558   4.018 132.178  0.00  0.00    +0.000 OA
ATOM      3  N   UNL     1      -7.709   5.041 131.307  0.00  0.00    +0.000 N 
ATOM      4  C   UNL     1      -6.857   3.998 130.726  0.00  0.00    +0.000 C 
ATOM      5  C   UNL     1      -5.578   3.814 131.533  0.00  0.00    +0.000 C 
ATOM      6  C   UNL     1      -4.863   5.163 131.778  0.00  0.00    +0.000 C 
ATOM      7  C   UNL     1      -5.831   6.158 132.430  0.00  0.00    +0.000 C 
ATOM      8  C   UNL     1      -7.105   6.321 131.636  0.00  0.00    +0.000 C 
ENDROOT
BRANCH   6   9
ATOM      9  N   UNL     1      -4.123   5.662 130.568  0.00  0.00    +0.000 N 
ATOM     10  C   UNL     1      -3.803   7.001 130.337  0.00  0.00    +0.000 C 
ATOM     11  O   UNL     1      -3.325   7.818 131.115  0.00  0.00    +0.000 OA
ATOM     12  O   UNL     1      -4.145   7.425 129.095  0.00  0.00    +0.000 OA
ATOM     13  C   UNL     1      -3.318   6.815 128.129  0.00  0.00    +0.000 C 
ATOM     14  C   UNL     1      -3.299   5.331 128.311  0.00  0.00    +0.000 A 
ATOM     15  C   UNL     1      -2.822   4.530 127.272  0.00  0.00    +0.000 A 
ATOM     16  C   UNL     1      -2.771   3.154 127.430  0.00  0.00    +0.000 A 
ATOM     17  C   UNL     1      -3.185   2.579 128.629  0.00  0.00    +0.000 A 
ATOM     18  C   UNL     1      -3.663   3.376 129.674  0.00  0.00    +0.000 A 
ATOM     19  C   UNL     1      -3.730   4.765 129.526  0.00  0.00    +0.000 A 
ENDBRANCH   6   9
BRANCH   1  26
ATOM     20  C   UNL     1     -13.395   9.273 128.684  0.00  0.00    +0.000 C 
ATOM     21  N   UNL     1     -12.258   8.434 128.375  0.00  0.00    +0.000 N 
ATOM     22  C   UNL     1     -11.690   8.299 127.137  0.00  0.00    +0.000 A 
ATOM     23  C   UNL     1     -10.667   7.379 127.241  0.00  0.00    +0.000 A 
ATOM     24  C   UNL     1     -10.601   6.942 128.595  0.00  0.00    +0.000 A 
ATOM     25  C   UNL     1      -9.783   6.024 129.302  0.00  0.00    +0.000 A 
ATOM     26  C   UNL     1      -9.979   5.831 130.682  0.00  0.00    +0.000 A 
ATOM     27  C   UNL     1     -10.969   6.577 131.333  0.00  0.00    +0.000 A 
ATOM     28  C   UNL     1     -11.808   7.462 130.656  0.00  0.00    +0.000 A 
ATOM     29  C   UNL     1     -11.601   7.632 129.286  0.00  0.00    +0.000 A 
ENDBRANCH   1  26
TORSDOF 2
ENDMDL
MODEL 4
REMARK VINA RESULT:      -8.6      9.903     10.890
REMARK  Name = CHEMBL287293
REMARK  3 active torsions:
REMARK  status: ('A' for Active; 'I' for Inactive)
REMARK    1  A    between atoms: C_1  and  N_2
REMARK    2  A    between atoms: C_7  and  C_8
REMARK    3  A    between atoms: C_13  and  N_14
REMARK                            x       y       z     vdW  Elec       q    Type
REMARK                         _______ _______ _______ _____ _____    ______ ____
ROOT
ATOM      1  C   UNL     1      -8.922  -1.965 126.110  0.00  0.00    +0.000 C 
ATOM      2  O   UNL     1     -10.005  -2.481 125.848  0.00  0.00    +0.000 OA
ATOM      3  N   UNL     1      -8.427  -0.901 125.363  0.00  0.00    +0.000 N 
ATOM      4  C   UNL     1      -9.102   0.401 125.316  0.00  0.00    +0.000 C 
ATOM      5  C   UNL     1      -9.152   0.947 123.894  0.00  0.00    +0.000 C 
ATOM      6  C   UNL     1      -7.757   0.924 123.228  0.00  0.00    +0.000 C 
ATOM      7  C   UNL     1      -7.169  -0.491 123.292  0.00  0.00    +0.000 C 
ATOM      8  C   UNL     1      -7.140  -1.035 124.701  0.00  0.00    +0.000 C 
ENDROOT
BRANCH   6   9
ATOM      9  N   UNL     1      -6.861   2.032 123.707  0.00  0.00    +0.000 N 
ATOM     10  C   UNL     1      -6.609   2.317 125.052  0.00  0.00    +0.000 C 
ATOM     11  O   UNL     1      -6.337   1.540 125.959  0.00  0.00    +0.000 OA
ATOM     12  O   UNL     1      -6.764   3.629 125.358  0.00  0.00    +0.000 OA
ATOM     13  C   UNL     1      -5.739   4.391 124.760  0.00  0.00    +0.000 C 
ATOM     14  C   UNL     1      -5.637   4.086 123.299  0.00  0.00    +0.000 A 
ATOM     15  C   UNL     1      -4.928   4.962 122.476  0.00  0.00    +0.000 A 
ATOM     16  C   UNL     1      -4.799   4.684 121.123  0.00  0.00    +0.000 A 
ATOM     17  C   UNL     1      -5.368   3.528 120.597  0.00  0.00    +0.000 A 
ATOM     18  C   UNL     1      -6.079   2.646 121.417  0.00  0.00    +0.000 A 
ATOM     19  C   UNL     1      -6.226   2.917 122.780  0.00  0.00    +0.000 A 
ENDBRANCH   6   9
BRANCH   1  26
ATOM     20  C   UNL     1      -5.661  -4.724 131.329  0.00  0.00    +0.000 C 
ATOM     21  N   UNL     1      -5.487  -3.809 130.223  0.00  0.00    +0.000 N 
ATOM     22  C   UNL     1      -4.341  -3.112 129.947  0.00  0.00    +0.000 A 
ATOM     23  C   UNL     1      -4.587  -2.316 128.848  0.00  0.00    +0.000 A 
ATOM     24  C   UNL     1      -5.929  -2.540 128.430  0.00  0.00    +0.000 A 
ATOM     25  C   UNL     1      -6.744  -2.025 127.389  0.00  0.00    +0.000 A 
ATOM     26  C   UNL     1      -8.065  -2.485 127.240  0.00  0.00    +0.000 A 
ATOM     27  C   UNL     1      -8.538  -3.469 128.117  0.00  0.00    +0.000 A 
ATOM     28  C   UNL     1      -7.770  -3.969 129.168  0.00  0.00    +0.000 A 
ATOM     29  C   UNL     1      -6.465  -3.492 129.302  0.00  0.00    +0.000 A 
ENDBRANCH   1  26
TORSDOF 2
ENDMDL
MODEL 5
REMARK VINA RESULT:      -8.6      3.192      8.388
REMARK  Name = CHEMBL287293
REMARK  3 active torsions:
REMARK  status: ('A' for Active; 'I' for Inactive)
REMARK    1  A    between atoms: C_1  and  N_2
REMARK    2  A    between atoms: C_7  and  C_8
REMARK    3  A    between atoms: C_13  and  N_14
REMARK                            x       y       z     vdW  Elec       q    Type
REMARK                         _______ _______ _______ _____ _____    ______ ____
ROOT
ATOM      1  C   UNL     1      -9.223   4.405 131.562  0.00  0.00    +0.000 C 
ATOM      2  O   UNL     1      -9.779   3.403 132.005  0.00  0.00    +0.000 OA
ATOM      3  N   UNL     1      -7.856   4.607 131.727  0.00  0.00    +0.000 N 
ATOM      4  C   UNL     1      -6.857   3.715 131.128  0.00  0.00    +0.000 C 
ATOM      5  C   UNL     1      -5.744   3.389 132.116  0.00  0.00    +0.000 C 
ATOM      6  C   UNL     1      -5.158   4.670 132.754  0.00  0.00    +0.000 C 
ATOM      7  C   UNL     1      -6.282   5.499 133.390  0.00  0.00    +0.000 C 
ATOM      8  C   UNL     1      -7.392   5.802 132.411  0.00  0.00    +0.000 C 
ENDROOT
BRANCH   6   9
ATOM      9  N   UNL     1      -4.233   5.413 131.833  0.00  0.00    +0.000 N 
ATOM     10  C   UNL     1      -4.523   5.719 130.501  0.00  0.00    +0.000 C 
ATOM     11  O   UNL     1      -5.557   6.180 130.032  0.00  0.00    +0.000 OA
ATOM     12  O   UNL     1      -3.527   5.382 129.646  0.00  0.00    +0.000 OA
ATOM     13  C   UNL     1      -2.413   6.224 129.843  0.00  0.00    +0.000 C 
ATOM     14  C   UNL     1      -2.026   6.260 131.287  0.00  0.00    +0.000 A 
ATOM     15  C   UNL     1      -0.768   6.755 131.636  0.00  0.00    +0.000 A 
ATOM     16  C   UNL     1      -0.401   6.822 132.971  0.00  0.00    +0.000 A 
ATOM     17  C   UNL     1      -1.291   6.405 133.956  0.00  0.00    +0.000 A 
ATOM     18  C   UNL     1      -2.553   5.909 133.613  0.00  0.00    +0.000 A 
ATOM     19  C   UNL     1      -2.935   5.826 132.271  0.00  0.00    +0.000 A 
ENDBRANCH   6   9
BRANCH   1  26
ATOM     20  C   UNL     1     -13.058   9.319 128.989  0.00  0.00    +0.000 C 
ATOM     21  N   UNL     1     -11.976   8.418 128.659  0.00  0.00    +0.000 N 
ATOM     22  C   UNL     1     -11.365   8.332 127.438  0.00  0.00    +0.000 A 
ATOM     23  C   UNL     1     -10.421   7.329 127.509  0.00  0.00    +0.000 A 
ATOM     24  C   UNL     1     -10.449   6.787 128.826  0.00  0.00    +0.000 A 
ATOM     25  C   UNL     1      -9.736   5.757 129.490  0.00  0.00    +0.000 A 
ATOM     26  C   UNL     1     -10.007   5.476 130.842  0.00  0.00    +0.000 A 
ATOM     27  C   UNL     1     -10.966   6.248 131.511  0.00  0.00    +0.000 A 
ATOM     28  C   UNL     1     -11.704   7.245 130.872  0.00  0.00    +0.000 A 
ATOM     29  C   UNL     1     -11.424   7.500 129.529  0.00  0.00    +0.000 A 
ENDBRANCH   1  26
TORSDOF 2
ENDMDL
MODEL 6
REMARK VINA RESULT:      -8.5      5.774      8.269
REMARK  Name = CHEMBL287293
REMARK  3 active torsions:
REMARK  status: ('A' for Active; 'I' for Inactive)
REMARK    1  A    between atoms: C_1  and  N_2
REMARK    2  A    between atoms: C_7  and  C_8
REMARK    3  A    between atoms: C_13  and  N_14
REMARK                            x       y       z     vdW  Elec       q    Type
REMARK                         _______ _______ _______ _____ _____    ______ ____
ROOT
ATOM      1  C   UNL     1      -7.791   3.545 129.131  0.00  0.00    +0.000 C 
ATOM      2  O   UNL     1      -7.198   2.908 129.998  0.00  0.00    +0.000 OA
ATOM      3  N   UNL     1      -7.440   3.440 127.789  0.00  0.00    +0.000 N 
ATOM      4  C   UNL     1      -7.573   2.185 127.042  0.00  0.00    +0.000 C 
ATOM      5  C   UNL     1      -6.347   1.922 126.177  0.00  0.00    +0.000 C 
ATOM      6  C   UNL     1      -5.992   3.150 125.308  0.00  0.00    +0.000 C 
ATOM      7  C   UNL     1      -5.829   4.391 126.195  0.00  0.00    +0.000 C 
ATOM      8  C   UNL     1      -7.040   4.635 127.064  0.00  0.00    +0.000 C 
ENDROOT
BRANCH   6   9
ATOM      9  N   UNL     1      -6.896   3.306 124.117  0.00  0.00    +0.000 N 
ATOM     10  C   UNL     1      -8.272   3.063 124.135  0.00  0.00    +0.000 C 
ATOM     11  O   UNL     1      -9.100   3.422 124.964  0.00  0.00    +0.000 OA
ATOM     12  O   UNL     1      -8.687   2.267 123.119  0.00  0.00    +0.000 OA
ATOM     13  C   UNL     1      -8.585   2.954 121.891  0.00  0.00    +0.000 C 
ATOM     14  C   UNL     1      -7.218   3.538 121.724  0.00  0.00    +0.000 A 
ATOM     15  C   UNL     1      -6.814   3.958 120.455  0.00  0.00    +0.000 A 
ATOM     16  C   UNL     1      -5.562   4.526 120.284  0.00  0.00    +0.000 A 
ATOM     17  C   UNL     1      -4.717   4.685 121.379  0.00  0.00    +0.000 A 
ATOM     18  C   UNL     1      -5.117   4.267 122.653  0.00  0.00    +0.000 A 
ATOM     19  C   UNL     1      -6.372   3.683 122.841  0.00  0.00    +0.000 A 
ENDBRANCH   6   9
BRANCH   1  26
ATOM     20  C   UNL     1     -12.971   7.300 131.264  0.00  0.00    +0.000 C 
ATOM     21  N   UNL     1     -11.864   7.296 130.333  0.00  0.00    +0.000 N 
ATOM     22  C   UNL     1     -11.578   8.297 129.443  0.00  0.00    +0.000 A 
ATOM     23  C   UNL     1     -10.482   7.902 128.704  0.00  0.00    +0.000 A 
ATOM     24  C   UNL     1     -10.078   6.616 129.164  0.00  0.00    +0.000 A 
ATOM     25  C   UNL     1      -9.047   5.712 128.802  0.00  0.00    +0.000 A 
ATOM     26  C   UNL     1      -8.911   4.492 129.490  0.00  0.00    +0.000 A 
ATOM     27  C   UNL     1      -9.791   4.211 130.542  0.00  0.00    +0.000 A 
ATOM     28  C   UNL     1     -10.834   5.068 130.897  0.00  0.00    +0.000 A 
ATOM     29  C   UNL     1     -10.954   6.268 130.196  0.00  0.00    +0.000 A 
ENDBRANCH   1  26
TORSDOF 2
ENDMDL
MODEL 7
REMARK VINA RESULT:      -8.4      5.198      8.614
REMARK  Name = CHEMBL287293
REMARK  3 active torsions:
REMARK  status: ('A' for Active; 'I' for Inactive)
REMARK    1  A    between atoms: C_1  and  N_2
REMARK    2  A    between atoms: C_7  and  C_8
REMARK    3  A    between atoms: C_13  and  N_14
REMARK                            x       y       z     vdW  Elec       q    Type
REMARK                         _______ _______ _______ _____ _____    ______ ____
ROOT
ATOM      1  C   UNL     1      -8.492   3.323 130.928  0.00  0.00    +0.000 C 
ATOM      2  O   UNL     1      -8.081   3.354 132.085  0.00  0.00    +0.000 OA
ATOM      3  N   UNL     1      -8.027   2.377 130.020  0.00  0.00    +0.000 N 
ATOM      4  C   UNL     1      -8.257   0.940 130.202  0.00  0.00    +0.000 C 
ATOM      5  C   UNL     1      -6.999   0.136 129.902  0.00  0.00    +0.000 C 
ATOM      6  C   UNL     1      -6.393   0.518 128.532  0.00  0.00    +0.000 C 
ATOM      7  C   UNL     1      -6.150   2.032 128.471  0.00  0.00    +0.000 C 
ATOM      8  C   UNL     1      -7.397   2.824 128.789  0.00  0.00    +0.000 C 
ENDROOT
BRANCH   6   9
ATOM      9  N   UNL     1      -7.145  -0.074 127.373  0.00  0.00    +0.000 N 
ATOM     10  C   UNL     1      -7.319   0.558 126.140  0.00  0.00    +0.000 C 
ATOM     11  O   UNL     1      -6.486   1.142 125.457  0.00  0.00    +0.000 OA
ATOM     12  O   UNL     1      -8.607   0.556 125.716  0.00  0.00    +0.000 OA
ATOM     13  C   UNL     1      -9.001  -0.752 125.367  0.00  0.00    +0.000 C 
ATOM     14  C   UNL     1      -8.695  -1.709 126.476  0.00  0.00    +0.000 A 
ATOM     15  C   UNL     1      -9.303  -2.966 126.468  0.00  0.00    +0.000 A 
ATOM     16  C   UNL     1      -9.013  -3.878 127.471  0.00  0.00    +0.000 A 
ATOM     17  C   UNL     1      -8.109  -3.539 128.474  0.00  0.00    +0.000 A 
ATOM     18  C   UNL     1      -7.497  -2.281 128.486  0.00  0.00    +0.000 A 
ATOM     19  C   UNL     1      -7.786  -1.348 127.488  0.00  0.00    +0.000 A 
ENDBRANCH   6   9
BRANCH   1  26
ATOM     20  C   UNL     1     -13.513   7.322 128.859  0.00  0.00    +0.000 C 
ATOM     21  N   UNL     1     -12.087   7.305 129.102  0.00  0.00    +0.000 N 
ATOM     22  C   UNL     1     -11.235   8.353 128.882  0.00  0.00    +0.000 A 
ATOM     23  C   UNL     1      -9.958   7.931 129.188  0.00  0.00    +0.000 A 
ATOM     24  C   UNL     1     -10.032   6.576 129.619  0.00  0.00    +0.000 A 
ATOM     25  C   UNL     1      -9.079   5.618 130.050  0.00  0.00    +0.000 A 
ATOM     26  C   UNL     1      -9.501   4.332 130.432  0.00  0.00    +0.000 A 
ATOM     27  C   UNL     1     -10.870   4.035 130.401  0.00  0.00    +0.000 A 
ATOM     28  C   UNL     1     -11.824   4.947 129.951  0.00  0.00    +0.000 A 
ATOM     29  C   UNL     1     -11.382   6.214 129.569  0.00  0.00    +0.000 A 
ENDBRANCH   1  26
TORSDOF 2
ENDMDL
MODEL 8
REMARK VINA RESULT:      -8.3      6.774      8.725
REMARK  Name = CHEMBL287293
REMARK  3 active torsions:
REMARK  status: ('A' for Active; 'I' for Inactive)
REMARK    1  A    between atoms: C_1  and  N_2
REMARK    2  A    between atoms: C_7  and  C_8
REMARK    3  A    between atoms: C_13  and  N_14
REMARK                            x       y       z     vdW  Elec       q    Type
REMARK                         _______ _______ _______ _____ _____    ______ ____
ROOT
ATOM      1  C   UNL     1      -7.682  -1.163 131.720  0.00  0.00    +0.000 C 
ATOM      2  O   UNL     1      -7.614  -2.053 132.564  0.00  0.00    +0.000 OA
ATOM      3  N   UNL     1      -7.438  -1.422 130.375  0.00  0.00    +0.000 N 
ATOM      4  C   UNL     1      -8.291  -2.317 129.585  0.00  0.00    +0.000 C 
ATOM      5  C   UNL     1      -7.458  -3.247 128.711  0.00  0.00    +0.000 C 
ATOM      6  C   UNL     1      -6.413  -2.463 127.884  0.00  0.00    +0.000 C 
ATOM      7  C   UNL     1      -5.549  -1.601 128.813  0.00  0.00    +0.000 C 
ATOM      8  C   UNL     1      -6.381  -0.696 129.691  0.00  0.00    +0.000 C 
ENDROOT
BRANCH   6   9
ATOM      9  N   UNL     1      -7.013  -1.756 126.701  0.00  0.00    +0.000 N 
ATOM     10  C   UNL     1      -8.036  -0.808 126.783  0.00  0.00    +0.000 C 
ATOM     11  O   UNL     1      -8.138   0.139 127.554  0.00  0.00    +0.000 OA
ATOM     12  O   UNL     1      -9.056  -1.047 125.924  0.00  0.00    +0.000 OA
ATOM     13  C   UNL     1      -8.636  -0.825 124.596  0.00  0.00    +0.000 C 
ATOM     14  C   UNL     1      -7.374  -1.575 124.309  0.00  0.00    +0.000 A 
ATOM     15  C   UNL     1      -6.985  -1.756 122.980  0.00  0.00    +0.000 A 
ATOM     16  C   UNL     1      -5.805  -2.424 122.693  0.00  0.00    +0.000 A 
ATOM     17  C   UNL     1      -5.010  -2.902 123.731  0.00  0.00    +0.000 A 
ATOM     18  C   UNL     1      -5.394  -2.723 125.064  0.00  0.00    +0.000 A 
ATOM     19  C   UNL     1      -6.585  -2.059 125.370  0.00  0.00    +0.000 A 
ENDBRANCH   6   9
BRANCH   1  26
ATOM     20  C   UNL     1      -9.732   5.119 133.067  0.00  0.00    +0.000 C 
ATOM     21  N   UNL     1      -8.708   4.151 133.397  0.00  0.00    +0.000 N 
ATOM     22  C   UNL     1      -7.658   4.371 134.246  0.00  0.00    +0.000 A 
ATOM     23  C   UNL     1      -6.882   3.231 134.261  0.00  0.00    +0.000 A 
ATOM     24  C   UNL     1      -7.484   2.274 133.395  0.00  0.00    +0.000 A 
ATOM     25  C   UNL     1      -7.161   0.951 133.001  0.00  0.00    +0.000 A 
ATOM     26  C   UNL     1      -8.004   0.259 132.112  0.00  0.00    +0.000 A 
ATOM     27  C   UNL     1      -9.167   0.893 131.656  0.00  0.00    +0.000 A 
ATOM     28  C   UNL     1      -9.491   2.204 132.002  0.00  0.00    +0.000 A 
ATOM     29  C   UNL     1      -8.636   2.874 132.879  0.00  0.00    +0.000 A 
ENDBRANCH   1  26
TORSDOF 2
ENDMDL
MODEL 9
REMARK VINA RESULT:      -8.3      6.308     10.555
REMARK  Name = CHEMBL287293
REMARK  3 active torsions:
REMARK  status: ('A' for Active; 'I' for Inactive)
REMARK    1  A    between atoms: C_1  and  N_2
REMARK    2  A    between atoms: C_7  and  C_8
REMARK    3  A    between atoms: C_13  and  N_14
REMARK                            x       y       z     vdW  Elec       q    Type
REMARK                         _______ _______ _______ _____ _____    ______ ____
ROOT
ATOM      1  C   UNL     1      -6.946  -2.839 129.992  0.00  0.00    +0.000 C 
ATOM      2  O   UNL     1      -6.630  -3.866 130.588  0.00  0.00    +0.000 OA
ATOM      3  N   UNL     1      -6.966  -1.606 130.635  0.00  0.00    +0.000 N 
ATOM      4  C   UNL     1      -5.751  -0.987 131.176  0.00  0.00    +0.000 C 
ATOM      5  C   UNL     1      -5.998  -0.401 132.561  0.00  0.00    +0.000 C 
ATOM      6  C   UNL     1      -7.244   0.514 132.575  0.00  0.00    +0.000 C 
ATOM      7  C   UNL     1      -8.461  -0.248 132.036  0.00  0.00    +0.000 C 
ATOM      8  C   UNL     1      -8.203  -0.844 130.672  0.00  0.00    +0.000 C 
ENDROOT
BRANCH   6   9
ATOM      9  N   UNL     1      -6.988   1.862 131.962  0.00  0.00    +0.000 N 
ATOM     10  C   UNL     1      -6.426   2.060 130.699  0.00  0.00    +0.000 C 
ATOM     11  O   UNL     1      -6.701   1.499 129.645  0.00  0.00    +0.000 OA
ATOM     12  O   UNL     1      -5.404   2.951 130.702  0.00  0.00    +0.000 OA
ATOM     13  C   UNL     1      -5.893   4.251 130.948  0.00  0.00    +0.000 C 
ATOM     14  C   UNL     1      -6.755   4.268 132.170  0.00  0.00    +0.000 A 
ATOM     15  C   UNL     1      -7.054   5.494 132.767  0.00  0.00    +0.000 A 
ATOM     16  C   UNL     1      -7.874   5.535 133.884  0.00  0.00    +0.000 A 
ATOM     17  C   UNL     1      -8.402   4.354 134.399  0.00  0.00    +0.000 A 
ATOM     18  C   UNL     1      -8.106   3.123 133.805  0.00  0.00    +0.000 A 
ATOM     19  C   UNL     1      -7.274   3.064 132.684  0.00  0.00    +0.000 A 
ENDBRANCH   6   9
BRANCH   1  26
ATOM     20  C   UNL     1      -9.386  -3.355 123.726  0.00  0.00    +0.000 C 
ATOM     21  N   UNL     1      -8.296  -2.787 124.488  0.00  0.00    +0.000 N 
ATOM     22  C   UNL     1      -7.249  -2.078 123.963  0.00  0.00    +0.000 A 
ATOM     23  C   UNL     1      -6.399  -1.751 124.999  0.00  0.00    +0.000 A 
ATOM     24  C   UNL     1      -6.950  -2.272 126.204  0.00  0.00    +0.000 A 
ATOM     25  C   UNL     1      -6.546  -2.265 127.564  0.00  0.00    +0.000 A 
ATOM     26  C   UNL     1      -7.356  -2.878 128.538  0.00  0.00    +0.000 A 
ATOM     27  C   UNL     1      -8.565  -3.462 128.140  0.00  0.00    +0.000 A 
ATOM     28  C   UNL     1      -8.970  -3.511 126.806  0.00  0.00    +0.000 A 
ATOM     29  C   UNL     1      -8.147  -2.904 125.855  0.00  0.00    +0.000 A 
ENDBRANCH   1  26
TORSDOF 2
ENDMDL
