MODEL 1
REMARK VINA RESULT:     -10.2      0.000      0.000
REMARK  Name = CHEMBL395429
REMARK  23 active torsions:
REMARK  status: ('A' for Active; 'I' for Inactive)
REMARK    1  A    between atoms: C_1  and  C_2
REMARK    2  A    between atoms: C_2  and  C_3
REMARK    3  A    between atoms: C_3  and  C_4
REMARK    4  A    between atoms: C_3  and  C_5
REMARK    5  A    between atoms: C_9  and  C_10
REMARK    6  A    between atoms: C_10  and  C_11
REMARK    7  A    between atoms: C_14  and  O_15
REMARK    8  A    between atoms: C_21  and  N_22
REMARK    9  A    between atoms: C_27  and  C_28
REMARK   10  A    between atoms: C_34  and  C_35
REMARK   11  A    between atoms: N_37  and  C_38
REMARK   12  A    between atoms: C_38  and  C_39
REMARK   13  A    between atoms: C_38  and  C_43
REMARK   14  A    between atoms: C_39  and  C_40
REMARK   15  A    between atoms: C_40  and  C_41
REMARK   16  A    between atoms: C_40  and  C_42
REMARK   17  A    between atoms: N_45  and  C_46
REMARK   18  A    between atoms: C_46  and  C_47
REMARK   19  A    between atoms: C_53  and  C_54
REMARK   20  A    between atoms: C_54  and  C_55
REMARK   21  A    between atoms: C_61  and  C_62
REMARK   22  A    between atoms: C_62  and  C_63
REMARK   23  A    between atoms: C_63  and  C_64
REMARK                            x       y       z     vdW  Elec       q    Type
REMARK                         _______ _______ _______ _____ _____    ______ ____
ROOT
ATOM      1  C   UNL     1      -4.370   4.006 134.669  0.00  0.00    +0.000 C 
ATOM      2  N   UNL     1      -4.555   2.135 135.803  0.00  0.00    +0.000 N 
ATOM      3  C   UNL     1      -4.614   0.319 136.744  0.00  0.00    +0.000 C 
ATOM      4  O   UNL     1      -5.599  -0.447 137.580  0.00  0.00    +0.000 OA
ATOM      5  C   UNL     1      -4.073  -1.690 136.431  0.00  0.00    +0.000 C 
ATOM      6  N   UNL     1      -4.525  -2.771 135.250  0.00  0.00    +0.000 N 
ATOM      7  C   UNL     1      -5.488  -2.442 134.337  0.00  0.00    +0.000 C 
ATOM      8  O   UNL     1      -5.745  -3.106 133.341  0.00  0.00    +0.000 OA
ATOM      9  C   UNL     1      -6.293  -1.197 134.452  0.00  0.00    +0.000 C 
ATOM     10  C   UNL     1      -5.863  -0.080 133.606  0.00  0.00    +0.000 C 
ATOM     11  S   UNL     1      -6.759  -0.714 132.190  0.00  0.00    +0.000 S 
ATOM     12  S   UNL     1      -6.003   0.203 130.660  0.00  0.00    +0.000 S 
ATOM     13  C   UNL     1      -7.012   0.483 129.229  0.00  0.00    +0.000 C 
ATOM     14  C   UNL     1      -6.646   1.528 128.195  0.00  0.00    +0.000 C 
ATOM     15  N   UNL     1      -7.173   2.834 128.620  0.00  0.00    +0.000 N 
ATOM     16  C   UNL     1      -6.864   3.443 129.771  0.00  0.00    +0.000 C 
ATOM     17  O   UNL     1      -7.410   4.502 130.037  0.00  0.00    +0.000 OA
ATOM     18  C   UNL     1      -5.783   2.816 130.593  0.00  0.00    +0.000 C 
ATOM     19  N   UNL     1      -4.658   3.550 130.407  0.00  0.00    +0.000 N 
ATOM     20  C   UNL     1      -4.694   4.191 131.502  0.00  0.00    +0.000 C 
ATOM     21  O   UNL     1      -3.391   4.081 131.848  0.00  0.00    +0.000 OA
ATOM     22  C   UNL     1      -6.190   5.325 132.119  0.00  0.00    +0.000 C 
ATOM     23  N   UNL     1      -6.311   5.662 133.674  0.00  0.00    +0.000 N 
ATOM     24  C   UNL     1      -5.323   5.596 134.668  0.00  0.00    +0.000 C 
ATOM     25  O   UNL     1      -4.980   6.683 135.184  0.00  0.00    +0.000 OA
ATOM     26  H   UNL     1      -5.078   1.528 136.866  0.00  0.00    +0.000 HD
ATOM     27  H   UNL     1      -4.091  -3.728 135.006  0.00  0.00    +0.000 HD
ATOM     28  H   UNL     1      -7.890   3.301 128.066  0.00  0.00    +0.000 HD
ATOM     29  H   UNL     1      -3.645   3.380 130.287  0.00  0.00    +0.000 HD
ATOM     30  H   UNL     1      -6.845   4.979 134.101  0.00  0.00    +0.000 HD
ENDROOT
BRANCH  14  31
ATOM     31  C   UNL     1      -7.250   1.123 126.839  0.00  0.00    +0.000 C 
ATOM     32  O   UNL     1      -8.104   0.244 126.956  0.00  0.00    +0.000 OA
ATOM     33  N   UNL     1      -6.893   1.851 125.675  0.00  0.00    +0.000 N 
ATOM     34  C   UNL     1      -5.554   2.223 125.264  0.00  0.00    +0.000 C 
ATOM     35  C   UNL     1      -5.754   3.533 124.555  0.00  0.00    +0.000 C 
ATOM     36  C   UNL     1      -6.961   3.257 123.701  0.00  0.00    +0.000 C 
ATOM     37  C   UNL     1      -7.764   2.232 124.493  0.00  0.00    +0.000 C 
BRANCH  37  38
ATOM     38  C   UNL     1      -7.806   1.156 123.358  0.00  0.00    +0.000 C 
ATOM     39  O   UNL     1      -6.905   1.184 122.505  0.00  0.00    +0.000 OA
ATOM     40  N   UNL     1      -8.625   0.002 123.605  0.00  0.00    +0.000 N 
ATOM     41  H   UNL     1      -9.413   0.012 124.251  0.00  0.00    +0.000 HD
BRANCH  40  42
ATOM     42  C   UNL     1      -8.359  -1.332 122.952  0.00  0.00    +0.000 C 
BRANCH  42  43
ATOM     43  C   UNL     1      -8.950  -2.486 123.821  0.00  0.00    +0.000 C 
ATOM     44  O   UNL     1      -9.313  -3.532 123.282  0.00  0.00    +0.000 OA
ATOM     45  N   UNL     1      -9.050  -2.300 125.189  0.00  0.00    +0.000 N 
ATOM     46  H   UNL     1      -8.757  -1.441 125.619  0.00  0.00    +0.000 HD
BRANCH  45  47
ATOM     47  C   UNL     1      -9.583  -3.336 126.080  0.00  0.00    +0.000 C 
BRANCH  47  48
ATOM     48  C   UNL     1      -8.849  -3.453 127.433  0.00  0.00    +0.000 C 
ATOM     49  N   UNL     1      -7.665  -2.764 127.581  0.00  0.00    +0.000 N 
ATOM     50  O   UNL     1      -9.300  -4.135 128.351  0.00  0.00    +0.000 OA
ATOM     51  H   UNL     1      -7.228  -2.186 126.886  0.00  0.00    +0.000 HD
ATOM     52  H   UNL     1      -7.155  -2.818 128.456  0.00  0.00    +0.000 HD
ENDBRANCH  47  48
ENDBRANCH  45  47
ENDBRANCH  42  43
BRANCH  42  53
ATOM     53  C   UNL     1      -6.864  -1.632 122.693  0.00  0.00    +0.000 C 
BRANCH  53  54
ATOM     54  C   UNL     1      -6.188  -2.369 123.835  0.00  0.00    +0.000 C 
ATOM     55  C   UNL     1      -4.959  -3.054 123.380  0.00  0.00    +0.000 C 
ATOM     56  C   UNL     1      -5.501  -1.500 124.813  0.00  0.00    +0.000 C 
ENDBRANCH  53  54
ENDBRANCH  42  53
ENDBRANCH  40  42
ENDBRANCH  37  38
ENDBRANCH  14  31
BRANCH   9  57
ATOM     57  N   UNL     1      -6.008  -0.536 135.574  0.00  0.00    +0.000 NA
ATOM     58  H   UNL     1      -6.850   0.012 135.535  0.00  0.00    +0.000 HD
ATOM     59  H   UNL     1      -5.295   0.164 135.328  0.00  0.00    +0.000 HD
ENDBRANCH   9  57
BRANCH   1  60
ATOM     60  C   UNL     1      -3.925   5.701 133.153  0.00  0.00    +0.000 C 
ATOM     61  C   UNL     1      -3.624   7.429 131.969  0.00  0.00    +0.000 C 
BRANCH  60  63
ATOM     62  C   UNL     1      -0.900   6.640 132.196  0.00  0.00    +0.000 C 
ATOM     63  C   UNL     1      -2.489   6.825 132.685  0.00  0.00    +0.000 C 
ENDBRANCH  60  63
ENDBRANCH   1  60
BRANCH  18  64
ATOM     64  C   UNL     1      -6.225   2.542 132.043  0.00  0.00    +0.000 C 
BRANCH  64  65
ATOM     65  C   UNL     1      -7.697   2.665 132.171  0.00  0.00    +0.000 C 
ATOM     66  N   UNL     1      -8.670   2.248 131.321  0.00  0.00    +0.000 N 
ATOM     67  O   UNL     1      -7.940   3.229 133.197  0.00  0.00    +0.000 OA
ATOM     68  H   UNL     1      -8.373   1.521 130.671  0.00  0.00    +0.000 HD
ATOM     69  H   UNL     1      -9.578   1.842 131.623  0.00  0.00    +0.000 HD
ENDBRANCH  64  65
ENDBRANCH  18  64
BRANCH   5  70
ATOM     70  C   UNL     1      -2.949  -0.939 136.090  0.00  0.00    +0.000 C 
BRANCH  70  71
ATOM     71  C   UNL     1      -1.953  -2.065 135.989  0.00  0.00    +0.000 A 
ATOM     72  C   UNL     1      -1.709  -3.059 136.970  0.00  0.00    +0.000 A 
ATOM     73  C   UNL     1      -0.731  -4.007 136.749  0.00  0.00    +0.000 A 
ATOM     74  C   UNL     1       0.058  -3.885 135.620  0.00  0.00    +0.000 A 
ATOM     75  C   UNL     1      -0.046  -2.785 134.787  0.00  0.00    +0.000 A 
ATOM     76  C   UNL     1      -1.029  -1.863 134.981  0.00  0.00    +0.000 A 
BRANCH  74  77
ATOM     77  O   UNL     1       0.975  -4.811 135.240  0.00  0.00    +0.000 OA
ATOM     78  H   UNL     1       1.207  -4.735 134.303  0.00  0.00    +0.000 HD
ENDBRANCH  74  77
ENDBRANCH  70  71
ENDBRANCH   5  70
BRANCH  22  79
ATOM     79  C   UNL     1      -6.794   6.812 131.423  0.00  0.00    +0.000 C 
BRANCH  79  80
ATOM     80  C   UNL     1      -8.399   6.836 131.121  0.00  0.00    +0.000 C 
BRANCH  80  81
ATOM     81  C   UNL     1      -9.387   6.178 131.992  0.00  0.00    +0.000 C 
ATOM     82  N   UNL     1     -10.223   5.457 131.225  0.00  0.00    +0.000 N 
ATOM     83  O   UNL     1      -9.491   6.351 133.200  0.00  0.00    +0.000 OA
ATOM     84  H   UNL     1     -10.166   5.436 130.215  0.00  0.00    +0.000 HD
ATOM     85  H   UNL     1     -10.826   4.835 131.706  0.00  0.00    +0.000 HD
ENDBRANCH  80  81
ENDBRANCH  79  80
ENDBRANCH  22  79
TORSDOF 19
ENDMDL
MODEL 2
REMARK VINA RESULT:      -9.0      2.410     10.006
REMARK  Name = CHEMBL395429
REMARK  23 active torsions:
REMARK  status: ('A' for Active; 'I' for Inactive)
REMARK    1  A    between atoms: C_1  and  C_2
REMARK    2  A    between atoms: C_2  and  C_3
REMARK    3  A    between atoms: C_3  and  C_4
REMARK    4  A    between atoms: C_3  and  C_5
REMARK    5  A    between atoms: C_9  and  C_10
REMARK    6  A    between atoms: C_10  and  C_11
REMARK    7  A    between atoms: C_14  and  O_15
REMARK    8  A    between atoms: C_21  and  N_22
REMARK    9  A    between atoms: C_27  and  C_28
REMARK   10  A    between atoms: C_34  and  C_35
REMARK   11  A    between atoms: N_37  and  C_38
REMARK   12  A    between atoms: C_38  and  C_39
REMARK   13  A    between atoms: C_38  and  C_43
REMARK   14  A    between atoms: C_39  and  C_40
REMARK   15  A    between atoms: C_40  and  C_41
REMARK   16  A    between atoms: C_40  and  C_42
REMARK   17  A    between atoms: N_45  and  C_46
REMARK   18  A    between atoms: C_46  and  C_47
REMARK   19  A    between atoms: C_53  and  C_54
REMARK   20  A    between atoms: C_54  and  C_55
REMARK   21  A    between atoms: C_61  and  C_62
REMARK   22  A    between atoms: C_62  and  C_63
REMARK   23  A    between atoms: C_63  and  C_64
REMARK                            x       y       z     vdW  Elec       q    Type
REMARK                         _______ _______ _______ _____ _____    ______ ____
ROOT
ATOM      1  C   UNL     1      -8.612   4.923 128.877  0.00  0.00    +0.000 C 
ATOM      2  N   UNL     1      -7.771   4.048 127.047  0.00  0.00    +0.000 N 
ATOM      3  C   UNL     1      -7.083   3.087 125.376  0.00  0.00    +0.000 C 
ATOM      4  O   UNL     1      -5.848   3.128 124.523  0.00  0.00    +0.000 OA
ATOM      5  C   UNL     1      -7.001   1.163 124.529  0.00  0.00    +0.000 C 
ATOM      6  N   UNL     1      -6.332  -0.251 125.093  0.00  0.00    +0.000 N 
ATOM      7  C   UNL     1      -5.591  -0.261 126.242  0.00  0.00    +0.000 C 
ATOM      8  O   UNL     1      -5.220  -1.279 126.812  0.00  0.00    +0.000 OA
ATOM      9  C   UNL     1      -5.201   0.993 126.942  0.00  0.00    +0.000 C 
ATOM     10  C   UNL     1      -6.019   1.354 128.104  0.00  0.00    +0.000 C 
ATOM     11  S   UNL     1      -5.085   0.276 129.187  0.00  0.00    +0.000 S 
ATOM     12  S   UNL     1      -6.203   0.035 130.751  0.00  0.00    +0.000 S 
ATOM     13  C   UNL     1      -5.444  -0.282 132.321  0.00  0.00    +0.000 C 
ATOM     14  C   UNL     1      -6.193  -0.066 133.620  0.00  0.00    +0.000 C 
ATOM     15  N   UNL     1      -6.063   1.342 134.025  0.00  0.00    +0.000 N 
ATOM     16  C   UNL     1      -6.454   2.388 133.287  0.00  0.00    +0.000 C 
ATOM     17  O   UNL     1      -6.241   3.513 133.709  0.00  0.00    +0.000 OA
ATOM     18  C   UNL     1      -7.221   2.079 132.041  0.00  0.00    +0.000 C 
ATOM     19  N   UNL     1      -8.529   2.328 132.300  0.00  0.00    +0.000 N 
ATOM     20  C   UNL     1      -8.607   3.447 131.703  0.00  0.00    +0.000 C 
ATOM     21  O   UNL     1      -9.781   3.254 131.061  0.00  0.00    +0.000 OA
ATOM     22  C   UNL     1      -7.491   5.031 132.084  0.00  0.00    +0.000 C 
ATOM     23  N   UNL     1      -7.358   6.167 130.970  0.00  0.00    +0.000 N 
ATOM     24  C   UNL     1      -8.197   6.428 129.877  0.00  0.00    +0.000 C 
ATOM     25  O   UNL     1      -8.817   7.515 129.899  0.00  0.00    +0.000 OA
ATOM     26  H   UNL     1      -7.006   4.239 125.974  0.00  0.00    +0.000 HD
ATOM     27  H   UNL     1      -6.467  -1.258 124.729  0.00  0.00    +0.000 HD
ATOM     28  H   UNL     1      -5.569   1.583 134.884  0.00  0.00    +0.000 HD
ATOM     29  H   UNL     1      -9.446   1.902 132.086  0.00  0.00    +0.000 HD
ATOM     30  H   UNL     1      -6.608   5.957 130.398  0.00  0.00    +0.000 HD
ENDROOT
BRANCH  14  31
ATOM     31  C   UNL     1      -5.601  -0.990 134.698  0.00  0.00    +0.000 C 
ATOM     32  O   UNL     1      -4.488  -0.618 135.068  0.00  0.00    +0.000 OA
ATOM     33  N   UNL     1      -6.401  -2.033 135.234  0.00  0.00    +0.000 N 
ATOM     34  C   UNL     1      -7.199  -2.983 134.484  0.00  0.00    +0.000 C 
ATOM     35  C   UNL     1      -8.361  -3.261 135.395  0.00  0.00    +0.000 C 
ATOM     36  C   UNL     1      -7.693  -3.436 136.730  0.00  0.00    +0.000 C 
ATOM     37  C   UNL     1      -6.461  -2.540 136.661  0.00  0.00    +0.000 C 
BRANCH  37  38
ATOM     38  C   UNL     1      -5.427  -3.671 136.981  0.00  0.00    +0.000 C 
ATOM     39  O   UNL     1      -5.851  -4.699 137.533  0.00  0.00    +0.000 OA
ATOM     40  N   UNL     1      -4.180  -3.611 136.273  0.00  0.00    +0.000 N 
ATOM     41  H   UNL     1      -3.802  -2.745 135.890  0.00  0.00    +0.000 HD
BRANCH  40  42
ATOM     42  C   UNL     1      -3.344  -4.839 136.004  0.00  0.00    +0.000 C 
BRANCH  42  43
ATOM     43  C   UNL     1      -1.826  -4.476 136.039  0.00  0.00    +0.000 C 
ATOM     44  O   UNL     1      -0.984  -5.374 136.071  0.00  0.00    +0.000 OA
ATOM     45  N   UNL     1      -1.464  -3.139 136.031  0.00  0.00    +0.000 N 
ATOM     46  H   UNL     1      -2.158  -2.414 136.010  0.00  0.00    +0.000 HD
BRANCH  45  47
ATOM     47  C   UNL     1      -0.062  -2.712 136.050  0.00  0.00    +0.000 C 
BRANCH  47  48
ATOM     48  C   UNL     1       0.639  -2.762 134.675  0.00  0.00    +0.000 C 
ATOM     49  N   UNL     1       1.354  -3.897 134.362  0.00  0.00    +0.000 N 
ATOM     50  O   UNL     1       0.565  -1.825 133.882  0.00  0.00    +0.000 OA
ATOM     51  H   UNL     1       1.464  -4.705 134.947  0.00  0.00    +0.000 HD
ATOM     52  H   UNL     1       1.827  -3.965 133.467  0.00  0.00    +0.000 HD
ENDBRANCH  47  48
ENDBRANCH  45  47
ENDBRANCH  42  43
BRANCH  42  53
ATOM     53  C   UNL     1      -3.648  -5.541 134.660  0.00  0.00    +0.000 C 
BRANCH  53  54
ATOM     54  C   UNL     1      -4.431  -4.675 133.689  0.00  0.00    +0.000 C 
ATOM     55  C   UNL     1      -3.530  -3.970 132.752  0.00  0.00    +0.000 C 
ATOM     56  C   UNL     1      -5.155  -5.421 132.639  0.00  0.00    +0.000 C 
ENDBRANCH  53  54
ENDBRANCH  42  53
ENDBRANCH  40  42
ENDBRANCH  37  38
ENDBRANCH  14  31
BRANCH   9  57
ATOM     57  N   UNL     1      -5.588   2.071 126.259  0.00  0.00    +0.000 NA
ATOM     58  H   UNL     1      -5.078   1.805 125.435  0.00  0.00    +0.000 HD
ATOM     59  H   UNL     1      -5.023   2.856 126.608  0.00  0.00    +0.000 HD
ENDBRANCH   9  57
BRANCH   1  60
ATOM     60  C   UNL     1      -9.673   5.392 130.882  0.00  0.00    +0.000 C 
ATOM     61  C   UNL     1     -10.539   6.089 132.683  0.00  0.00    +0.000 C 
BRANCH  60  63
ATOM     62  C   UNL     1     -12.478   7.137 131.061  0.00  0.00    +0.000 C 
ATOM     63  C   UNL     1     -11.369   5.956 131.475  0.00  0.00    +0.000 C 
ENDBRANCH  60  63
ENDBRANCH   1  60
BRANCH  18  64
ATOM     64  C   UNL     1      -6.605   2.731 130.788  0.00  0.00    +0.000 C 
BRANCH  64  65
ATOM     65  C   UNL     1      -5.239   3.230 131.079  0.00  0.00    +0.000 C 
ATOM     66  N   UNL     1      -4.247   2.645 131.796  0.00  0.00    +0.000 N 
ATOM     67  O   UNL     1      -5.114   4.303 130.567  0.00  0.00    +0.000 OA
ATOM     68  H   UNL     1      -4.347   1.635 131.900  0.00  0.00    +0.000 HD
ATOM     69  H   UNL     1      -3.239   2.687 131.546  0.00  0.00    +0.000 HD
ENDBRANCH  64  65
ENDBRANCH  18  64
BRANCH   5  70
ATOM     70  C   UNL     1      -8.325   1.343 124.928  0.00  0.00    +0.000 C 
BRANCH  70  71
ATOM     71  C   UNL     1      -8.829  -0.050 124.656  0.00  0.00    +0.000 A 
ATOM     72  C   UNL     1      -9.001  -1.081 125.614  0.00  0.00    +0.000 A 
ATOM     73  C   UNL     1      -9.436  -2.324 125.204  0.00  0.00    +0.000 A 
ATOM     74  C   UNL     1      -9.583  -2.554 123.848  0.00  0.00    +0.000 A 
ATOM     75  C   UNL     1      -9.199  -1.608 122.914  0.00  0.00    +0.000 A 
ATOM     76  C   UNL     1      -8.799  -0.369 123.312  0.00  0.00    +0.000 A 
BRANCH  74  77
ATOM     77  O   UNL     1     -10.105  -3.696 123.332  0.00  0.00    +0.000 OA
ATOM     78  H   UNL     1      -9.514  -4.454 123.445  0.00  0.00    +0.000 HD
ENDBRANCH  74  77
ENDBRANCH  70  71
ENDBRANCH   5  70
BRANCH  22  79
ATOM     79  C   UNL     1      -7.429   6.003 133.538  0.00  0.00    +0.000 C 
BRANCH  79  80
ATOM     80  C   UNL     1      -7.933   5.252 134.898  0.00  0.00    +0.000 C 
BRANCH  80  81
ATOM     81  C   UNL     1      -7.425   5.596 136.236  0.00  0.00    +0.000 C 
ATOM     82  N   UNL     1      -6.257   4.958 136.429  0.00  0.00    +0.000 N 
ATOM     83  O   UNL     1      -8.024   6.264 137.069  0.00  0.00    +0.000 OA
ATOM     84  H   UNL     1      -5.857   4.323 135.752  0.00  0.00    +0.000 HD
ATOM     85  H   UNL     1      -5.735   5.240 137.223  0.00  0.00    +0.000 HD
ENDBRANCH  80  81
ENDBRANCH  79  80
ENDBRANCH  22  79
TORSDOF 19
ENDMDL
MODEL 3
REMARK VINA RESULT:      -8.6      3.277     10.512
REMARK  Name = CHEMBL395429
REMARK  23 active torsions:
REMARK  status: ('A' for Active; 'I' for Inactive)
REMARK    1  A    between atoms: C_1  and  C_2
REMARK    2  A    between atoms: C_2  and  C_3
REMARK    3  A    between atoms: C_3  and  C_4
REMARK    4  A    between atoms: C_3  and  C_5
REMARK    5  A    between atoms: C_9  and  C_10
REMARK    6  A    between atoms: C_10  and  C_11
REMARK    7  A    between atoms: C_14  and  O_15
REMARK    8  A    between atoms: C_21  and  N_22
REMARK    9  A    between atoms: C_27  and  C_28
REMARK   10  A    between atoms: C_34  and  C_35
REMARK   11  A    between atoms: N_37  and  C_38
REMARK   12  A    between atoms: C_38  and  C_39
REMARK   13  A    between atoms: C_38  and  C_43
REMARK   14  A    between atoms: C_39  and  C_40
REMARK   15  A    between atoms: C_40  and  C_41
REMARK   16  A    between atoms: C_40  and  C_42
REMARK   17  A    between atoms: N_45  and  C_46
REMARK   18  A    between atoms: C_46  and  C_47
REMARK   19  A    between atoms: C_53  and  C_54
REMARK   20  A    between atoms: C_54  and  C_55
REMARK   21  A    between atoms: C_61  and  C_62
REMARK   22  A    between atoms: C_62  and  C_63
REMARK   23  A    between atoms: C_63  and  C_64
REMARK                            x       y       z     vdW  Elec       q    Type
REMARK                         _______ _______ _______ _____ _____    ______ ____
ROOT
ATOM      1  C   UNL     1      -8.314   5.140 128.890  0.00  0.00    +0.000 C 
ATOM      2  N   UNL     1      -7.139   4.564 127.126  0.00  0.00    +0.000 N 
ATOM      3  C   UNL     1      -6.163   3.897 125.456  0.00  0.00    +0.000 C 
ATOM      4  O   UNL     1      -4.752   3.901 124.941  0.00  0.00    +0.000 OA
ATOM      5  C   UNL     1      -6.102   2.237 124.165  0.00  0.00    +0.000 C 
ATOM      6  N   UNL     1      -5.785   0.632 124.466  0.00  0.00    +0.000 N 
ATOM      7  C   UNL     1      -5.378   0.223 125.705  0.00  0.00    +0.000 C 
ATOM      8  O   UNL     1      -5.299  -0.950 126.049  0.00  0.00    +0.000 OA
ATOM      9  C   UNL     1      -5.032   1.188 126.782  0.00  0.00    +0.000 C 
ATOM     10  C   UNL     1      -6.074   1.422 127.787  0.00  0.00    +0.000 C 
ATOM     11  S   UNL     1      -5.598  -0.030 128.722  0.00  0.00    +0.000 S 
ATOM     12  S   UNL     1      -7.107  -0.408 129.876  0.00  0.00    +0.000 S 
ATOM     13  C   UNL     1      -6.831  -1.211 131.432  0.00  0.00    +0.000 C 
ATOM     14  C   UNL     1      -7.861  -1.160 132.542  0.00  0.00    +0.000 C 
ATOM     15  N   UNL     1      -7.668   0.069 133.327  0.00  0.00    +0.000 N 
ATOM     16  C   UNL     1      -7.719   1.309 132.827  0.00  0.00    +0.000 C 
ATOM     17  O   UNL     1      -7.486   2.248 133.570  0.00  0.00    +0.000 OA
ATOM     18  C   UNL     1      -8.166   1.441 131.406  0.00  0.00    +0.000 C 
ATOM     19  N   UNL     1      -9.454   1.864 131.426  0.00  0.00    +0.000 N 
ATOM     20  C   UNL     1      -9.233   3.084 131.147  0.00  0.00    +0.000 C 
ATOM     21  O   UNL     1     -10.213   3.265 130.233  0.00  0.00    +0.000 OA
ATOM     22  C   UNL     1      -8.067   4.303 132.175  0.00  0.00    +0.000 C 
ATOM     23  N   UNL     1      -7.507   5.617 131.463  0.00  0.00    +0.000 N 
ATOM     24  C   UNL     1      -7.992   6.272 130.321  0.00  0.00    +0.000 C 
ATOM     25  O   UNL     1      -8.455   7.421 130.495  0.00  0.00    +0.000 OA
ATOM     26  H   UNL     1      -6.102   4.848 126.341  0.00  0.00    +0.000 HD
ATOM     27  H   UNL     1      -5.945  -0.221 123.825  0.00  0.00    +0.000 HD
ATOM     28  H   UNL     1      -7.391   0.011 134.306  0.00  0.00    +0.000 HD
ATOM     29  H   UNL     1     -10.329   1.677 130.908  0.00  0.00    +0.000 HD
ATOM     30  H   UNL     1      -6.666   5.407 131.037  0.00  0.00    +0.000 HD
ENDROOT
BRANCH  14  31
ATOM     31  C   UNL     1      -7.693  -2.400 133.438  0.00  0.00    +0.000 C 
ATOM     32  O   UNL     1      -8.742  -2.710 134.002  0.00  0.00    +0.000 OA
ATOM     33  N   UNL     1      -6.464  -3.108 133.419  0.00  0.00    +0.000 N 
ATOM     34  C   UNL     1      -5.135  -2.537 133.512  0.00  0.00    +0.000 C 
ATOM     35  C   UNL     1      -4.294  -3.466 132.683  0.00  0.00    +0.000 C 
ATOM     36  C   UNL     1      -4.772  -4.820 133.129  0.00  0.00    +0.000 C 
ATOM     37  C   UNL     1      -6.233  -4.604 133.508  0.00  0.00    +0.000 C 
BRANCH  37  38
ATOM     38  C   UNL     1      -6.096  -5.144 134.971  0.00  0.00    +0.000 C 
ATOM     39  O   UNL     1      -5.023  -5.682 135.287  0.00  0.00    +0.000 OA
ATOM     40  N   UNL     1      -7.037  -4.633 135.928  0.00  0.00    +0.000 N 
ATOM     41  H   UNL     1      -7.949  -4.264 135.663  0.00  0.00    +0.000 HD
BRANCH  40  42
ATOM     42  C   UNL     1      -6.731  -4.567 137.404  0.00  0.00    +0.000 C 
BRANCH  42  43
ATOM     43  C   UNL     1      -8.045  -4.341 138.217  0.00  0.00    +0.000 C 
ATOM     44  O   UNL     1      -8.026  -4.428 139.445  0.00  0.00    +0.000 OA
ATOM     45  N   UNL     1      -9.207  -4.041 137.527  0.00  0.00    +0.000 N 
ATOM     46  H   UNL     1      -9.214  -3.977 136.525  0.00  0.00    +0.000 HD
BRANCH  45  47
ATOM     47  C   UNL     1     -10.481  -3.802 138.213  0.00  0.00    +0.000 C 
BRANCH  47  48
ATOM     48  C   UNL     1     -11.016  -2.360 138.080  0.00  0.00    +0.000 C 
ATOM     49  N   UNL     1     -12.265  -2.189 137.525  0.00  0.00    +0.000 N 
ATOM     50  O   UNL     1     -10.355  -1.393 138.454  0.00  0.00    +0.000 OA
ATOM     51  H   UNL     1     -12.869  -2.920 137.196  0.00  0.00    +0.000 HD
ATOM     52  H   UNL     1     -12.648  -1.256 137.422  0.00  0.00    +0.000 HD
ENDBRANCH  47  48
ENDBRANCH  45  47
ENDBRANCH  42  43
BRANCH  42  53
ATOM     53  C   UNL     1      -5.716  -3.471 137.801  0.00  0.00    +0.000 C 
BRANCH  53  54
ATOM     54  C   UNL     1      -6.175  -2.066 137.453  0.00  0.00    +0.000 C 
ATOM     55  C   UNL     1      -6.334  -1.237 138.667  0.00  0.00    +0.000 C 
ATOM     56  C   UNL     1      -5.138  -1.208 136.842  0.00  0.00    +0.000 C 
ENDBRANCH  53  54
ENDBRANCH  42  53
ENDBRANCH  40  42
ENDBRANCH  37  38
ENDBRANCH  14  31
BRANCH   9  57
ATOM     57  N   UNL     1      -5.090   2.446 126.343  0.00  0.00    +0.000 NA
ATOM     58  H   UNL     1      -6.005   2.328 125.945  0.00  0.00    +0.000 HD
ATOM     59  H   UNL     1      -4.501   2.489 125.500  0.00  0.00    +0.000 HD
ENDBRANCH   9  57
BRANCH   1  60
ATOM     60  C   UNL     1      -9.796   5.329 130.660  0.00  0.00    +0.000 C 
ATOM     61  C   UNL     1     -11.041   5.767 132.315  0.00  0.00    +0.000 C 
BRANCH  60  63
ATOM     62  C   UNL     1     -12.411   7.302 131.128  0.00  0.00    +0.000 C 
ATOM     63  C   UNL     1     -11.579   5.862 130.948  0.00  0.00    +0.000 C 
ENDBRANCH  60  63
ENDBRANCH   1  60
BRANCH  18  64
ATOM     64  C   UNL     1      -7.167   2.235 130.542  0.00  0.00    +0.000 C 
BRANCH  64  65
ATOM     65  C   UNL     1      -5.872   2.387 131.250  0.00  0.00    +0.000 C 
ATOM     66  N   UNL     1      -5.171   1.469 131.961  0.00  0.00    +0.000 N 
ATOM     67  O   UNL     1      -5.497   3.513 131.110  0.00  0.00    +0.000 OA
ATOM     68  H   UNL     1      -5.409   0.501 131.744  0.00  0.00    +0.000 HD
ATOM     69  H   UNL     1      -4.134   1.390 131.955  0.00  0.00    +0.000 HD
ENDBRANCH  64  65
ENDBRANCH  18  64
BRANCH   5  70
ATOM     70  C   UNL     1      -7.450   2.565 124.294  0.00  0.00    +0.000 C 
BRANCH  70  71
ATOM     71  C   UNL     1      -7.690   3.071 122.895  0.00  0.00    +0.000 A 
ATOM     72  C   UNL     1      -8.909   3.002 122.176  0.00  0.00    +0.000 A 
ATOM     73  C   UNL     1      -8.963   3.475 120.881  0.00  0.00    +0.000 A 
ATOM     74  C   UNL     1      -7.787   3.899 120.288  0.00  0.00    +0.000 A 
ATOM     75  C   UNL     1      -6.568   3.753 120.927  0.00  0.00    +0.000 A 
ATOM     76  C   UNL     1      -6.512   3.318 122.215  0.00  0.00    +0.000 A 
BRANCH  74  77
ATOM     77  O   UNL     1      -7.731   4.483 119.063  0.00  0.00    +0.000 OA
ATOM     78  H   UNL     1      -8.604   4.752 118.745  0.00  0.00    +0.000 HD
ENDBRANCH  74  77
ENDBRANCH  70  71
ENDBRANCH   5  70
BRANCH  22  79
ATOM     79  C   UNL     1      -8.268   4.888 133.811  0.00  0.00    +0.000 C 
BRANCH  79  80
ATOM     80  C   UNL     1      -6.884   5.269 134.589  0.00  0.00    +0.000 C 
BRANCH  80  81
ATOM     81  C   UNL     1      -6.857   6.030 135.849  0.00  0.00    +0.000 C 
ATOM     82  N   UNL     1      -8.109   6.097 136.336  0.00  0.00    +0.000 N 
ATOM     83  O   UNL     1      -5.875   6.596 136.312  0.00  0.00    +0.000 OA
ATOM     84  H   UNL     1      -8.910   5.709 135.855  0.00  0.00    +0.000 HD
ATOM     85  H   UNL     1      -8.196   6.438 137.262  0.00  0.00    +0.000 HD
ENDBRANCH  80  81
ENDBRANCH  79  80
ENDBRANCH  22  79
TORSDOF 19
ENDMDL
MODEL 4
REMARK VINA RESULT:      -8.5      1.601      3.332
REMARK  Name = CHEMBL395429
REMARK  23 active torsions:
REMARK  status: ('A' for Active; 'I' for Inactive)
REMARK    1  A    between atoms: C_1  and  C_2
REMARK    2  A    between atoms: C_2  and  C_3
REMARK    3  A    between atoms: C_3  and  C_4
REMARK    4  A    between atoms: C_3  and  C_5
REMARK    5  A    between atoms: C_9  and  C_10
REMARK    6  A    between atoms: C_10  and  C_11
REMARK    7  A    between atoms: C_14  and  O_15
REMARK    8  A    between atoms: C_21  and  N_22
REMARK    9  A    between atoms: C_27  and  C_28
REMARK   10  A    between atoms: C_34  and  C_35
REMARK   11  A    between atoms: N_37  and  C_38
REMARK   12  A    between atoms: C_38  and  C_39
REMARK   13  A    between atoms: C_38  and  C_43
REMARK   14  A    between atoms: C_39  and  C_40
REMARK   15  A    between atoms: C_40  and  C_41
REMARK   16  A    between atoms: C_40  and  C_42
REMARK   17  A    between atoms: N_45  and  C_46
REMARK   18  A    between atoms: C_46  and  C_47
REMARK   19  A    between atoms: C_53  and  C_54
REMARK   20  A    between atoms: C_54  and  C_55
REMARK   21  A    between atoms: C_61  and  C_62
REMARK   22  A    between atoms: C_62  and  C_63
REMARK   23  A    between atoms: C_63  and  C_64
REMARK                            x       y       z     vdW  Elec       q    Type
REMARK                         _______ _______ _______ _____ _____    ______ ____
ROOT
ATOM      1  C   UNL     1      -4.430   3.544 135.382  0.00  0.00    +0.000 C 
ATOM      2  N   UNL     1      -4.488   1.658 136.504  0.00  0.00    +0.000 N 
ATOM      3  C   UNL     1      -4.401  -0.152 137.455  0.00  0.00    +0.000 C 
ATOM      4  O   UNL     1      -5.370  -1.078 138.132  0.00  0.00    +0.000 OA
ATOM      5  C   UNL     1      -3.493  -2.041 137.270  0.00  0.00    +0.000 C 
ATOM      6  N   UNL     1      -3.562  -3.170 136.050  0.00  0.00    +0.000 N 
ATOM      7  C   UNL     1      -4.403  -2.996 134.987  0.00  0.00    +0.000 C 
ATOM      8  O   UNL     1      -4.381  -3.684 133.974  0.00  0.00    +0.000 OA
ATOM      9  C   UNL     1      -5.411  -1.903 134.947  0.00  0.00    +0.000 C 
ATOM     10  C   UNL     1      -5.037  -0.722 134.163  0.00  0.00    +0.000 C 
ATOM     11  S   UNL     1      -5.573  -1.481 132.631  0.00  0.00    +0.000 S 
ATOM     12  S   UNL     1      -4.738  -0.438 131.228  0.00  0.00    +0.000 S 
ATOM     13  C   UNL     1      -5.531  -0.315 129.647  0.00  0.00    +0.000 C 
ATOM     14  C   UNL     1      -5.179   0.786 128.669  0.00  0.00    +0.000 C 
ATOM     15  N   UNL     1      -5.975   1.983 128.979  0.00  0.00    +0.000 N 
ATOM     16  C   UNL     1      -5.963   2.624 130.154  0.00  0.00    +0.000 C 
ATOM     17  O   UNL     1      -6.712   3.576 130.308  0.00  0.00    +0.000 OA
ATOM     18  C   UNL     1      -4.943   2.176 131.151  0.00  0.00    +0.000 C 
ATOM     19  N   UNL     1      -3.938   3.087 131.138  0.00  0.00    +0.000 N 
ATOM     20  C   UNL     1      -4.258   3.704 132.202  0.00  0.00    +0.000 C 
ATOM     21  O   UNL     1      -3.029   3.806 132.756  0.00  0.00    +0.000 OA
ATOM     22  C   UNL     1      -6.000   4.569 132.546  0.00  0.00    +0.000 C 
ATOM     23  N   UNL     1      -6.428   4.866 134.055  0.00  0.00    +0.000 N 
ATOM     24  C   UNL     1      -5.619   4.955 135.197  0.00  0.00    +0.000 C 
ATOM     25  O   UNL     1      -5.548   6.078 135.743  0.00  0.00    +0.000 OA
ATOM     26  H   UNL     1      -5.071   0.963 137.478  0.00  0.00    +0.000 HD
ATOM     27  H   UNL     1      -2.942  -4.040 135.897  0.00  0.00    +0.000 HD
ATOM     28  H   UNL     1      -6.659   2.330 128.307  0.00  0.00    +0.000 HD
ATOM     29  H   UNL     1      -2.905   3.088 131.188  0.00  0.00    +0.000 HD
ATOM     30  H   UNL     1      -6.905   4.100 134.401  0.00  0.00    +0.000 HD
ENDROOT
BRANCH  14  31
ATOM     31  C   UNL     1      -5.477   0.300 127.240  0.00  0.00    +0.000 C 
ATOM     32  O   UNL     1      -4.710   0.793 126.413  0.00  0.00    +0.000 OA
ATOM     33  N   UNL     1      -6.449  -0.714 127.040  0.00  0.00    +0.000 N 
ATOM     34  C   UNL     1      -7.779  -0.762 127.615  0.00  0.00    +0.000 C 
ATOM     35  C   UNL     1      -8.036  -2.233 127.783  0.00  0.00    +0.000 C 
ATOM     36  C   UNL     1      -7.552  -2.799 126.477  0.00  0.00    +0.000 C 
ATOM     37  C   UNL     1      -6.432  -1.858 126.045  0.00  0.00    +0.000 C 
BRANCH  37  38
ATOM     38  C   UNL     1      -7.054  -1.504 124.654  0.00  0.00    +0.000 C 
ATOM     39  O   UNL     1      -8.082  -2.109 124.312  0.00  0.00    +0.000 OA
ATOM     40  N   UNL     1      -6.637  -0.260 124.069  0.00  0.00    +0.000 N 
ATOM     41  H   UNL     1      -5.752   0.190 124.299  0.00  0.00    +0.000 HD
BRANCH  40  42
ATOM     42  C   UNL     1      -7.499   0.501 123.091  0.00  0.00    +0.000 C 
BRANCH  42  43
ATOM     43  C   UNL     1      -7.219   2.033 123.204  0.00  0.00    +0.000 C 
ATOM     44  O   UNL     1      -7.662   2.799 122.348  0.00  0.00    +0.000 OA
ATOM     45  N   UNL     1      -6.474   2.492 124.277  0.00  0.00    +0.000 N 
ATOM     46  H   UNL     1      -6.113   1.858 124.967  0.00  0.00    +0.000 HD
BRANCH  45  47
ATOM     47  C   UNL     1      -6.175   3.915 124.465  0.00  0.00    +0.000 C 
BRANCH  47  48
ATOM     48  C   UNL     1      -5.522   4.255 125.822  0.00  0.00    +0.000 C 
ATOM     49  N   UNL     1      -4.247   3.789 126.054  0.00  0.00    +0.000 N 
ATOM     50  O   UNL     1      -6.114   4.919 126.671  0.00  0.00    +0.000 OA
ATOM     51  H   UNL     1      -3.694   3.243 125.418  0.00  0.00    +0.000 HD
ATOM     52  H   UNL     1      -3.786   3.993 126.935  0.00  0.00    +0.000 HD
ENDBRANCH  47  48
ENDBRANCH  45  47
ENDBRANCH  42  43
BRANCH  42  53
ATOM     53  C   UNL     1      -9.019   0.268 123.259  0.00  0.00    +0.000 C 
BRANCH  53  54
ATOM     54  C   UNL     1      -9.672   1.223 124.242  0.00  0.00    +0.000 C 
ATOM     55  C   UNL     1     -11.126   1.334 123.997  0.00  0.00    +0.000 C 
ATOM     56  C   UNL     1      -9.809   0.700 125.617  0.00  0.00    +0.000 C 
ENDBRANCH  53  54
ENDBRANCH  42  53
ENDBRANCH  40  42
ENDBRANCH  37  38
ENDBRANCH  14  31
BRANCH   9  57
ATOM     57  N   UNL     1      -5.425  -1.214 136.088  0.00  0.00    +0.000 NA
ATOM     58  H   UNL     1      -5.651  -0.347 135.632  0.00  0.00    +0.000 HD
ATOM     59  H   UNL     1      -4.442  -1.060 136.350  0.00  0.00    +0.000 HD
ENDBRANCH   9  57
BRANCH   1  60
ATOM     60  C   UNL     1      -4.028   5.303 133.929  0.00  0.00    +0.000 C 
ATOM     61  C   UNL     1      -3.849   7.060 132.762  0.00  0.00    +0.000 C 
BRANCH  60  63
ATOM     62  C   UNL     1      -2.497   7.939 132.640  0.00  0.00    +0.000 C 
ATOM     63  C   UNL     1      -2.812   6.731 133.753  0.00  0.00    +0.000 C 
ENDBRANCH  60  63
ENDBRANCH   1  60
BRANCH  18  64
ATOM     64  C   UNL     1      -5.565   1.819 132.515  0.00  0.00    +0.000 C 
BRANCH  64  65
ATOM     65  C   UNL     1      -7.036   1.673 132.395  0.00  0.00    +0.000 C 
ATOM     66  N   UNL     1      -7.766   1.164 131.371  0.00  0.00    +0.000 N 
ATOM     67  O   UNL     1      -7.539   2.101 133.391  0.00  0.00    +0.000 OA
ATOM     68  H   UNL     1      -7.239   0.554 130.745  0.00  0.00    +0.000 HD
ATOM     69  H   UNL     1      -8.619   0.582 131.491  0.00  0.00    +0.000 HD
ENDBRANCH  64  65
ENDBRANCH  18  64
BRANCH   5  70
ATOM     70  C   UNL     1      -2.467  -1.112 137.102  0.00  0.00    +0.000 C 
BRANCH  70  71
ATOM     71  C   UNL     1      -1.401  -2.049 136.598  0.00  0.00    +0.000 A 
ATOM     72  C   UNL     1      -0.708  -3.020 137.363  0.00  0.00    +0.000 A 
ATOM     73  C   UNL     1       0.276  -3.780 136.766  0.00  0.00    +0.000 A 
ATOM     74  C   UNL     1       0.632  -3.487 135.462  0.00  0.00    +0.000 A 
ATOM     75  C   UNL     1       0.102  -2.392 134.802  0.00  0.00    +0.000 A 
ATOM     76  C   UNL     1      -0.892  -1.657 135.374  0.00  0.00    +0.000 A 
BRANCH  74  77
ATOM     77  O   UNL     1       1.506  -4.231 134.735  0.00  0.00    +0.000 OA
ATOM     78  H   UNL     1       1.604  -3.900 133.831  0.00  0.00    +0.000 HD
ENDBRANCH  74  77
ENDBRANCH  70  71
ENDBRANCH   5  70
BRANCH  22  79
ATOM     79  C   UNL     1      -6.719   5.942 131.735  0.00  0.00    +0.000 C 
BRANCH  79  80
ATOM     80  C   UNL     1      -8.286   6.223 132.099  0.00  0.00    +0.000 C 
BRANCH  80  81
ATOM     81  C   UNL     1      -9.367   6.127 131.104  0.00  0.00    +0.000 C 
ATOM     82  N   UNL     1      -8.843   5.706 129.940  0.00  0.00    +0.000 N 
ATOM     83  O   UNL     1     -10.527   6.478 131.285  0.00  0.00    +0.000 OA
ATOM     84  H   UNL     1      -7.855   5.537 129.808  0.00  0.00    +0.000 HD
ATOM     85  H   UNL     1      -9.495   5.441 129.242  0.00  0.00    +0.000 HD
ENDBRANCH  80  81
ENDBRANCH  79  80
ENDBRANCH  22  79
TORSDOF 19
ENDMDL
MODEL 5
REMARK VINA RESULT:      -8.5      4.679      8.759
REMARK  Name = CHEMBL395429
REMARK  23 active torsions:
REMARK  status: ('A' for Active; 'I' for Inactive)
REMARK    1  A    between atoms: C_1  and  C_2
REMARK    2  A    between atoms: C_2  and  C_3
REMARK    3  A    between atoms: C_3  and  C_4
REMARK    4  A    between atoms: C_3  and  C_5
REMARK    5  A    between atoms: C_9  and  C_10
REMARK    6  A    between atoms: C_10  and  C_11
REMARK    7  A    between atoms: C_14  and  O_15
REMARK    8  A    between atoms: C_21  and  N_22
REMARK    9  A    between atoms: C_27  and  C_28
REMARK   10  A    between atoms: C_34  and  C_35
REMARK   11  A    between atoms: N_37  and  C_38
REMARK   12  A    between atoms: C_38  and  C_39
REMARK   13  A    between atoms: C_38  and  C_43
REMARK   14  A    between atoms: C_39  and  C_40
REMARK   15  A    between atoms: C_40  and  C_41
REMARK   16  A    between atoms: C_40  and  C_42
REMARK   17  A    between atoms: N_45  and  C_46
REMARK   18  A    between atoms: C_46  and  C_47
REMARK   19  A    between atoms: C_53  and  C_54
REMARK   20  A    between atoms: C_54  and  C_55
REMARK   21  A    between atoms: C_61  and  C_62
REMARK   22  A    between atoms: C_62  and  C_63
REMARK   23  A    between atoms: C_63  and  C_64
REMARK                            x       y       z     vdW  Elec       q    Type
REMARK                         _______ _______ _______ _____ _____    ______ ____
ROOT
ATOM      1  C   UNL     1      -3.533   6.801 131.774  0.00  0.00    +0.000 C 
ATOM      2  N   UNL     1      -2.966   7.466 133.789  0.00  0.00    +0.000 N 
ATOM      3  C   UNL     1      -2.320   7.951 135.669  0.00  0.00    +0.000 C 
ATOM      4  O   UNL     1      -2.899   8.616 136.885  0.00  0.00    +0.000 OA
ATOM      5  C   UNL     1      -1.193   7.153 137.255  0.00  0.00    +0.000 C 
ATOM      6  N   UNL     1      -1.399   5.766 138.151  0.00  0.00    +0.000 N 
ATOM      7  C   UNL     1      -2.514   4.992 137.990  0.00  0.00    +0.000 C 
ATOM      8  O   UNL     1      -2.652   3.877 138.476  0.00  0.00    +0.000 OA
ATOM      9  C   UNL     1      -3.663   5.427 137.152  0.00  0.00    +0.000 C 
ATOM     10  C   UNL     1      -3.721   4.855 135.803  0.00  0.00    +0.000 C 
ATOM     11  S   UNL     1      -4.517   3.362 136.394  0.00  0.00    +0.000 S 
ATOM     12  S   UNL     1      -4.282   2.066 134.972  0.00  0.00    +0.000 S 
ATOM     13  C   UNL     1      -5.483   0.780 134.762  0.00  0.00    +0.000 C 
ATOM     14  C   UNL     1      -5.600   0.011 133.462  0.00  0.00    +0.000 C 
ATOM     15  N   UNL     1      -6.471   0.752 132.538  0.00  0.00    +0.000 N 
ATOM     16  C   UNL     1      -6.249   2.002 132.117  0.00  0.00    +0.000 C 
ATOM     17  O   UNL     1      -7.077   2.530 131.392  0.00  0.00    +0.000 OA
ATOM     18  C   UNL     1      -4.936   2.612 132.492  0.00  0.00    +0.000 C 
ATOM     19  N   UNL     1      -4.141   2.565 131.394  0.00  0.00    +0.000 N 
ATOM     20  C   UNL     1      -4.260   3.782 131.050  0.00  0.00    +0.000 C 
ATOM     21  O   UNL     1      -2.962   4.044 130.776  0.00  0.00    +0.000 OA
ATOM     22  C   UNL     1      -5.962   4.703 130.657  0.00  0.00    +0.000 C 
ATOM     23  N   UNL     1      -6.009   6.297 130.718  0.00  0.00    +0.000 N 
ATOM     24  C   UNL     1      -4.947   7.211 130.648  0.00  0.00    +0.000 C 
ATOM     25  O   UNL     1      -4.921   7.957 129.644  0.00  0.00    +0.000 OA
ATOM     26  H   UNL     1      -3.136   8.373 134.748  0.00  0.00    +0.000 HD
ATOM     27  H   UNL     1      -0.707   5.286 138.826  0.00  0.00    +0.000 HD
ATOM     28  H   UNL     1      -7.360   0.350 132.241  0.00  0.00    +0.000 HD
ATOM     29  H   UNL     1      -3.149   2.372 131.176  0.00  0.00    +0.000 HD
ATOM     30  H   UNL     1      -6.238   6.569 131.617  0.00  0.00    +0.000 HD
ENDROOT
BRANCH  14  31
ATOM     31  C   UNL     1      -6.188  -1.380 133.755  0.00  0.00    +0.000 C 
ATOM     32  O   UNL     1      -7.393  -1.331 134.002  0.00  0.00    +0.000 OA
ATOM     33  N   UNL     1      -5.374  -2.529 133.584  0.00  0.00    +0.000 N 
ATOM     34  C   UNL     1      -4.021  -2.711 134.071  0.00  0.00    +0.000 C 
ATOM     35  C   UNL     1      -3.388  -3.594 133.033  0.00  0.00    +0.000 C 
ATOM     36  C   UNL     1      -4.453  -4.629 132.796  0.00  0.00    +0.000 C 
ATOM     37  C   UNL     1      -5.764  -3.895 133.052  0.00  0.00    +0.000 C 
BRANCH  37  38
ATOM     38  C   UNL     1      -6.284  -4.883 134.149  0.00  0.00    +0.000 C 
ATOM     39  O   UNL     1      -5.567  -5.854 134.435  0.00  0.00    +0.000 OA
ATOM     40  N   UNL     1      -7.328  -4.391 135.004  0.00  0.00    +0.000 N 
ATOM     41  H   UNL     1      -7.963  -3.643 134.728  0.00  0.00    +0.000 HD
BRANCH  40  42
ATOM     42  C   UNL     1      -7.542  -4.920 136.402  0.00  0.00    +0.000 C 
BRANCH  42  43
ATOM     43  C   UNL     1      -9.048  -4.803 136.797  0.00  0.00    +0.000 C 
ATOM     44  O   UNL     1      -9.874  -5.560 136.284  0.00  0.00    +0.000 OA
ATOM     45  N   UNL     1      -9.417  -3.845 137.724  0.00  0.00    +0.000 N 
ATOM     46  H   UNL     1      -8.737  -3.229 138.133  0.00  0.00    +0.000 HD
BRANCH  45  47
ATOM     47  C   UNL     1     -10.807  -3.676 138.159  0.00  0.00    +0.000 C 
BRANCH  47  48
ATOM     48  C   UNL     1     -11.327  -2.225 138.085  0.00  0.00    +0.000 C 
ATOM     49  N   UNL     1     -12.590  -2.022 137.573  0.00  0.00    +0.000 N 
ATOM     50  O   UNL     1     -10.643  -1.277 138.466  0.00  0.00    +0.000 OA
ATOM     51  H   UNL     1     -13.214  -2.736 137.241  0.00  0.00    +0.000 HD
ATOM     52  H   UNL     1     -12.965  -1.082 137.509  0.00  0.00    +0.000 HD
ENDBRANCH  47  48
ENDBRANCH  45  47
ENDBRANCH  42  43
BRANCH  42  53
ATOM     53  C   UNL     1      -6.696  -4.219 137.490  0.00  0.00    +0.000 C 
BRANCH  53  54
ATOM     54  C   UNL     1      -6.043  -2.933 137.014  0.00  0.00    +0.000 C 
ATOM     55  C   UNL     1      -6.695  -1.747 137.610  0.00  0.00    +0.000 C 
ATOM     56  C   UNL     1      -4.713  -2.660 137.597  0.00  0.00    +0.000 C 
ENDBRANCH  53  54
ENDBRANCH  42  53
ENDBRANCH  40  42
ENDBRANCH  37  38
ENDBRANCH  14  31
BRANCH   9  57
ATOM     57  N   UNL     1      -3.483   6.663 136.685  0.00  0.00    +0.000 NA
ATOM     58  H   UNL     1      -2.710   6.847 137.301  0.00  0.00    +0.000 HD
ATOM     59  H   UNL     1      -4.223   7.244 137.102  0.00  0.00    +0.000 HD
ENDBRANCH   9  57
BRANCH   1  60
ATOM     60  C   UNL     1      -3.842   5.715 129.752  0.00  0.00    +0.000 C 
ATOM     61  C   UNL     1      -4.247   4.969 127.813  0.00  0.00    +0.000 C 
BRANCH  60  63
ATOM     62  C   UNL     1      -2.419   4.108 127.233  0.00  0.00    +0.000 C 
ATOM     63  C   UNL     1      -2.889   5.423 128.154  0.00  0.00    +0.000 C 
ENDBRANCH  60  63
ENDBRANCH   1  60
BRANCH  18  64
ATOM     64  C   UNL     1      -5.095   3.971 133.200  0.00  0.00    +0.000 C 
BRANCH  64  65
ATOM     65  C   UNL     1      -6.506   4.186 133.604  0.00  0.00    +0.000 C 
ATOM     66  N   UNL     1      -7.375   3.318 134.179  0.00  0.00    +0.000 N 
ATOM     67  O   UNL     1      -6.809   5.310 133.330  0.00  0.00    +0.000 OA
ATOM     68  H   UNL     1      -6.929   2.529 134.648  0.00  0.00    +0.000 HD
ATOM     69  H   UNL     1      -8.066   3.577 134.912  0.00  0.00    +0.000 HD
ENDBRANCH  64  65
ENDBRANCH  18  64
BRANCH   5  70
ATOM     70  C   UNL     1      -0.422   6.958 136.110  0.00  0.00    +0.000 C 
BRANCH  70  71
ATOM     71  C   UNL     1       0.929   7.277 136.695  0.00  0.00    +0.000 A 
ATOM     72  C   UNL     1       1.958   6.346 136.984  0.00  0.00    +0.000 A 
ATOM     73  C   UNL     1       3.132   6.788 137.559  0.00  0.00    +0.000 A 
ATOM     74  C   UNL     1       3.218   8.115 137.939  0.00  0.00    +0.000 A 
ATOM     75  C   UNL     1       2.125   8.958 137.853  0.00  0.00    +0.000 A 
ATOM     76  C   UNL     1       0.974   8.539 137.258  0.00  0.00    +0.000 A 
BRANCH  74  77
ATOM     77  O   UNL     1       4.354   8.689 138.413  0.00  0.00    +0.000 OA
ATOM     78  H   UNL     1       4.174   9.493 138.921  0.00  0.00    +0.000 HD
ENDBRANCH  74  77
ENDBRANCH  70  71
ENDBRANCH   5  70
BRANCH  22  79
ATOM     79  C   UNL     1      -7.095   4.402 129.358  0.00  0.00    +0.000 C 
BRANCH  79  80
ATOM     80  C   UNL     1      -8.585   5.032 129.575  0.00  0.00    +0.000 C 
BRANCH  80  81
ATOM     81  C   UNL     1      -9.637   4.351 130.347  0.00  0.00    +0.000 C 
ATOM     82  N   UNL     1      -9.466   4.635 131.650  0.00  0.00    +0.000 N 
ATOM     83  O   UNL     1     -10.460   3.569 129.885  0.00  0.00    +0.000 OA
ATOM     84  H   UNL     1      -8.699   5.196 131.996  0.00  0.00    +0.000 HD
ATOM     85  H   UNL     1     -10.208   4.373 132.252  0.00  0.00    +0.000 HD
ENDBRANCH  80  81
ENDBRANCH  79  80
ENDBRANCH  22  79
TORSDOF 19
ENDMDL
MODEL 6
REMARK VINA RESULT:      -8.4      5.224     12.069
REMARK  Name = CHEMBL395429
REMARK  23 active torsions:
REMARK  status: ('A' for Active; 'I' for Inactive)
REMARK    1  A    between atoms: C_1  and  C_2
REMARK    2  A    between atoms: C_2  and  C_3
REMARK    3  A    between atoms: C_3  and  C_4
REMARK    4  A    between atoms: C_3  and  C_5
REMARK    5  A    between atoms: C_9  and  C_10
REMARK    6  A    between atoms: C_10  and  C_11
REMARK    7  A    between atoms: C_14  and  O_15
REMARK    8  A    between atoms: C_21  and  N_22
REMARK    9  A    between atoms: C_27  and  C_28
REMARK   10  A    between atoms: C_34  and  C_35
REMARK   11  A    between atoms: N_37  and  C_38
REMARK   12  A    between atoms: C_38  and  C_39
REMARK   13  A    between atoms: C_38  and  C_43
REMARK   14  A    between atoms: C_39  and  C_40
REMARK   15  A    between atoms: C_40  and  C_41
REMARK   16  A    between atoms: C_40  and  C_42
REMARK   17  A    between atoms: N_45  and  C_46
REMARK   18  A    between atoms: C_46  and  C_47
REMARK   19  A    between atoms: C_53  and  C_54
REMARK   20  A    between atoms: C_54  and  C_55
REMARK   21  A    between atoms: C_61  and  C_62
REMARK   22  A    between atoms: C_62  and  C_63
REMARK   23  A    between atoms: C_63  and  C_64
REMARK                            x       y       z     vdW  Elec       q    Type
REMARK                         _______ _______ _______ _____ _____    ______ ____
ROOT
ATOM      1  C   UNL     1      -5.048   0.999 130.766  0.00  0.00    +0.000 C 
ATOM      2  N   UNL     1      -4.351  -0.695 131.977  0.00  0.00    +0.000 N 
ATOM      3  C   UNL     1      -3.853  -2.262 133.195  0.00  0.00    +0.000 C 
ATOM      4  O   UNL     1      -2.588  -2.884 133.712  0.00  0.00    +0.000 OA
ATOM      5  C   UNL     1      -4.448  -3.169 134.998  0.00  0.00    +0.000 C 
ATOM      6  N   UNL     1      -4.554  -2.561 136.543  0.00  0.00    +0.000 N 
ATOM      7  C   UNL     1      -4.104  -1.303 136.828  0.00  0.00    +0.000 C 
ATOM      8  O   UNL     1      -4.308  -0.724 137.888  0.00  0.00    +0.000 OA
ATOM      9  C   UNL     1      -3.349  -0.490 135.837  0.00  0.00    +0.000 C 
ATOM     10  C   UNL     1      -4.127   0.527 135.123  0.00  0.00    +0.000 C 
ATOM     11  S   UNL     1      -3.946   1.707 136.460  0.00  0.00    +0.000 S 
ATOM     12  S   UNL     1      -5.318   3.039 136.148  0.00  0.00    +0.000 S 
ATOM     13  C   UNL     1      -5.056   4.702 136.705  0.00  0.00    +0.000 C 
ATOM     14  C   UNL     1      -5.858   5.859 136.147  0.00  0.00    +0.000 C 
ATOM     15  N   UNL     1      -5.217   6.344 134.915  0.00  0.00    +0.000 N 
ATOM     16  C   UNL     1      -4.989   5.597 133.829  0.00  0.00    +0.000 C 
ATOM     17  O   UNL     1      -4.397   6.100 132.888  0.00  0.00    +0.000 OA
ATOM     18  C   UNL     1      -5.582   4.224 133.823  0.00  0.00    +0.000 C 
ATOM     19  N   UNL     1      -6.683   4.263 133.032  0.00  0.00    +0.000 N 
ATOM     20  C   UNL     1      -6.171   3.713 132.007  0.00  0.00    +0.000 C 
ATOM     21  O   UNL     1      -7.182   2.868 131.703  0.00  0.00    +0.000 OA
ATOM     22  C   UNL     1      -4.574   4.354 131.038  0.00  0.00    +0.000 C 
ATOM     23  N   UNL     1      -3.777   3.332 130.105  0.00  0.00    +0.000 N 
ATOM     24  C   UNL     1      -4.218   2.123 129.548  0.00  0.00    +0.000 C 
ATOM     25  O   UNL     1      -4.310   2.086 128.301  0.00  0.00    +0.000 OA
ATOM     26  H   UNL     1      -3.401  -1.608 132.166  0.00  0.00    +0.000 HD
ATOM     27  H   UNL     1      -5.038  -2.989 137.407  0.00  0.00    +0.000 HD
ATOM     28  H   UNL     1      -4.828   7.286 134.879  0.00  0.00    +0.000 HD
ATOM     29  H   UNL     1      -7.640   3.873 133.033  0.00  0.00    +0.000 HD
ATOM     30  H   UNL     1      -3.099   2.891 130.633  0.00  0.00    +0.000 HD
ENDROOT
BRANCH  14  31
ATOM     31  C   UNL     1      -5.917   6.981 137.198  0.00  0.00    +0.000 C 
ATOM     32  O   UNL     1      -4.812   7.215 137.688  0.00  0.00    +0.000 OA
ATOM     33  N   UNL     1      -7.130   7.691 137.390  0.00  0.00    +0.000 N 
ATOM     34  C   UNL     1      -8.452   7.117 137.547  0.00  0.00    +0.000 C 
ATOM     35  C   UNL     1      -9.357   8.144 136.926  0.00  0.00    +0.000 C 
ATOM     36  C   UNL     1      -8.815   9.432 137.481  0.00  0.00    +0.000 C 
ATOM     37  C   UNL     1      -7.327   9.166 137.682  0.00  0.00    +0.000 C 
BRANCH  37  38
ATOM     38  C   UNL     1      -7.309   9.523 139.206  0.00  0.00    +0.000 C 
ATOM     39  O   UNL     1      -6.373   9.080 139.889  0.00  0.00    +0.000 OA
ATOM     40  N   UNL     1      -8.126  10.633 139.609  0.00  0.00    +0.000 N 
ATOM     41  H   UNL     1      -8.940  10.940 139.080  0.00  0.00    +0.000 HD
BRANCH  40  42
ATOM     42  C   UNL     1      -7.817  11.460 140.833  0.00  0.00    +0.000 C 
BRANCH  42  43
ATOM     43  C   UNL     1      -8.918  12.548 141.040  0.00  0.00    +0.000 C 
ATOM     44  O   UNL     1      -8.917  13.229 142.066  0.00  0.00    +0.000 OA
ATOM     45  N   UNL     1      -9.872  12.721 140.052  0.00  0.00    +0.000 N 
ATOM     46  H   UNL     1      -9.867  12.157 139.222  0.00  0.00    +0.000 HD
BRANCH  45  47
ATOM     47  C   UNL     1     -10.933  13.727 140.162  0.00  0.00    +0.000 C 
BRANCH  47  48
ATOM     48  C   UNL     1     -10.754  14.945 139.230  0.00  0.00    +0.000 C 
ATOM     49  N   UNL     1     -10.034  16.017 139.708  0.00  0.00    +0.000 N 
ATOM     50  O   UNL     1     -11.235  14.964 138.098  0.00  0.00    +0.000 OA
ATOM     51  H   UNL     1      -9.609  16.085 140.615  0.00  0.00    +0.000 HD
ATOM     52  H   UNL     1      -9.897  16.835 139.124  0.00  0.00    +0.000 HD
ENDBRANCH  47  48
ENDBRANCH  45  47
ENDBRANCH  42  43
BRANCH  42  53
ATOM     53  C   UNL     1      -6.438  12.159 140.805  0.00  0.00    +0.000 C 
BRANCH  53  54
ATOM     54  C   UNL     1      -6.161  12.899 139.508  0.00  0.00    +0.000 C 
ATOM     55  C   UNL     1      -6.000  14.350 139.742  0.00  0.00    +0.000 C 
ATOM     56  C   UNL     1      -4.803  12.702 138.959  0.00  0.00    +0.000 C 
ENDBRANCH  53  54
ENDBRANCH  42  53
ENDBRANCH  40  42
ENDBRANCH  37  38
ENDBRANCH  14  31
BRANCH   9  57
ATOM     57  N   UNL     1      -3.114  -1.180 134.721  0.00  0.00    +0.000 NA
ATOM     58  H   UNL     1      -4.087  -1.385 134.572  0.00  0.00    +0.000 HD
ATOM     59  H   UNL     1      -2.752  -2.097 135.015  0.00  0.00    +0.000 HD
ENDBRANCH   9  57
BRANCH   1  60
ATOM     60  C   UNL     1      -6.146   2.808 129.822  0.00  0.00    +0.000 C 
ATOM     61  C   UNL     1      -6.937   4.460 128.762  0.00  0.00    +0.000 C 
BRANCH  60  63
ATOM     62  C   UNL     1      -7.995   2.498 127.096  0.00  0.00    +0.000 C 
ATOM     63  C   UNL     1      -7.520   3.122 128.573  0.00  0.00    +0.000 C 
ENDBRANCH  60  63
ENDBRANCH   1  60
BRANCH  18  64
ATOM     64  C   UNL     1      -4.536   3.128 133.538  0.00  0.00    +0.000 C 
BRANCH  64  65
ATOM     65  C   UNL     1      -3.163   3.672 133.670  0.00  0.00    +0.000 C 
ATOM     66  N   UNL     1      -2.688   4.601 134.537  0.00  0.00    +0.000 N 
ATOM     67  O   UNL     1      -2.472   3.153 132.845  0.00  0.00    +0.000 OA
ATOM     68  H   UNL     1      -3.261   4.725 135.372  0.00  0.00    +0.000 HD
ATOM     69  H   UNL     1      -1.750   4.561 134.984  0.00  0.00    +0.000 HD
ENDBRANCH  64  65
ENDBRANCH  18  64
BRANCH   5  70
ATOM     70  C   UNL     1      -5.617  -2.998 134.258  0.00  0.00    +0.000 C 
BRANCH  70  71
ATOM     71  C   UNL     1      -6.465  -4.039 134.941  0.00  0.00    +0.000 A 
ATOM     72  C   UNL     1      -6.140  -5.408 135.107  0.00  0.00    +0.000 A 
ATOM     73  C   UNL     1      -7.042  -6.252 135.723  0.00  0.00    +0.000 A 
ATOM     74  C   UNL     1      -8.287  -5.750 136.058  0.00  0.00    +0.000 A 
ATOM     75  C   UNL     1      -8.668  -4.472 135.688  0.00  0.00    +0.000 A 
ATOM     76  C   UNL     1      -7.774  -3.625 135.109  0.00  0.00    +0.000 A 
BRANCH  74  77
ATOM     77  O   UNL     1      -9.215  -6.448 136.762  0.00  0.00    +0.000 OA
ATOM     78  H   UNL     1      -8.861  -6.791 137.595  0.00  0.00    +0.000 HD
ENDBRANCH  74  77
ENDBRANCH  70  71
ENDBRANCH   5  70
BRANCH  22  79
ATOM     79  C   UNL     1      -4.363   5.838 130.137  0.00  0.00    +0.000 C 
BRANCH  79  80
ATOM     80  C   UNL     1      -2.821   6.198 129.739  0.00  0.00    +0.000 C 
BRANCH  80  81
ATOM     81  C   UNL     1      -2.371   6.362 128.347  0.00  0.00    +0.000 C 
ATOM     82  N   UNL     1      -2.246   5.144 127.790  0.00  0.00    +0.000 N 
ATOM     83  O   UNL     1      -2.060   7.425 127.825  0.00  0.00    +0.000 OA
ATOM     84  H   UNL     1      -2.406   4.286 128.300  0.00  0.00    +0.000 HD
ATOM     85  H   UNL     1      -2.112   5.129 126.808  0.00  0.00    +0.000 HD
ENDBRANCH  80  81
ENDBRANCH  79  80
ENDBRANCH  22  79
TORSDOF 19
ENDMDL
MODEL 7
REMARK VINA RESULT:      -8.3      3.370     10.422
REMARK  Name = CHEMBL395429
REMARK  23 active torsions:
REMARK  status: ('A' for Active; 'I' for Inactive)
REMARK    1  A    between atoms: C_1  and  C_2
REMARK    2  A    between atoms: C_2  and  C_3
REMARK    3  A    between atoms: C_3  and  C_4
REMARK    4  A    between atoms: C_3  and  C_5
REMARK    5  A    between atoms: C_9  and  C_10
REMARK    6  A    between atoms: C_10  and  C_11
REMARK    7  A    between atoms: C_14  and  O_15
REMARK    8  A    between atoms: C_21  and  N_22
REMARK    9  A    between atoms: C_27  and  C_28
REMARK   10  A    between atoms: C_34  and  C_35
REMARK   11  A    between atoms: N_37  and  C_38
REMARK   12  A    between atoms: C_38  and  C_39
REMARK   13  A    between atoms: C_38  and  C_43
REMARK   14  A    between atoms: C_39  and  C_40
REMARK   15  A    between atoms: C_40  and  C_41
REMARK   16  A    between atoms: C_40  and  C_42
REMARK   17  A    between atoms: N_45  and  C_46
REMARK   18  A    between atoms: C_46  and  C_47
REMARK   19  A    between atoms: C_53  and  C_54
REMARK   20  A    between atoms: C_54  and  C_55
REMARK   21  A    between atoms: C_61  and  C_62
REMARK   22  A    between atoms: C_62  and  C_63
REMARK   23  A    between atoms: C_63  and  C_64
REMARK                            x       y       z     vdW  Elec       q    Type
REMARK                         _______ _______ _______ _____ _____    ______ ____
ROOT
ATOM      1  C   UNL     1      -6.366   4.957 130.172  0.00  0.00    +0.000 C 
ATOM      2  N   UNL     1      -5.759   4.381 128.142  0.00  0.00    +0.000 N 
ATOM      3  C   UNL     1      -5.350   3.763 126.235  0.00  0.00    +0.000 C 
ATOM      4  O   UNL     1      -4.124   3.433 125.433  0.00  0.00    +0.000 OA
ATOM      5  C   UNL     1      -6.058   2.423 124.776  0.00  0.00    +0.000 C 
ATOM      6  N   UNL     1      -6.247   0.770 124.811  0.00  0.00    +0.000 N 
ATOM      7  C   UNL     1      -5.799   0.041 125.877  0.00  0.00    +0.000 C 
ATOM      8  O   UNL     1      -6.058  -1.142 126.056  0.00  0.00    +0.000 OA
ATOM      9  C   UNL     1      -4.979   0.647 126.960  0.00  0.00    +0.000 C 
ATOM     10  C   UNL     1      -5.703   0.999 128.186  0.00  0.00    +0.000 C 
ATOM     11  S   UNL     1      -5.587  -0.673 128.820  0.00  0.00    +0.000 S 
ATOM     12  S   UNL     1      -6.923  -0.778 130.219  0.00  0.00    +0.000 S 
ATOM     13  C   UNL     1      -6.675  -1.893 131.575  0.00  0.00    +0.000 C 
ATOM     14  C   UNL     1      -7.431  -1.735 132.878  0.00  0.00    +0.000 C 
ATOM     15  N   UNL     1      -6.713  -0.784 133.741  0.00  0.00    +0.000 N 
ATOM     16  C   UNL     1      -6.432   0.482 133.413  0.00  0.00    +0.000 C 
ATOM     17  O   UNL     1      -5.780   1.157 134.194  0.00  0.00    +0.000 OA
ATOM     18  C   UNL     1      -7.039   0.997 132.147  0.00  0.00    +0.000 C 
ATOM     19  N   UNL     1      -8.091   1.779 132.493  0.00  0.00    +0.000 N 
ATOM     20  C   UNL     1      -7.528   2.904 132.318  0.00  0.00    +0.000 C 
ATOM     21  O   UNL     1      -8.529   3.535 131.663  0.00  0.00    +0.000 OA
ATOM     22  C   UNL     1      -5.870   3.507 133.207  0.00  0.00    +0.000 C 
ATOM     23  N   UNL     1      -5.032   4.696 132.550  0.00  0.00    +0.000 N 
ATOM     24  C   UNL     1      -5.454   5.662 131.624  0.00  0.00    +0.000 C 
ATOM     25  O   UNL     1      -5.474   6.847 132.026  0.00  0.00    +0.000 OA
ATOM     26  H   UNL     1      -4.832   4.475 127.192  0.00  0.00    +0.000 HD
ATOM     27  H   UNL     1      -6.785   0.136 124.124  0.00  0.00    +0.000 HD
ATOM     28  H   UNL     1      -6.312  -1.098 134.624  0.00  0.00    +0.000 HD
ATOM     29  H   UNL     1      -9.052   1.962 132.156  0.00  0.00    +0.000 HD
ATOM     30  H   UNL     1      -4.391   4.322 131.931  0.00  0.00    +0.000 HD
ENDROOT
BRANCH  14  31
ATOM     31  C   UNL     1      -7.537  -3.107 133.565  0.00  0.00    +0.000 C 
ATOM     32  O   UNL     1      -8.692  -3.534 133.572  0.00  0.00    +0.000 OA
ATOM     33  N   UNL     1      -6.353  -3.774 133.971  0.00  0.00    +0.000 N 
ATOM     34  C   UNL     1      -5.246  -3.199 134.708  0.00  0.00    +0.000 C 
ATOM     35  C   UNL     1      -4.051  -3.951 134.193  0.00  0.00    +0.000 C 
ATOM     36  C   UNL     1      -4.542  -5.372 134.184  0.00  0.00    +0.000 C 
ATOM     37  C   UNL     1      -6.040  -5.258 133.927  0.00  0.00    +0.000 C 
BRANCH  37  38
ATOM     38  C   UNL     1      -6.479  -6.040 135.210  0.00  0.00    +0.000 C 
ATOM     39  O   UNL     1      -5.585  -6.512 135.929  0.00  0.00    +0.000 OA
ATOM     40  N   UNL     1      -7.823  -5.817 135.663  0.00  0.00    +0.000 N 
ATOM     41  H   UNL     1      -8.570  -5.503 135.045  0.00  0.00    +0.000 HD
BRANCH  40  42
ATOM     42  C   UNL     1      -8.228  -5.993 137.106  0.00  0.00    +0.000 C 
BRANCH  42  43
ATOM     43  C   UNL     1      -9.749  -5.683 137.281  0.00  0.00    +0.000 C 
ATOM     44  O   UNL     1     -10.585  -6.409 136.741  0.00  0.00    +0.000 OA
ATOM     45  N   UNL     1     -10.118  -4.592 138.048  0.00  0.00    +0.000 N 
ATOM     46  H   UNL     1      -9.428  -4.004 138.479  0.00  0.00    +0.000 HD
BRANCH  45  47
ATOM     47  C   UNL     1     -11.523  -4.238 138.272  0.00  0.00    +0.000 C 
BRANCH  47  48
ATOM     48  C   UNL     1     -11.782  -2.724 138.426  0.00  0.00    +0.000 C 
ATOM     49  N   UNL     1     -12.447  -2.081 137.406  0.00  0.00    +0.000 N 
ATOM     50  O   UNL     1     -11.410  -2.107 139.423  0.00  0.00    +0.000 OA
ATOM     51  H   UNL     1     -12.785  -2.506 136.562  0.00  0.00    +0.000 HD
ATOM     52  H   UNL     1     -12.635  -1.086 137.473  0.00  0.00    +0.000 HD
ENDBRANCH  47  48
ENDBRANCH  45  47
ENDBRANCH  42  43
BRANCH  42  53
ATOM     53  C   UNL     1      -7.434  -5.122 138.107  0.00  0.00    +0.000 C 
BRANCH  53  54
ATOM     54  C   UNL     1      -7.040  -5.860 139.374  0.00  0.00    +0.000 C 
ATOM     55  C   UNL     1      -5.581  -6.090 139.430  0.00  0.00    +0.000 C 
ATOM     56  C   UNL     1      -7.094  -5.048 140.607  0.00  0.00    +0.000 C 
ENDBRANCH  53  54
ENDBRANCH  42  53
ENDBRANCH  40  42
ENDBRANCH  37  38
ENDBRANCH  14  31
BRANCH   9  57
ATOM     57  N   UNL     1      -4.688   1.920 126.695  0.00  0.00    +0.000 NA
ATOM     58  H   UNL     1      -4.378   2.107 127.633  0.00  0.00    +0.000 HD
ATOM     59  H   UNL     1      -5.584   2.426 126.668  0.00  0.00    +0.000 HD
ENDBRANCH   9  57
BRANCH   1  60
ATOM     60  C   UNL     1      -7.387   5.263 132.230  0.00  0.00    +0.000 C 
ATOM     61  C   UNL     1      -8.142   5.770 134.141  0.00  0.00    +0.000 C 
BRANCH  60  63
ATOM     62  C   UNL     1     -10.530   6.229 132.601  0.00  0.00    +0.000 C 
ATOM     63  C   UNL     1      -8.892   6.149 132.933  0.00  0.00    +0.000 C 
ENDBRANCH  60  63
ENDBRANCH   1  60
BRANCH  18  64
ATOM     64  C   UNL     1      -5.991   1.594 131.187  0.00  0.00    +0.000 C 
BRANCH  64  65
ATOM     65  C   UNL     1      -4.621   1.222 131.616  0.00  0.00    +0.000 C 
ATOM     66  N   UNL     1      -4.157   0.030 132.068  0.00  0.00    +0.000 N 
ATOM     67  O   UNL     1      -3.920   2.185 131.512  0.00  0.00    +0.000 OA
ATOM     68  H   UNL     1      -4.739  -0.768 131.813  0.00  0.00    +0.000 HD
ATOM     69  H   UNL     1      -3.223  -0.363 131.835  0.00  0.00    +0.000 HD
ENDBRANCH  64  65
ENDBRANCH  18  64
BRANCH   5  70
ATOM     70  C   UNL     1      -7.181   3.115 125.229  0.00  0.00    +0.000 C 
BRANCH  70  71
ATOM     71  C   UNL     1      -8.221   2.426 124.385  0.00  0.00    +0.000 A 
ATOM     72  C   UNL     1      -8.437   2.619 122.998  0.00  0.00    +0.000 A 
ATOM     73  C   UNL     1      -9.461   1.942 122.368  0.00  0.00    +0.000 A 
ATOM     74  C   UNL     1     -10.317   1.178 123.142  0.00  0.00    +0.000 A 
ATOM     75  C   UNL     1     -10.226   1.177 124.523  0.00  0.00    +0.000 A 
ATOM     76  C   UNL     1      -9.200   1.817 125.148  0.00  0.00    +0.000 A 
BRANCH  74  77
ATOM     77  O   UNL     1     -11.289   0.383 122.627  0.00  0.00    +0.000 OA
ATOM     78  H   UNL     1     -12.133   0.489 123.090  0.00  0.00    +0.000 HD
ENDBRANCH  74  77
ENDBRANCH  70  71
ENDBRANCH   5  70
BRANCH  22  79
ATOM     79  C   UNL     1      -5.591   3.821 134.905  0.00  0.00    +0.000 C 
BRANCH  79  80
ATOM     80  C   UNL     1      -4.094   3.455 135.443  0.00  0.00    +0.000 C 
BRANCH  80  81
ATOM     81  C   UNL     1      -3.852   2.688 136.677  0.00  0.00    +0.000 C 
ATOM     82  N   UNL     1      -3.483   1.440 136.341  0.00  0.00    +0.000 N 
ATOM     83  O   UNL     1      -4.062   3.094 137.813  0.00  0.00    +0.000 OA
ATOM     84  H   UNL     1      -3.434   1.117 135.384  0.00  0.00    +0.000 HD
ATOM     85  H   UNL     1      -3.131   0.879 137.079  0.00  0.00    +0.000 HD
ENDBRANCH  80  81
ENDBRANCH  79  80
ENDBRANCH  22  79
TORSDOF 19
ENDMDL
MODEL 8
REMARK VINA RESULT:      -8.2      4.143     11.100
REMARK  Name = CHEMBL395429
REMARK  23 active torsions:
REMARK  status: ('A' for Active; 'I' for Inactive)
REMARK    1  A    between atoms: C_1  and  C_2
REMARK    2  A    between atoms: C_2  and  C_3
REMARK    3  A    between atoms: C_3  and  C_4
REMARK    4  A    between atoms: C_3  and  C_5
REMARK    5  A    between atoms: C_9  and  C_10
REMARK    6  A    between atoms: C_10  and  C_11
REMARK    7  A    between atoms: C_14  and  O_15
REMARK    8  A    between atoms: C_21  and  N_22
REMARK    9  A    between atoms: C_27  and  C_28
REMARK   10  A    between atoms: C_34  and  C_35
REMARK   11  A    between atoms: N_37  and  C_38
REMARK   12  A    between atoms: C_38  and  C_39
REMARK   13  A    between atoms: C_38  and  C_43
REMARK   14  A    between atoms: C_39  and  C_40
REMARK   15  A    between atoms: C_40  and  C_41
REMARK   16  A    between atoms: C_40  and  C_42
REMARK   17  A    between atoms: N_45  and  C_46
REMARK   18  A    between atoms: C_46  and  C_47
REMARK   19  A    between atoms: C_53  and  C_54
REMARK   20  A    between atoms: C_54  and  C_55
REMARK   21  A    between atoms: C_61  and  C_62
REMARK   22  A    between atoms: C_62  and  C_63
REMARK   23  A    between atoms: C_63  and  C_64
REMARK                            x       y       z     vdW  Elec       q    Type
REMARK                         _______ _______ _______ _____ _____    ______ ____
ROOT
ATOM      1  C   UNL     1      -5.803  -0.275 129.727  0.00  0.00    +0.000 C 
ATOM      2  N   UNL     1      -4.908  -1.852 130.966  0.00  0.00    +0.000 N 
ATOM      3  C   UNL     1      -4.219  -3.313 132.223  0.00  0.00    +0.000 C 
ATOM      4  O   UNL     1      -2.881  -3.828 132.669  0.00  0.00    +0.000 OA
ATOM      5  C   UNL     1      -4.616  -4.148 134.112  0.00  0.00    +0.000 C 
ATOM      6  N   UNL     1      -4.643  -3.459 135.626  0.00  0.00    +0.000 N 
ATOM      7  C   UNL     1      -4.253  -2.162 135.808  0.00  0.00    +0.000 C 
ATOM      8  O   UNL     1      -4.412  -1.536 136.848  0.00  0.00    +0.000 OA
ATOM      9  C   UNL     1      -3.630  -1.364 134.718  0.00  0.00    +0.000 C 
ATOM     10  C   UNL     1      -4.523  -0.438 134.015  0.00  0.00    +0.000 C 
ATOM     11  S   UNL     1      -4.318   0.825 135.269  0.00  0.00    +0.000 S 
ATOM     12  S   UNL     1      -5.792   2.053 134.998  0.00  0.00    +0.000 S 
ATOM     13  C   UNL     1      -5.595   3.758 135.444  0.00  0.00    +0.000 C 
ATOM     14  C   UNL     1      -6.511   4.831 134.890  0.00  0.00    +0.000 C 
ATOM     15  N   UNL     1      -5.997   5.281 133.588  0.00  0.00    +0.000 N 
ATOM     16  C   UNL     1      -5.805   4.488 132.528  0.00  0.00    +0.000 C 
ATOM     17  O   UNL     1      -5.320   4.970 131.517  0.00  0.00    +0.000 OA
ATOM     18  C   UNL     1      -6.307   3.083 132.642  0.00  0.00    +0.000 C 
ATOM     19  N   UNL     1      -7.466   3.011 131.940  0.00  0.00    +0.000 N 
ATOM     20  C   UNL     1      -7.000   2.434 130.908  0.00  0.00    +0.000 C 
ATOM     21  O   UNL     1      -7.974   1.514 130.730  0.00  0.00    +0.000 OA
ATOM     22  C   UNL     1      -5.525   3.112 129.782  0.00  0.00    +0.000 C 
ATOM     23  N   UNL     1      -4.738   2.088 128.844  0.00  0.00    +0.000 N 
ATOM     24  C   UNL     1      -5.142   0.824 128.389  0.00  0.00    +0.000 C 
ATOM     25  O   UNL     1      -5.326   0.710 127.157  0.00  0.00    +0.000 OA
ATOM     26  H   UNL     1      -3.890  -2.694 131.127  0.00  0.00    +0.000 HD
ATOM     27  H   UNL     1      -5.031  -3.865 136.548  0.00  0.00    +0.000 HD
ATOM     28  H   UNL     1      -5.673   6.241 133.471  0.00  0.00    +0.000 HD
ATOM     29  H   UNL     1      -8.393   2.565 132.038  0.00  0.00    +0.000 HD
ATOM     30  H   UNL     1      -3.995   1.719 129.340  0.00  0.00    +0.000 HD
ENDROOT
BRANCH  14  31
ATOM     31  C   UNL     1      -6.561   6.006 135.882  0.00  0.00    +0.000 C 
ATOM     32  O   UNL     1      -7.706   6.240 136.267  0.00  0.00    +0.000 OA
ATOM     33  N   UNL     1      -5.347   6.578 136.342  0.00  0.00    +0.000 N 
ATOM     34  C   UNL     1      -4.214   6.972 135.528  0.00  0.00    +0.000 C 
ATOM     35  C   UNL     1      -3.034   6.732 136.428  0.00  0.00    +0.000 C 
ATOM     36  C   UNL     1      -3.502   7.308 137.736  0.00  0.00    +0.000 C 
ATOM     37  C   UNL     1      -5.013   7.105 137.724  0.00  0.00    +0.000 C 
BRANCH  37  38
ATOM     38  C   UNL     1      -5.374   8.613 137.938  0.00  0.00    +0.000 C 
ATOM     39  O   UNL     1      -6.244   9.105 137.203  0.00  0.00    +0.000 OA
ATOM     40  N   UNL     1      -4.980   9.189 139.193  0.00  0.00    +0.000 N 
ATOM     41  H   UNL     1      -4.212   8.822 139.753  0.00  0.00    +0.000 HD
BRANCH  40  42
ATOM     42  C   UNL     1      -5.701  10.367 139.802  0.00  0.00    +0.000 C 
BRANCH  42  43
ATOM     43  C   UNL     1      -7.212  10.029 140.003  0.00  0.00    +0.000 C 
ATOM     44  O   UNL     1      -7.574   9.432 141.018  0.00  0.00    +0.000 OA
ATOM     45  N   UNL     1      -8.113  10.416 139.026  0.00  0.00    +0.000 N 
ATOM     46  H   UNL     1      -7.807  10.897 138.200  0.00  0.00    +0.000 HD
BRANCH  45  47
ATOM     47  C   UNL     1      -9.550  10.148 139.141  0.00  0.00    +0.000 C 
BRANCH  47  48
ATOM     48  C   UNL     1     -10.070   9.042 138.199  0.00  0.00    +0.000 C 
ATOM     49  N   UNL     1      -9.177   8.076 137.791  0.00  0.00    +0.000 N 
ATOM     50  O   UNL     1     -11.240   9.018 137.821  0.00  0.00    +0.000 OA
ATOM     51  H   UNL     1      -8.209   8.019 138.051  0.00  0.00    +0.000 HD
ATOM     52  H   UNL     1      -9.484   7.333 137.172  0.00  0.00    +0.000 HD
ENDBRANCH  47  48
ENDBRANCH  45  47
ENDBRANCH  42  43
BRANCH  42  53
ATOM     53  C   UNL     1      -5.598  11.676 138.983  0.00  0.00    +0.000 C 
BRANCH  53  54
ATOM     54  C   UNL     1      -5.540  12.925 139.844  0.00  0.00    +0.000 C 
ATOM     55  C   UNL     1      -4.619  13.930 139.270  0.00  0.00    +0.000 C 
ATOM     56  C   UNL     1      -6.739  13.786 139.769  0.00  0.00    +0.000 C 
ENDBRANCH  53  54
ENDBRANCH  42  53
ENDBRANCH  40  42
ENDBRANCH  37  38
ENDBRANCH  14  31
BRANCH   9  57
ATOM     57  N   UNL     1      -3.437  -2.102 133.625  0.00  0.00    +0.000 NA
ATOM     58  H   UNL     1      -4.410  -2.337 133.540  0.00  0.00    +0.000 HD
ATOM     59  H   UNL     1      -3.035  -2.995 133.942  0.00  0.00    +0.000 HD
ENDBRANCH   9  57
BRANCH   1  60
ATOM     60  C   UNL     1      -7.083   1.407 128.779  0.00  0.00    +0.000 C 
ATOM     61  C   UNL     1      -8.056   2.947 127.701  0.00  0.00    +0.000 C 
BRANCH  60  63
ATOM     62  C   UNL     1      -9.131   0.785 126.256  0.00  0.00    +0.000 C 
ATOM     63  C   UNL     1      -8.559   1.566 127.620  0.00  0.00    +0.000 C 
ENDBRANCH  60  63
ENDBRANCH   1  60
BRANCH  18  64
ATOM     64  C   UNL     1      -5.219   2.038 132.333  0.00  0.00    +0.000 C 
BRANCH  64  65
ATOM     65  C   UNL     1      -3.880   2.675 132.295  0.00  0.00    +0.000 C 
ATOM     66  N   UNL     1      -3.281   3.467 133.220  0.00  0.00    +0.000 N 
ATOM     67  O   UNL     1      -3.355   2.387 131.261  0.00  0.00    +0.000 OA
ATOM     68  H   UNL     1      -3.668   3.378 134.160  0.00  0.00    +0.000 HD
ATOM     69  H   UNL     1      -2.268   3.433 133.453  0.00  0.00    +0.000 HD
ENDBRANCH  64  65
ENDBRANCH  18  64
BRANCH   5  70
ATOM     70  C   UNL     1      -5.846  -4.091 133.460  0.00  0.00    +0.000 C 
BRANCH  70  71
ATOM     71  C   UNL     1      -6.683  -4.780 134.506  0.00  0.00    +0.000 A 
ATOM     72  C   UNL     1      -6.455  -6.070 135.046  0.00  0.00    +0.000 A 
ATOM     73  C   UNL     1      -7.338  -6.584 135.974  0.00  0.00    +0.000 A 
ATOM     74  C   UNL     1      -8.483  -5.864 136.260  0.00  0.00    +0.000 A 
ATOM     75  C   UNL     1      -8.801  -4.713 135.560  0.00  0.00    +0.000 A 
ATOM     76  C   UNL     1      -7.920  -4.183 134.667  0.00  0.00    +0.000 A 
BRANCH  74  77
ATOM     77  O   UNL     1      -9.368  -6.212 137.230  0.00  0.00    +0.000 OA
ATOM     78  H   UNL     1      -9.150  -5.814 138.085  0.00  0.00    +0.000 HD
ENDBRANCH  74  77
ENDBRANCH  70  71
ENDBRANCH   5  70
BRANCH  22  79
ATOM     79  C   UNL     1      -5.480   4.552 128.790  0.00  0.00    +0.000 C 
BRANCH  79  80
ATOM     80  C   UNL     1      -4.044   4.861 128.077  0.00  0.00    +0.000 C 
BRANCH  80  81
ATOM     81  C   UNL     1      -2.999   5.685 128.707  0.00  0.00    +0.000 C 
ATOM     82  N   UNL     1      -2.761   5.208 129.941  0.00  0.00    +0.000 N 
ATOM     83  O   UNL     1      -2.513   6.700 128.224  0.00  0.00    +0.000 OA
ATOM     84  H   UNL     1      -3.272   4.432 130.340  0.00  0.00    +0.000 HD
ATOM     85  H   UNL     1      -1.962   5.573 130.400  0.00  0.00    +0.000 HD
ENDBRANCH  80  81
ENDBRANCH  79  80
ENDBRANCH  22  79
TORSDOF 19
ENDMDL
MODEL 9
REMARK VINA RESULT:      -8.2      3.405     10.453
REMARK  Name = CHEMBL395429
REMARK  23 active torsions:
REMARK  status: ('A' for Active; 'I' for Inactive)
REMARK    1  A    between atoms: C_1  and  C_2
REMARK    2  A    between atoms: C_2  and  C_3
REMARK    3  A    between atoms: C_3  and  C_4
REMARK    4  A    between atoms: C_3  and  C_5
REMARK    5  A    between atoms: C_9  and  C_10
REMARK    6  A    between atoms: C_10  and  C_11
REMARK    7  A    between atoms: C_14  and  O_15
REMARK    8  A    between atoms: C_21  and  N_22
REMARK    9  A    between atoms: C_27  and  C_28
REMARK   10  A    between atoms: C_34  and  C_35
REMARK   11  A    between atoms: N_37  and  C_38
REMARK   12  A    between atoms: C_38  and  C_39
REMARK   13  A    between atoms: C_38  and  C_43
REMARK   14  A    between atoms: C_39  and  C_40
REMARK   15  A    between atoms: C_40  and  C_41
REMARK   16  A    between atoms: C_40  and  C_42
REMARK   17  A    between atoms: N_45  and  C_46
REMARK   18  A    between atoms: C_46  and  C_47
REMARK   19  A    between atoms: C_53  and  C_54
REMARK   20  A    between atoms: C_54  and  C_55
REMARK   21  A    between atoms: C_61  and  C_62
REMARK   22  A    between atoms: C_62  and  C_63
REMARK   23  A    between atoms: C_63  and  C_64
REMARK                            x       y       z     vdW  Elec       q    Type
REMARK                         _______ _______ _______ _____ _____    ______ ____
ROOT
ATOM      1  C   UNL     1      -5.951   2.292 127.816  0.00  0.00    +0.000 C 
ATOM      2  N   UNL     1      -5.928   4.143 128.997  0.00  0.00    +0.000 N 
ATOM      3  C   UNL     1      -5.765   5.804 130.182  0.00  0.00    +0.000 C 
ATOM      4  O   UNL     1      -6.693   6.851 130.729  0.00  0.00    +0.000 OA
ATOM      5  C   UNL     1      -4.795   6.463 131.928  0.00  0.00    +0.000 C 
ATOM      6  N   UNL     1      -4.839   5.883 133.487  0.00  0.00    +0.000 N 
ATOM      7  C   UNL     1      -5.700   4.878 133.832  0.00  0.00    +0.000 C 
ATOM      8  O   UNL     1      -5.667   4.283 134.901  0.00  0.00    +0.000 OA
ATOM      9  C   UNL     1      -6.746   4.378 132.899  0.00  0.00    +0.000 C 
ATOM     10  C   UNL     1      -6.424   3.137 132.189  0.00  0.00    +0.000 C 
ATOM     11  S   UNL     1      -6.953   2.126 133.570  0.00  0.00    +0.000 S 
ATOM     12  S   UNL     1      -6.173   0.381 133.248  0.00  0.00    +0.000 S 
ATOM     13  C   UNL     1      -6.991  -1.064 133.870  0.00  0.00    +0.000 C 
ATOM     14  C   UNL     1      -6.689  -2.442 133.319  0.00  0.00    +0.000 C 
ATOM     15  N   UNL     1      -7.523  -2.681 132.131  0.00  0.00    +0.000 N 
ATOM     16  C   UNL     1      -7.518  -1.921 131.030  0.00  0.00    +0.000 C 
ATOM     17  O   UNL     1      -8.298  -2.190 130.130  0.00  0.00    +0.000 OA
ATOM     18  C   UNL     1      -6.471  -0.856 130.955  0.00  0.00    +0.000 C 
ATOM     19  N   UNL     1      -5.498  -1.305 130.122  0.00  0.00    +0.000 N 
ATOM     20  C   UNL     1      -5.826  -0.624 129.101  0.00  0.00    +0.000 C 
ATOM     21  O   UNL     1      -4.595  -0.208 128.729  0.00  0.00    +0.000 OA
ATOM     22  C   UNL     1      -7.593  -0.657 128.218  0.00  0.00    +0.000 C 
ATOM     23  N   UNL     1      -8.012   0.568 127.285  0.00  0.00    +0.000 N 
ATOM     24  C   UNL     1      -7.191   1.526 126.671  0.00  0.00    +0.000 C 
ATOM     25  O   UNL     1      -7.153   1.507 125.420  0.00  0.00    +0.000 OA
ATOM     26  H   UNL     1      -6.474   5.342 129.194  0.00  0.00    +0.000 HD
ATOM     27  H   UNL     1      -4.192   6.120 134.317  0.00  0.00    +0.000 HD
ATOM     28  H   UNL     1      -8.227  -3.418 132.141  0.00  0.00    +0.000 HD
ATOM     29  H   UNL     1      -4.466  -1.289 130.072  0.00  0.00    +0.000 HD
ATOM     30  H   UNL     1      -8.457   1.234 127.825  0.00  0.00    +0.000 HD
ENDROOT
BRANCH  14  31
ATOM     31  C   UNL     1      -6.989  -3.491 134.404  0.00  0.00    +0.000 C 
ATOM     32  O   UNL     1      -8.194  -3.586 134.636  0.00  0.00    +0.000 OA
ATOM     33  N   UNL     1      -5.933  -4.299 134.899  0.00  0.00    +0.000 N 
ATOM     34  C   UNL     1      -4.626  -3.845 135.329  0.00  0.00    +0.000 C 
ATOM     35  C   UNL     1      -3.721  -4.992 134.978  0.00  0.00    +0.000 C 
ATOM     36  C   UNL     1      -4.509  -6.182 135.450  0.00  0.00    +0.000 C 
ATOM     37  C   UNL     1      -5.967  -5.763 135.293  0.00  0.00    +0.000 C 
BRANCH  37  38
ATOM     38  C   UNL     1      -6.363  -6.013 136.786  0.00  0.00    +0.000 C 
ATOM     39  O   UNL     1      -5.481  -6.426 137.554  0.00  0.00    +0.000 OA
ATOM     40  N   UNL     1      -7.573  -5.384 137.237  0.00  0.00    +0.000 N 
ATOM     41  H   UNL     1      -8.327  -5.119 136.605  0.00  0.00    +0.000 HD
BRANCH  40  42
ATOM     42  C   UNL     1      -7.807  -5.030 138.685  0.00  0.00    +0.000 C 
BRANCH  42  43
ATOM     43  C   UNL     1      -9.338  -4.995 138.991  0.00  0.00    +0.000 C 
ATOM     44  O   UNL     1      -9.729  -5.052 140.158  0.00  0.00    +0.000 OA
ATOM     45  N   UNL     1     -10.223  -4.897 137.931  0.00  0.00    +0.000 N 
ATOM     46  H   UNL     1      -9.894  -4.857 136.983  0.00  0.00    +0.000 HD
BRANCH  45  47
ATOM     47  C   UNL     1     -11.675  -4.847 138.131  0.00  0.00    +0.000 C 
BRANCH  47  48
ATOM     48  C   UNL     1     -12.236  -3.430 138.373  0.00  0.00    +0.000 C 
ATOM     49  N   UNL     1     -11.661  -2.386 137.682  0.00  0.00    +0.000 N 
ATOM     50  O   UNL     1     -13.164  -3.231 139.155  0.00  0.00    +0.000 OA
ATOM     51  H   UNL     1     -10.903  -2.459 137.027  0.00  0.00    +0.000 HD
ATOM     52  H   UNL     1     -12.003  -1.441 137.817  0.00  0.00    +0.000 HD
ENDBRANCH  47  48
ENDBRANCH  45  47
ENDBRANCH  42  43
BRANCH  42  53
ATOM     53  C   UNL     1      -7.190  -3.681 139.123  0.00  0.00    +0.000 C 
BRANCH  53  54
ATOM     54  C   UNL     1      -7.662  -2.501 138.292  0.00  0.00    +0.000 C 
ATOM     55  C   UNL     1      -8.215  -1.429 139.147  0.00  0.00    +0.000 C 
ATOM     56  C   UNL     1      -6.580  -1.672 137.723  0.00  0.00    +0.000 C 
ENDBRANCH  53  54
ENDBRANCH  42  53
ENDBRANCH  40  42
ENDBRANCH  37  38
ENDBRANCH  14  31
BRANCH   9  57
ATOM     57  N   UNL     1      -6.770   5.089 131.771  0.00  0.00    +0.000 NA
ATOM     58  H   UNL     1      -7.292   5.841 132.187  0.00  0.00    +0.000 HD
ATOM     59  H   UNL     1      -7.480   4.653 131.167  0.00  0.00    +0.000 HD
ENDBRANCH   9  57
BRANCH   1  60
ATOM     60  C   UNL     1      -5.630   0.193 126.890  0.00  0.00    +0.000 C 
ATOM     61  C   UNL     1      -5.613  -1.707 125.958  0.00  0.00    +0.000 C 
BRANCH  60  63
ATOM     62  C   UNL     1      -5.337  -1.910 124.352  0.00  0.00    +0.000 C 
ATOM     63  C   UNL     1      -5.018  -0.549 125.271  0.00  0.00    +0.000 C 
ENDBRANCH  60  63
ENDBRANCH   1  60
BRANCH  18  64
ATOM     64  C   UNL     1      -7.062   0.539 130.676  0.00  0.00    +0.000 C 
BRANCH  64  65
ATOM     65  C   UNL     1      -8.527   0.539 130.904  0.00  0.00    +0.000 C 
ATOM     66  N   UNL     1      -9.253  -0.155 131.817  0.00  0.00    +0.000 N 
ATOM     67  O   UNL     1      -9.031   1.281 130.115  0.00  0.00    +0.000 OA
ATOM     68  H   UNL     1      -8.712  -0.487 132.616  0.00  0.00    +0.000 HD
ATOM     69  H   UNL     1     -10.079   0.225 132.321  0.00  0.00    +0.000 HD
ENDBRANCH  64  65
ENDBRANCH  18  64
BRANCH   5  70
ATOM     70  C   UNL     1      -3.805   5.867 131.148  0.00  0.00    +0.000 C 
BRANCH  70  71
ATOM     71  C   UNL     1      -2.606   6.555 131.750  0.00  0.00    +0.000 A 
ATOM     72  C   UNL     1      -1.451   5.922 132.271  0.00  0.00    +0.000 A 
ATOM     73  C   UNL     1      -0.448   6.688 132.828  0.00  0.00    +0.000 A 
ATOM     74  C   UNL     1      -0.659   8.049 132.961  0.00  0.00    +0.000 A 
ATOM     75  C   UNL     1      -1.881   8.619 132.650  0.00  0.00    +0.000 A 
ATOM     76  C   UNL     1      -2.862   7.875 132.071  0.00  0.00    +0.000 A 
BRANCH  74  77
ATOM     77  O   UNL     1       0.291   8.919 133.392  0.00  0.00    +0.000 OA
ATOM     78  H   UNL     1       0.150   9.190 134.310  0.00  0.00    +0.000 HD
ENDBRANCH  74  77
ENDBRANCH  70  71
ENDBRANCH   5  70
BRANCH  22  79
ATOM     79  C   UNL     1      -8.370  -1.979 127.376  0.00  0.00    +0.000 C 
BRANCH  79  80
ATOM     80  C   UNL     1      -8.959  -1.612 125.898  0.00  0.00    +0.000 C 
BRANCH  80  81
ATOM     81  C   UNL     1      -9.124  -2.613 124.831  0.00  0.00    +0.000 C 
ATOM     82  N   UNL     1      -8.467  -3.731 125.187  0.00  0.00    +0.000 N 
ATOM     83  O   UNL     1      -9.675  -2.416 123.755  0.00  0.00    +0.000 OA
ATOM     84  H   UNL     1      -7.928  -3.807 126.039  0.00  0.00    +0.000 HD
ATOM     85  H   UNL     1      -8.643  -4.533 124.631  0.00  0.00    +0.000 HD
ENDBRANCH  80  81
ENDBRANCH  79  80
ENDBRANCH  22  79
TORSDOF 19
ENDMDL
