MODEL 1
REMARK VINA RESULT:      -8.8      0.000      0.000
REMARK  Name = CHEMBL198630
REMARK  9 active torsions:
REMARK  status: ('A' for Active; 'I' for Inactive)
REMARK    1  A    between atoms: C_1  and  C_2
REMARK    2  A    between atoms: C_2  and  C_24
REMARK    3  A    between atoms: N_3  and  N_4
REMARK    4  A    between atoms: C_5  and  C_7
REMARK    5  A    between atoms: C_7  and  N_8
REMARK    6  A    between atoms: N_8  and  C_9
REMARK    7  A    between atoms: N_8  and  S_15
REMARK    8  A    between atoms: S_15  and  C_18
REMARK    9  A    between atoms: C_29  and  O_30
REMARK                            x       y       z     vdW  Elec       q    Type
REMARK                         _______ _______ _______ _____ _____    ______ ____
ROOT
ATOM      1  C   UNL     1      -9.951   0.589 125.214  0.00  0.00    +0.000 C 
ENDROOT
BRANCH   1   3
ATOM      2  N   UNL     1      -9.118   2.598 123.955  0.00  0.00    +0.000 N 
ATOM      3  C   UNL     1      -9.611   1.304 123.876  0.00  0.00    +0.000 C 
ATOM      4  O   UNL     1      -9.778   0.791 122.768  0.00  0.00    +0.000 OA
ATOM      5  H   UNL     1      -9.231   3.145 124.795  0.00  0.00    +0.000 HD
BRANCH   2   8
ATOM      6  C   UNL     1      -6.314   2.792 123.374  0.00  0.00    +0.000 C 
ATOM      7  C   UNL     1      -7.431   3.245 122.464  0.00  0.00    +0.000 C 
ATOM      8  N   UNL     1      -8.691   3.177 122.774  0.00  0.00    +0.000 NA
BRANCH   7   9
ATOM      9  C   UNL     1      -7.044   3.825 121.121  0.00  0.00    +0.000 A 
ATOM     10  C   UNL     1      -5.742   4.305 120.894  0.00  0.00    +0.000 A 
ATOM     11  C   UNL     1      -5.418   4.943 119.683  0.00  0.00    +0.000 A 
ATOM     12  C   UNL     1      -6.372   5.058 118.672  0.00  0.00    +0.000 A 
ATOM     13  C   UNL     1      -7.659   4.568 118.877  0.00  0.00    +0.000 A 
ATOM     14  C   UNL     1      -7.991   3.965 120.096  0.00  0.00    +0.000 A 
BRANCH  14  15
ATOM     15  O   UNL     1      -9.279   3.547 120.283  0.00  0.00    +0.000 OA
ATOM     16  H   UNL     1      -9.315   2.578 120.292  0.00  0.00    +0.000 HD
ENDBRANCH  14  15
ENDBRANCH   7   9
ENDBRANCH   2   8
ENDBRANCH   1   3
BRANCH   1  17
ATOM     17  N   UNL     1      -8.796  -0.017 125.962  0.00  0.00    +0.000 N 
BRANCH  17  18
ATOM     18  C   UNL     1      -7.969   0.787 126.809  0.00  0.00    +0.000 A 
ATOM     19  C   UNL     1      -8.516   1.360 127.957  0.00  0.00    +0.000 A 
ATOM     20  C   UNL     1      -7.742   2.171 128.776  0.00  0.00    +0.000 A 
ATOM     21  C   UNL     1      -6.366   2.215 128.589  0.00  0.00    +0.000 A 
ATOM     22  C   UNL     1      -5.791   1.557 127.505  0.00  0.00    +0.000 A 
ATOM     23  C   UNL     1      -6.602   0.926 126.564  0.00  0.00    +0.000 A 
ENDBRANCH  17  18
BRANCH  17  24
ATOM     24  S   UNL     1      -8.615  -1.708 125.961  0.00  0.00    +0.000 S 
ATOM     25  O   UNL     1      -8.167  -2.106 127.289  0.00  0.00    +0.000 OA
ATOM     26  O   UNL     1      -9.836  -2.271 125.427  0.00  0.00    +0.000 OA
BRANCH  24  27
ATOM     27  C   UNL     1      -7.286  -2.142 124.826  0.00  0.00    +0.000 A 
ATOM     28  C   UNL     1      -6.160  -2.846 125.284  0.00  0.00    +0.000 A 
ATOM     29  C   UNL     1      -5.110  -3.130 124.404  0.00  0.00    +0.000 A 
ATOM     30  C   UNL     1      -5.194  -2.741 123.066  0.00  0.00    +0.000 A 
ATOM     31  C   UNL     1      -6.315  -2.045 122.611  0.00  0.00    +0.000 A 
ATOM     32  C   UNL     1      -7.358  -1.733 123.489  0.00  0.00    +0.000 A 
ENDBRANCH  24  27
ENDBRANCH  17  24
ENDBRANCH   1  17
TORSDOF 8
ENDMDL
MODEL 2
REMARK VINA RESULT:      -8.7      2.576      3.301
REMARK  Name = CHEMBL198630
REMARK  9 active torsions:
REMARK  status: ('A' for Active; 'I' for Inactive)
REMARK    1  A    between atoms: C_1  and  C_2
REMARK    2  A    between atoms: C_2  and  C_24
REMARK    3  A    between atoms: N_3  and  N_4
REMARK    4  A    between atoms: C_5  and  C_7
REMARK    5  A    between atoms: C_7  and  N_8
REMARK    6  A    between atoms: N_8  and  C_9
REMARK    7  A    between atoms: N_8  and  S_15
REMARK    8  A    between atoms: S_15  and  C_18
REMARK    9  A    between atoms: C_29  and  O_30
REMARK                            x       y       z     vdW  Elec       q    Type
REMARK                         _______ _______ _______ _____ _____    ______ ____
ROOT
ATOM      1  C   UNL     1      -7.731   0.016 127.403  0.00  0.00    +0.000 C 
ENDROOT
BRANCH   1   3
ATOM      2  N   UNL     1      -7.628   1.179 125.178  0.00  0.00    +0.000 N 
ATOM      3  C   UNL     1      -6.923   0.732 126.285  0.00  0.00    +0.000 C 
ATOM      4  O   UNL     1      -5.702   0.897 126.328  0.00  0.00    +0.000 OA
ATOM      5  H   UNL     1      -8.550   0.825 124.973  0.00  0.00    +0.000 HD
BRANCH   2   8
ATOM      6  C   UNL     1      -9.012   2.459 123.014  0.00  0.00    +0.000 C 
ATOM      7  C   UNL     1      -7.529   2.556 123.285  0.00  0.00    +0.000 C 
ATOM      8  N   UNL     1      -6.928   1.932 124.254  0.00  0.00    +0.000 NA
BRANCH   7   9
ATOM      9  C   UNL     1      -6.707   3.422 122.357  0.00  0.00    +0.000 A 
ATOM     10  C   UNL     1      -7.030   3.523 120.992  0.00  0.00    +0.000 A 
ATOM     11  C   UNL     1      -6.199   4.238 120.113  0.00  0.00    +0.000 A 
ATOM     12  C   UNL     1      -5.073   4.904 120.596  0.00  0.00    +0.000 A 
ATOM     13  C   UNL     1      -4.753   4.830 121.949  0.00  0.00    +0.000 A 
ATOM     14  C   UNL     1      -5.561   4.087 122.818  0.00  0.00    +0.000 A 
BRANCH  14  15
ATOM     15  O   UNL     1      -5.185   3.990 124.128  0.00  0.00    +0.000 OA
ATOM     16  H   UNL     1      -4.219   4.032 124.200  0.00  0.00    +0.000 HD
ENDBRANCH  14  15
ENDBRANCH   7   9
ENDBRANCH   2   8
ENDBRANCH   1   3
BRANCH   1  17
ATOM     17  N   UNL     1      -7.716  -1.488 127.380  0.00  0.00    +0.000 N 
BRANCH  17  18
ATOM     18  C   UNL     1      -7.237  -2.232 128.504  0.00  0.00    +0.000 A 
ATOM     19  C   UNL     1      -5.892  -2.596 128.563  0.00  0.00    +0.000 A 
ATOM     20  C   UNL     1      -5.410  -3.347 129.627  0.00  0.00    +0.000 A 
ATOM     21  C   UNL     1      -6.209  -3.527 130.750  0.00  0.00    +0.000 A 
ATOM     22  C   UNL     1      -7.525  -3.073 130.748  0.00  0.00    +0.000 A 
ATOM     23  C   UNL     1      -8.066  -2.514 129.592  0.00  0.00    +0.000 A 
ENDBRANCH  17  18
BRANCH  17  24
ATOM     24  S   UNL     1      -8.475  -2.298 126.091  0.00  0.00    +0.000 S 
ATOM     25  O   UNL     1      -8.726  -3.668 126.516  0.00  0.00    +0.000 OA
ATOM     26  O   UNL     1      -9.584  -1.475 125.660  0.00  0.00    +0.000 OA
BRANCH  24  27
ATOM     27  C   UNL     1      -7.318  -2.396 124.715  0.00  0.00    +0.000 A 
ATOM     28  C   UNL     1      -6.024  -2.910 124.908  0.00  0.00    +0.000 A 
ATOM     29  C   UNL     1      -5.117  -2.931 123.844  0.00  0.00    +0.000 A 
ATOM     30  C   UNL     1      -5.504  -2.471 122.584  0.00  0.00    +0.000 A 
ATOM     31  C   UNL     1      -6.791  -1.965 122.392  0.00  0.00    +0.000 A 
ATOM     32  C   UNL     1      -7.696  -1.914 123.456  0.00  0.00    +0.000 A 
ENDBRANCH  24  27
ENDBRANCH  17  24
ENDBRANCH   1  17
TORSDOF 8
ENDMDL
MODEL 3
REMARK VINA RESULT:      -8.7      2.978      7.465
REMARK  Name = CHEMBL198630
REMARK  9 active torsions:
REMARK  status: ('A' for Active; 'I' for Inactive)
REMARK    1  A    between atoms: C_1  and  C_2
REMARK    2  A    between atoms: C_2  and  C_24
REMARK    3  A    between atoms: N_3  and  N_4
REMARK    4  A    between atoms: C_5  and  C_7
REMARK    5  A    between atoms: C_7  and  N_8
REMARK    6  A    between atoms: N_8  and  C_9
REMARK    7  A    between atoms: N_8  and  S_15
REMARK    8  A    between atoms: S_15  and  C_18
REMARK    9  A    between atoms: C_29  and  O_30
REMARK                            x       y       z     vdW  Elec       q    Type
REMARK                         _______ _______ _______ _____ _____    ______ ____
ROOT
ATOM      1  C   UNL     1      -8.762   1.126 125.972  0.00  0.00    +0.000 C 
ENDROOT
BRANCH   1   3
ATOM      2  N   UNL     1      -8.159  -0.458 127.827  0.00  0.00    +0.000 N 
ATOM      3  C   UNL     1      -7.711   0.502 126.932  0.00  0.00    +0.000 C 
ATOM      4  O   UNL     1      -6.524   0.833 126.949  0.00  0.00    +0.000 OA
ATOM      5  H   UNL     1      -9.141  -0.550 128.039  0.00  0.00    +0.000 HD
BRANCH   2   8
ATOM      6  C   UNL     1      -8.312  -3.295 128.233  0.00  0.00    +0.000 C 
ATOM      7  C   UNL     1      -7.217  -2.393 128.753  0.00  0.00    +0.000 C 
ATOM      8  N   UNL     1      -7.198  -1.104 128.582  0.00  0.00    +0.000 NA
BRANCH   7   9
ATOM      9  C   UNL     1      -6.091  -3.040 129.529  0.00  0.00    +0.000 A 
ATOM     10  C   UNL     1      -6.360  -4.007 130.513  0.00  0.00    +0.000 A 
ATOM     11  C   UNL     1      -5.321  -4.523 131.308  0.00  0.00    +0.000 A 
ATOM     12  C   UNL     1      -4.003  -4.122 131.090  0.00  0.00    +0.000 A 
ATOM     13  C   UNL     1      -3.722  -3.180 130.104  0.00  0.00    +0.000 A 
ATOM     14  C   UNL     1      -4.760  -2.639 129.337  0.00  0.00    +0.000 A 
BRANCH  14  15
ATOM     15  O   UNL     1      -4.454  -1.676 128.418  0.00  0.00    +0.000 OA
ATOM     16  H   UNL     1      -5.263  -1.359 127.987  0.00  0.00    +0.000 HD
ENDBRANCH  14  15
ENDBRANCH   7   9
ENDBRANCH   2   8
ENDBRANCH   1   3
BRANCH   1  17
ATOM     17  N   UNL     1      -8.700   0.689 124.534  0.00  0.00    +0.000 N 
BRANCH  17  18
ATOM     18  C   UNL     1      -8.222   1.575 123.519  0.00  0.00    +0.000 A 
ATOM     19  C   UNL     1      -9.134   2.332 122.784  0.00  0.00    +0.000 A 
ATOM     20  C   UNL     1      -8.697   3.175 121.771  0.00  0.00    +0.000 A 
ATOM     21  C   UNL     1      -7.340   3.449 121.652  0.00  0.00    +0.000 A 
ATOM     22  C   UNL     1      -6.421   2.779 122.455  0.00  0.00    +0.000 A 
ATOM     23  C   UNL     1      -6.855   1.775 123.318  0.00  0.00    +0.000 A 
ENDBRANCH  17  18
BRANCH  17  24
ATOM     24  S   UNL     1      -8.999  -0.944 124.161  0.00  0.00    +0.000 S 
ATOM     25  O   UNL     1      -9.616  -1.559 125.328  0.00  0.00    +0.000 OA
ATOM     26  O   UNL     1      -9.694  -0.974 122.892  0.00  0.00    +0.000 OA
BRANCH  24  27
ATOM     27  C   UNL     1      -7.420  -1.776 123.923  0.00  0.00    +0.000 A 
ATOM     28  C   UNL     1      -6.745  -2.347 125.015  0.00  0.00    +0.000 A 
ATOM     29  C   UNL     1      -5.493  -2.943 124.827  0.00  0.00    +0.000 A 
ATOM     30  C   UNL     1      -4.929  -2.998 123.551  0.00  0.00    +0.000 A 
ATOM     31  C   UNL     1      -5.602  -2.434 122.466  0.00  0.00    +0.000 A 
ATOM     32  C   UNL     1      -6.841  -1.812 122.649  0.00  0.00    +0.000 A 
ENDBRANCH  24  27
ENDBRANCH  17  24
ENDBRANCH   1  17
TORSDOF 8
ENDMDL
MODEL 4
REMARK VINA RESULT:      -8.5      5.251      7.553
REMARK  Name = CHEMBL198630
REMARK  9 active torsions:
REMARK  status: ('A' for Active; 'I' for Inactive)
REMARK    1  A    between atoms: C_1  and  C_2
REMARK    2  A    between atoms: C_2  and  C_24
REMARK    3  A    between atoms: N_3  and  N_4
REMARK    4  A    between atoms: C_5  and  C_7
REMARK    5  A    between atoms: C_7  and  N_8
REMARK    6  A    between atoms: N_8  and  C_9
REMARK    7  A    between atoms: N_8  and  S_15
REMARK    8  A    between atoms: S_15  and  C_18
REMARK    9  A    between atoms: C_29  and  O_30
REMARK                            x       y       z     vdW  Elec       q    Type
REMARK                         _______ _______ _______ _____ _____    ______ ____
ROOT
ATOM      1  C   UNL     1      -6.193   3.267 129.020  0.00  0.00    +0.000 C 
ENDROOT
BRANCH   1   3
ATOM      2  N   UNL     1      -8.450   4.237 129.547  0.00  0.00    +0.000 N 
ATOM      3  C   UNL     1      -7.437   4.105 128.610  0.00  0.00    +0.000 C 
ATOM      4  O   UNL     1      -7.570   4.626 127.501  0.00  0.00    +0.000 OA
ATOM      5  H   UNL     1      -8.512   3.611 130.335  0.00  0.00    +0.000 HD
BRANCH   2   8
ATOM      6  C   UNL     1      -8.679   6.784 130.850  0.00  0.00    +0.000 C 
ATOM      7  C   UNL     1      -9.599   6.267 129.770  0.00  0.00    +0.000 C 
ATOM      8  N   UNL     1      -9.489   5.091 129.226  0.00  0.00    +0.000 NA
BRANCH   7   9
ATOM      9  C   UNL     1     -10.719   7.177 129.315  0.00  0.00    +0.000 A 
ATOM     10  C   UNL     1     -11.606   7.745 130.246  0.00  0.00    +0.000 A 
ATOM     11  C   UNL     1     -12.711   8.499 129.810  0.00  0.00    +0.000 A 
ATOM     12  C   UNL     1     -12.906   8.737 128.450  0.00  0.00    +0.000 A 
ATOM     13  C   UNL     1     -12.023   8.196 127.519  0.00  0.00    +0.000 A 
ATOM     14  C   UNL     1     -10.944   7.416 127.951  0.00  0.00    +0.000 A 
BRANCH  14  15
ATOM     15  O   UNL     1     -10.131   6.855 127.007  0.00  0.00    +0.000 OA
ATOM     16  H   UNL     1      -9.204   6.924 127.285  0.00  0.00    +0.000 HD
ENDBRANCH  14  15
ENDBRANCH   7   9
ENDBRANCH   2   8
ENDBRANCH   1   3
BRANCH   1  17
ATOM     17  N   UNL     1      -4.928   3.525 128.248  0.00  0.00    +0.000 N 
BRANCH  17  18
ATOM     18  C   UNL     1      -4.032   4.569 128.637  0.00  0.00    +0.000 A 
ATOM     19  C   UNL     1      -3.292   4.435 129.812  0.00  0.00    +0.000 A 
ATOM     20  C   UNL     1      -2.440   5.449 130.228  0.00  0.00    +0.000 A 
ATOM     21  C   UNL     1      -2.139   6.487 129.355  0.00  0.00    +0.000 A 
ATOM     22  C   UNL     1      -2.792   6.576 128.128  0.00  0.00    +0.000 A 
ATOM     23  C   UNL     1      -3.806   5.673 127.813  0.00  0.00    +0.000 A 
ENDBRANCH  17  18
BRANCH  17  24
ATOM     24  S   UNL     1      -4.468   2.422 127.037  0.00  0.00    +0.000 S 
ATOM     25  O   UNL     1      -3.055   2.636 126.757  0.00  0.00    +0.000 OA
ATOM     26  O   UNL     1      -4.917   1.112 127.455  0.00  0.00    +0.000 OA
BRANCH  24  27
ATOM     27  C   UNL     1      -5.354   2.830 125.523  0.00  0.00    +0.000 A 
ATOM     28  C   UNL     1      -6.314   1.947 125.000  0.00  0.00    +0.000 A 
ATOM     29  C   UNL     1      -6.956   2.251 123.794  0.00  0.00    +0.000 A 
ATOM     30  C   UNL     1      -6.668   3.443 123.129  0.00  0.00    +0.000 A 
ATOM     31  C   UNL     1      -5.718   4.322 123.652  0.00  0.00    +0.000 A 
ATOM     32  C   UNL     1      -5.051   4.015 124.842  0.00  0.00    +0.000 A 
ENDBRANCH  24  27
ENDBRANCH  17  24
ENDBRANCH   1  17
TORSDOF 8
ENDMDL
MODEL 5
REMARK VINA RESULT:      -8.4      4.122      6.947
REMARK  Name = CHEMBL198630
REMARK  9 active torsions:
REMARK  status: ('A' for Active; 'I' for Inactive)
REMARK    1  A    between atoms: C_1  and  C_2
REMARK    2  A    between atoms: C_2  and  C_24
REMARK    3  A    between atoms: N_3  and  N_4
REMARK    4  A    between atoms: C_5  and  C_7
REMARK    5  A    between atoms: C_7  and  N_8
REMARK    6  A    between atoms: N_8  and  C_9
REMARK    7  A    between atoms: N_8  and  S_15
REMARK    8  A    between atoms: S_15  and  C_18
REMARK    9  A    between atoms: C_29  and  O_30
REMARK                            x       y       z     vdW  Elec       q    Type
REMARK                         _______ _______ _______ _____ _____    ______ ____
ROOT
ATOM      1  C   UNL     1      -6.838   2.192 127.547  0.00  0.00    +0.000 C 
ENDROOT
BRANCH   1   3
ATOM      2  N   UNL     1      -7.917   4.352 128.243  0.00  0.00    +0.000 N 
ATOM      3  C   UNL     1      -8.044   2.975 128.136  0.00  0.00    +0.000 C 
ATOM      4  O   UNL     1      -9.081   2.435 128.528  0.00  0.00    +0.000 OA
ATOM      5  H   UNL     1      -7.010   4.793 128.204  0.00  0.00    +0.000 HD
BRANCH   2   8
ATOM      6  C   UNL     1      -7.929   5.758 130.745  0.00  0.00    +0.000 C 
ATOM      7  C   UNL     1      -9.064   5.733 129.748  0.00  0.00    +0.000 C 
ATOM      8  N   UNL     1      -9.039   5.055 128.640  0.00  0.00    +0.000 NA
BRANCH   7   9
ATOM      9  C   UNL     1     -10.300   6.539 130.080  0.00  0.00    +0.000 A 
ATOM     10  C   UNL     1     -11.081   6.226 131.207  0.00  0.00    +0.000 A 
ATOM     11  C   UNL     1     -12.288   6.905 131.448  0.00  0.00    +0.000 A 
ATOM     12  C   UNL     1     -12.697   7.935 130.603  0.00  0.00    +0.000 A 
ATOM     13  C   UNL     1     -11.922   8.269 129.494  0.00  0.00    +0.000 A 
ATOM     14  C   UNL     1     -10.739   7.569 129.234  0.00  0.00    +0.000 A 
BRANCH  14  15
ATOM     15  O   UNL     1     -10.034   7.884 128.107  0.00  0.00    +0.000 OA
ATOM     16  H   UNL     1     -10.446   7.473 127.331  0.00  0.00    +0.000 HD
ENDBRANCH  14  15
ENDBRANCH   7   9
ENDBRANCH   2   8
ENDBRANCH   1   3
BRANCH   1  17
ATOM     17  N   UNL     1      -7.154   1.179 126.481  0.00  0.00    +0.000 N 
BRANCH  17  18
ATOM     18  C   UNL     1      -7.850   1.561 125.291  0.00  0.00    +0.000 A 
ATOM     19  C   UNL     1      -7.127   2.019 124.190  0.00  0.00    +0.000 A 
ATOM     20  C   UNL     1      -7.782   2.426 123.036  0.00  0.00    +0.000 A 
ATOM     21  C   UNL     1      -9.135   2.150 122.888  0.00  0.00    +0.000 A 
ATOM     22  C   UNL     1      -9.851   1.591 123.943  0.00  0.00    +0.000 A 
ATOM     23  C   UNL     1      -9.230   1.387 125.174  0.00  0.00    +0.000 A 
ENDBRANCH  17  18
BRANCH  17  24
ATOM     24  S   UNL     1      -6.484  -0.380 126.607  0.00  0.00    +0.000 S 
ATOM     25  O   UNL     1      -5.188  -0.359 125.942  0.00  0.00    +0.000 OA
ATOM     26  O   UNL     1      -6.561  -0.770 127.998  0.00  0.00    +0.000 OA
BRANCH  24  27
ATOM     27  C   UNL     1      -7.515  -1.524 125.674  0.00  0.00    +0.000 A 
ATOM     28  C   UNL     1      -7.246  -1.781 124.319  0.00  0.00    +0.000 A 
ATOM     29  C   UNL     1      -8.087  -2.630 123.591  0.00  0.00    +0.000 A 
ATOM     30  C   UNL     1      -9.173  -3.245 124.216  0.00  0.00    +0.000 A 
ATOM     31  C   UNL     1      -9.437  -2.991 125.563  0.00  0.00    +0.000 A 
ATOM     32  C   UNL     1      -8.618  -2.123 126.293  0.00  0.00    +0.000 A 
ENDBRANCH  24  27
ENDBRANCH  17  24
ENDBRANCH   1  17
TORSDOF 8
ENDMDL
MODEL 6
REMARK VINA RESULT:      -8.4      2.623      3.955
REMARK  Name = CHEMBL198630
REMARK  9 active torsions:
REMARK  status: ('A' for Active; 'I' for Inactive)
REMARK    1  A    between atoms: C_1  and  C_2
REMARK    2  A    between atoms: C_2  and  C_24
REMARK    3  A    between atoms: N_3  and  N_4
REMARK    4  A    between atoms: C_5  and  C_7
REMARK    5  A    between atoms: C_7  and  N_8
REMARK    6  A    between atoms: N_8  and  C_9
REMARK    7  A    between atoms: N_8  and  S_15
REMARK    8  A    between atoms: S_15  and  C_18
REMARK    9  A    between atoms: C_29  and  O_30
REMARK                            x       y       z     vdW  Elec       q    Type
REMARK                         _______ _______ _______ _____ _____    ______ ____
ROOT
ATOM      1  C   UNL     1      -8.625   0.873 126.852  0.00  0.00    +0.000 C 
ENDROOT
BRANCH   1   3
ATOM      2  N   UNL     1      -7.240   1.631 124.897  0.00  0.00    +0.000 N 
ATOM      3  C   UNL     1      -8.502   1.567 125.467  0.00  0.00    +0.000 C 
ATOM      4  O   UNL     1      -9.456   2.076 124.875  0.00  0.00    +0.000 OA
ATOM      5  H   UNL     1      -6.412   1.489 125.456  0.00  0.00    +0.000 HD
BRANCH   2   8
ATOM      6  C   UNL     1      -6.199   4.264 124.429  0.00  0.00    +0.000 C 
ATOM      7  C   UNL     1      -6.658   3.300 123.360  0.00  0.00    +0.000 C 
ATOM      8  N   UNL     1      -7.160   2.128 123.610  0.00  0.00    +0.000 NA
BRANCH   7   9
ATOM      9  C   UNL     1      -6.533   3.746 121.920  0.00  0.00    +0.000 A 
ATOM     10  C   UNL     1      -5.325   4.275 121.433  0.00  0.00    +0.000 A 
ATOM     11  C   UNL     1      -5.247   4.791 120.127  0.00  0.00    +0.000 A 
ATOM     12  C   UNL     1      -6.354   4.732 119.281  0.00  0.00    +0.000 A 
ATOM     13  C   UNL     1      -7.551   4.192 119.745  0.00  0.00    +0.000 A 
ATOM     14  C   UNL     1      -7.639   3.712 121.056  0.00  0.00    +0.000 A 
BRANCH  14  15
ATOM     15  O   UNL     1      -8.844   3.241 121.495  0.00  0.00    +0.000 OA
ATOM     16  H   UNL     1      -8.993   2.344 121.157  0.00  0.00    +0.000 HD
ENDBRANCH  14  15
ENDBRANCH   7   9
ENDBRANCH   2   8
ENDBRANCH   1   3
BRANCH   1  17
ATOM     17  N   UNL     1      -7.698  -0.286 127.104  0.00  0.00    +0.000 N 
BRANCH  17  18
ATOM     18  C   UNL     1      -7.743  -1.452 126.277  0.00  0.00    +0.000 A 
ATOM     19  C   UNL     1      -8.932  -2.172 126.171  0.00  0.00    +0.000 A 
ATOM     20  C   UNL     1      -8.991  -3.326 125.401  0.00  0.00    +0.000 A 
ATOM     21  C   UNL     1      -7.939  -3.628 124.545  0.00  0.00    +0.000 A 
ATOM     22  C   UNL     1      -6.784  -2.852 124.562  0.00  0.00    +0.000 A 
ATOM     23  C   UNL     1      -6.649  -1.826 125.495  0.00  0.00    +0.000 A 
ENDBRANCH  17  18
BRANCH  17  24
ATOM     24  S   UNL     1      -6.451  -0.105 128.246  0.00  0.00    +0.000 S 
ATOM     25  O   UNL     1      -5.246   0.287 127.527  0.00  0.00    +0.000 OA
ATOM     26  O   UNL     1      -6.954   0.746 129.302  0.00  0.00    +0.000 OA
BRANCH  24  27
ATOM     27  C   UNL     1      -6.106  -1.714 128.977  0.00  0.00    +0.000 A 
ATOM     28  C   UNL     1      -7.101  -2.396 129.699  0.00  0.00    +0.000 A 
ATOM     29  C   UNL     1      -6.804  -3.620 130.308  0.00  0.00    +0.000 A 
ATOM     30  C   UNL     1      -5.532  -4.179 130.174  0.00  0.00    +0.000 A 
ATOM     31  C   UNL     1      -4.546  -3.503 129.453  0.00  0.00    +0.000 A 
ATOM     32  C   UNL     1      -4.824  -2.266 128.863  0.00  0.00    +0.000 A 
ENDBRANCH  24  27
ENDBRANCH  17  24
ENDBRANCH   1  17
TORSDOF 8
ENDMDL
MODEL 7
REMARK VINA RESULT:      -8.4      6.900      9.073
REMARK  Name = CHEMBL198630
REMARK  9 active torsions:
REMARK  status: ('A' for Active; 'I' for Inactive)
REMARK    1  A    between atoms: C_1  and  C_2
REMARK    2  A    between atoms: C_2  and  C_24
REMARK    3  A    between atoms: N_3  and  N_4
REMARK    4  A    between atoms: C_5  and  C_7
REMARK    5  A    between atoms: C_7  and  N_8
REMARK    6  A    between atoms: N_8  and  C_9
REMARK    7  A    between atoms: N_8  and  S_15
REMARK    8  A    between atoms: S_15  and  C_18
REMARK    9  A    between atoms: C_29  and  O_30
REMARK                            x       y       z     vdW  Elec       q    Type
REMARK                         _______ _______ _______ _____ _____    ______ ____
ROOT
ATOM      1  C   UNL     1      -6.067   3.217 129.254  0.00  0.00    +0.000 C 
ENDROOT
BRANCH   1   3
ATOM      2  N   UNL     1      -8.377   4.148 129.583  0.00  0.00    +0.000 N 
ATOM      3  C   UNL     1      -7.265   4.074 128.759  0.00  0.00    +0.000 C 
ATOM      4  O   UNL     1      -7.280   4.661 127.675  0.00  0.00    +0.000 OA
ATOM      5  H   UNL     1      -8.520   3.476 130.322  0.00  0.00    +0.000 HD
BRANCH   2   8
ATOM      6  C   UNL     1      -8.896   6.517 131.118  0.00  0.00    +0.000 C 
ATOM      7  C   UNL     1      -9.617   6.118 129.852  0.00  0.00    +0.000 C 
ATOM      8  N   UNL     1      -9.382   5.017 129.201  0.00  0.00    +0.000 NA
BRANCH   7   9
ATOM      9  C   UNL     1     -10.682   7.057 129.332  0.00  0.00    +0.000 A 
ATOM     10  C   UNL     1     -11.614   7.642 130.206  0.00  0.00    +0.000 A 
ATOM     11  C   UNL     1     -12.670   8.425 129.704  0.00  0.00    +0.000 A 
ATOM     12  C   UNL     1     -12.770   8.675 128.336  0.00  0.00    +0.000 A 
ATOM     13  C   UNL     1     -11.841   8.118 127.461  0.00  0.00    +0.000 A 
ATOM     14  C   UNL     1     -10.812   7.310 127.957  0.00  0.00    +0.000 A 
BRANCH  14  15
ATOM     15  O   UNL     1      -9.952   6.734 127.065  0.00  0.00    +0.000 OA
ATOM     16  H   UNL     1     -10.360   6.699 126.186  0.00  0.00    +0.000 HD
ENDBRANCH  14  15
ENDBRANCH   7   9
ENDBRANCH   2   8
ENDBRANCH   1   3
BRANCH   1  17
ATOM     17  N   UNL     1      -5.257   3.788 130.386  0.00  0.00    +0.000 N 
BRANCH  17  18
ATOM     18  C   UNL     1      -4.673   5.090 130.285  0.00  0.00    +0.000 A 
ATOM     19  C   UNL     1      -3.513   5.265 129.532  0.00  0.00    +0.000 A 
ATOM     20  C   UNL     1      -2.909   6.512 129.446  0.00  0.00    +0.000 A 
ATOM     21  C   UNL     1      -3.591   7.632 129.905  0.00  0.00    +0.000 A 
ATOM     22  C   UNL     1      -4.807   7.483 130.566  0.00  0.00    +0.000 A 
ATOM     23  C   UNL     1      -5.299   6.208 130.840  0.00  0.00    +0.000 A 
ENDBRANCH  17  18
BRANCH  17  24
ATOM     24  S   UNL     1      -5.226   2.960 131.871  0.00  0.00    +0.000 S 
ATOM     25  O   UNL     1      -5.230   1.532 131.582  0.00  0.00    +0.000 OA
ATOM     26  O   UNL     1      -4.147   3.521 132.654  0.00  0.00    +0.000 OA
BRANCH  24  27
ATOM     27  C   UNL     1      -6.759   3.304 132.752  0.00  0.00    +0.000 A 
ATOM     28  C   UNL     1      -7.895   2.504 132.542  0.00  0.00    +0.000 A 
ATOM     29  C   UNL     1      -9.095   2.815 133.191  0.00  0.00    +0.000 A 
ATOM     30  C   UNL     1      -9.156   3.897 134.070  0.00  0.00    +0.000 A 
ATOM     31  C   UNL     1      -8.025   4.688 134.281  0.00  0.00    +0.000 A 
ATOM     32  C   UNL     1      -6.829   4.403 133.616  0.00  0.00    +0.000 A 
ENDBRANCH  24  27
ENDBRANCH  17  24
ENDBRANCH   1  17
TORSDOF 8
ENDMDL
MODEL 8
REMARK VINA RESULT:      -8.3      6.326      8.509
REMARK  Name = CHEMBL198630
REMARK  9 active torsions:
REMARK  status: ('A' for Active; 'I' for Inactive)
REMARK    1  A    between atoms: C_1  and  C_2
REMARK    2  A    between atoms: C_2  and  C_24
REMARK    3  A    between atoms: N_3  and  N_4
REMARK    4  A    between atoms: C_5  and  C_7
REMARK    5  A    between atoms: C_7  and  N_8
REMARK    6  A    between atoms: N_8  and  C_9
REMARK    7  A    between atoms: N_8  and  S_15
REMARK    8  A    between atoms: S_15  and  C_18
REMARK    9  A    between atoms: C_29  and  O_30
REMARK                            x       y       z     vdW  Elec       q    Type
REMARK                         _______ _______ _______ _____ _____    ______ ____
ROOT
ATOM      1  C   UNL     1      -7.175   1.949 130.102  0.00  0.00    +0.000 C 
ENDROOT
BRANCH   1   3
ATOM      2  N   UNL     1      -8.359   4.164 130.033  0.00  0.00    +0.000 N 
ATOM      3  C   UNL     1      -8.376   2.830 129.658  0.00  0.00    +0.000 C 
ATOM      4  O   UNL     1      -9.338   2.397 129.019  0.00  0.00    +0.000 OA
ATOM      5  H   UNL     1      -7.756   4.486 130.776  0.00  0.00    +0.000 HD
BRANCH   2   8
ATOM      6  C   UNL     1      -8.787   6.790 131.111  0.00  0.00    +0.000 C 
ATOM      7  C   UNL     1      -9.554   6.179 129.962  0.00  0.00    +0.000 C 
ATOM      8  N   UNL     1      -9.359   4.971 129.523  0.00  0.00    +0.000 NA
BRANCH   7   9
ATOM      9  C   UNL     1     -10.618   7.029 129.304  0.00  0.00    +0.000 A 
ATOM     10  C   UNL     1     -11.604   7.670 130.074  0.00  0.00    +0.000 A 
ATOM     11  C   UNL     1     -12.655   8.366 129.451  0.00  0.00    +0.000 A 
ATOM     12  C   UNL     1     -12.698   8.476 128.061  0.00  0.00    +0.000 A 
ATOM     13  C   UNL     1     -11.715   7.863 127.288  0.00  0.00    +0.000 A 
ATOM     14  C   UNL     1     -10.690   7.140 127.907  0.00  0.00    +0.000 A 
BRANCH  14  15
ATOM     15  O   UNL     1      -9.775   6.504 127.115  0.00  0.00    +0.000 OA
ATOM     16  H   UNL     1      -9.405   7.128 126.471  0.00  0.00    +0.000 HD
ENDBRANCH  14  15
ENDBRANCH   7   9
ENDBRANCH   2   8
ENDBRANCH   1   3
BRANCH   1  17
ATOM     17  N   UNL     1      -7.508   0.582 130.633  0.00  0.00    +0.000 N 
BRANCH  17  18
ATOM     18  C   UNL     1      -6.949  -0.592 130.037  0.00  0.00    +0.000 A 
ATOM     19  C   UNL     1      -7.798  -1.564 129.508  0.00  0.00    +0.000 A 
ATOM     20  C   UNL     1      -7.279  -2.727 128.954  0.00  0.00    +0.000 A 
ATOM     21  C   UNL     1      -5.915  -2.814 128.706  0.00  0.00    +0.000 A 
ATOM     22  C   UNL     1      -5.064  -1.798 129.133  0.00  0.00    +0.000 A 
ATOM     23  C   UNL     1      -5.569  -0.737 129.882  0.00  0.00    +0.000 A 
ENDBRANCH  17  18
BRANCH  17  24
ATOM     24  S   UNL     1      -8.384   0.458 132.086  0.00  0.00    +0.000 S 
ATOM     25  O   UNL     1      -9.798   0.379 131.745  0.00  0.00    +0.000 OA
ATOM     26  O   UNL     1      -7.782  -0.605 132.862  0.00  0.00    +0.000 OA
BRANCH  24  27
ATOM     27  C   UNL     1      -8.170   1.985 133.017  0.00  0.00    +0.000 A 
ATOM     28  C   UNL     1      -6.928   2.297 133.595  0.00  0.00    +0.000 A 
ATOM     29  C   UNL     1      -6.788   3.460 134.361  0.00  0.00    +0.000 A 
ATOM     30  C   UNL     1      -7.872   4.324 134.524  0.00  0.00    +0.000 A 
ATOM     31  C   UNL     1      -9.104   4.015 133.946  0.00  0.00    +0.000 A 
ATOM     32  C   UNL     1      -9.261   2.842 133.201  0.00  0.00    +0.000 A 
ENDBRANCH  24  27
ENDBRANCH  17  24
ENDBRANCH   1  17
TORSDOF 8
ENDMDL
MODEL 9
REMARK VINA RESULT:      -8.2      4.664      7.236
REMARK  Name = CHEMBL198630
REMARK  9 active torsions:
REMARK  status: ('A' for Active; 'I' for Inactive)
REMARK    1  A    between atoms: C_1  and  C_2
REMARK    2  A    between atoms: C_2  and  C_24
REMARK    3  A    between atoms: N_3  and  N_4
REMARK    4  A    between atoms: C_5  and  C_7
REMARK    5  A    between atoms: C_7  and  N_8
REMARK    6  A    between atoms: N_8  and  C_9
REMARK    7  A    between atoms: N_8  and  S_15
REMARK    8  A    between atoms: S_15  and  C_18
REMARK    9  A    between atoms: C_29  and  O_30
REMARK                            x       y       z     vdW  Elec       q    Type
REMARK                         _______ _______ _______ _____ _____    ______ ____
ROOT
ATOM      1  C   UNL     1      -7.013   2.112 128.697  0.00  0.00    +0.000 C 
ENDROOT
BRANCH   1   3
ATOM      2  N   UNL     1      -8.124   4.348 128.978  0.00  0.00    +0.000 N 
ATOM      3  C   UNL     1      -8.281   2.971 128.961  0.00  0.00    +0.000 C 
ATOM      4  O   UNL     1      -9.396   2.490 129.177  0.00  0.00    +0.000 OA
ATOM      5  H   UNL     1      -7.211   4.764 129.088  0.00  0.00    +0.000 HD
BRANCH   2   8
ATOM      6  C   UNL     1      -8.258   6.524 130.844  0.00  0.00    +0.000 C 
ATOM      7  C   UNL     1      -9.354   6.124 129.886  0.00  0.00    +0.000 C 
ATOM      8  N   UNL     1      -9.275   5.108 129.078  0.00  0.00    +0.000 NA
BRANCH   7   9
ATOM      9  C   UNL     1     -10.618   6.954 129.887  0.00  0.00    +0.000 A 
ATOM     10  C   UNL     1     -10.803   7.984 128.949  0.00  0.00    +0.000 A 
ATOM     11  C   UNL     1     -11.928   8.825 129.024  0.00  0.00    +0.000 A 
ATOM     12  C   UNL     1     -12.902   8.610 129.999  0.00  0.00    +0.000 A 
ATOM     13  C   UNL     1     -12.741   7.579 130.922  0.00  0.00    +0.000 A 
ATOM     14  C   UNL     1     -11.603   6.766 130.869  0.00  0.00    +0.000 A 
BRANCH  14  15
ATOM     15  O   UNL     1     -11.451   5.801 131.824  0.00  0.00    +0.000 OA
ATOM     16  H   UNL     1     -11.383   6.211 132.701  0.00  0.00    +0.000 HD
ENDBRANCH  14  15
ENDBRANCH   7   9
ENDBRANCH   2   8
ENDBRANCH   1   3
BRANCH   1  17
ATOM     17  N   UNL     1      -7.077   1.167 127.528  0.00  0.00    +0.000 N 
BRANCH  17  18
ATOM     18  C   UNL     1      -7.758   1.534 126.325  0.00  0.00    +0.000 A 
ATOM     19  C   UNL     1      -9.006   0.978 126.046  0.00  0.00    +0.000 A 
ATOM     20  C   UNL     1      -9.671   1.294 124.869  0.00  0.00    +0.000 A 
ATOM     21  C   UNL     1      -9.210   2.346 124.087  0.00  0.00    +0.000 A 
ATOM     22  C   UNL     1      -8.017   2.985 124.414  0.00  0.00    +0.000 A 
ATOM     23  C   UNL     1      -7.245   2.515 125.475  0.00  0.00    +0.000 A 
ENDBRANCH  17  18
BRANCH  17  24
ATOM     24  S   UNL     1      -6.145  -0.256 127.573  0.00  0.00    +0.000 S 
ATOM     25  O   UNL     1      -5.474  -0.386 126.286  0.00  0.00    +0.000 OA
ATOM     26  O   UNL     1      -5.354  -0.214 128.783  0.00  0.00    +0.000 OA
BRANCH  24  27
ATOM     27  C   UNL     1      -7.258  -1.665 127.711  0.00  0.00    +0.000 A 
ATOM     28  C   UNL     1      -7.638  -2.151 128.973  0.00  0.00    +0.000 A 
ATOM     29  C   UNL     1      -8.460  -3.280 129.067  0.00  0.00    +0.000 A 
ATOM     30  C   UNL     1      -8.927  -3.904 127.910  0.00  0.00    +0.000 A 
ATOM     31  C   UNL     1      -8.552  -3.418 126.656  0.00  0.00    +0.000 A 
ATOM     32  C   UNL     1      -7.709  -2.307 126.551  0.00  0.00    +0.000 A 
ENDBRANCH  24  27
ENDBRANCH  17  24
ENDBRANCH   1  17
TORSDOF 8
ENDMDL
