MODEL 1
REMARK VINA RESULT:      -8.6      0.000      0.000
REMARK  Name = CHEMBL515111
REMARK  8 active torsions:
REMARK  status: ('A' for Active; 'I' for Inactive)
REMARK    1  A    between atoms: C_1  and  O_2
REMARK    2  A    between atoms: O_2  and  C_3
REMARK    3  A    between atoms: C_8  and  C_9
REMARK    4  A    between atoms: C_12  and  C_13
REMARK    5  A    between atoms: N_15  and  C_16
REMARK    6  A    between atoms: N_15  and  C_20
REMARK    7  A    between atoms: C_16  and  C_17
REMARK    8  A    between atoms: C_20  and  C_21
REMARK                            x       y       z     vdW  Elec       q    Type
REMARK                         _______ _______ _______ _____ _____    ______ ____
ROOT
ATOM      1  C   UNL     1      -7.820   2.685 122.469  0.00  0.00    +0.000 A 
ATOM      2  C   UNL     1      -9.042   2.668 123.167  0.00  0.00    +0.000 A 
ATOM      3  C   UNL     1      -9.404   1.628 124.138  0.00  0.00    +0.000 A 
ATOM      4  C   UNL     1      -8.572   0.549 124.343  0.00  0.00    +0.000 A 
ATOM      5  C   UNL     1      -7.383   0.950 123.764  0.00  0.00    +0.000 A 
ATOM      6  C   UNL     1      -6.889   1.867 122.903  0.00  0.00    +0.000 A 
ENDROOT
BRANCH   1  12
ATOM      7  C   UNL     1      -7.870   4.004 120.330  0.00  0.00    +0.000 A 
ATOM      8  C   UNL     1      -7.087   4.704 119.424  0.00  0.00    +0.000 A 
ATOM      9  C   UNL     1      -5.700   4.805 119.623  0.00  0.00    +0.000 A 
ATOM     10  C   UNL     1      -5.065   4.160 120.679  0.00  0.00    +0.000 A 
ATOM     11  C   UNL     1      -5.829   3.469 121.573  0.00  0.00    +0.000 A 
ATOM     12  C   UNL     1      -7.228   3.528 121.497  0.00  0.00    +0.000 A 
BRANCH   7  14
ATOM     13  C   UNL     1      -9.657   4.438 118.779  0.00  0.00    +0.000 C 
ATOM     14  O   UNL     1      -9.143   3.705 119.887  0.00  0.00    +0.000 OA
ENDBRANCH   7  14
ENDBRANCH   1  12
BRANCH   4  15
ATOM     15  C   UNL     1      -8.965  -0.909 125.027  0.00  0.00    +0.000 C 
ATOM     16  O   UNL     1      -9.954  -0.833 125.788  0.00  0.00    +0.000 OA
ATOM     17  N   UNL     1      -8.380  -2.291 124.860  0.00  0.00    +0.000 N 
BRANCH  17  18
ATOM     18  C   UNL     1      -7.281  -2.890 124.036  0.00  0.00    +0.000 C 
BRANCH  18  19
ATOM     19  C   UNL     1      -5.929  -2.493 124.071  0.00  0.00    +0.000 C 
ATOM     20  C   UNL     1      -5.077  -3.621 123.898  0.00  0.00    +0.000 C 
ATOM     21  C   UNL     1      -5.633  -2.246 122.693  0.00  0.00    +0.000 C 
ENDBRANCH  18  19
ENDBRANCH  17  18
BRANCH  17  22
ATOM     22  C   UNL     1      -8.871  -3.392 125.775  0.00  0.00    +0.000 C 
BRANCH  22  23
ATOM     23  C   UNL     1      -8.090  -3.529 127.169  0.00  0.00    +0.000 C 
ATOM     24  C   UNL     1      -8.907  -3.838 128.392  0.00  0.00    +0.000 C 
ATOM     25  C   UNL     1      -8.156  -3.124 129.509  0.00  0.00    +0.000 C 
ATOM     26  C   UNL     1      -7.599  -1.902 128.850  0.00  0.00    +0.000 C 
ATOM     27  O   UNL     1      -7.412  -2.310 127.527  0.00  0.00    +0.000 OA
ENDBRANCH  22  23
ENDBRANCH  17  22
ENDBRANCH   4  15
TORSDOF 7
ENDMDL
MODEL 2
REMARK VINA RESULT:      -7.9      2.488      8.739
REMARK  Name = CHEMBL515111
REMARK  8 active torsions:
REMARK  status: ('A' for Active; 'I' for Inactive)
REMARK    1  A    between atoms: C_1  and  O_2
REMARK    2  A    between atoms: O_2  and  C_3
REMARK    3  A    between atoms: C_8  and  C_9
REMARK    4  A    between atoms: C_12  and  C_13
REMARK    5  A    between atoms: N_15  and  C_16
REMARK    6  A    between atoms: N_15  and  C_20
REMARK    7  A    between atoms: C_16  and  C_17
REMARK    8  A    between atoms: C_20  and  C_21
REMARK                            x       y       z     vdW  Elec       q    Type
REMARK                         _______ _______ _______ _____ _____    ______ ____
ROOT
ATOM      1  C   UNL     1      -7.612  -3.293 129.190  0.00  0.00    +0.000 A 
ATOM      2  C   UNL     1      -8.645  -3.811 128.387  0.00  0.00    +0.000 A 
ATOM      3  C   UNL     1      -9.010  -3.253 127.079  0.00  0.00    +0.000 A 
ATOM      4  C   UNL     1      -8.392  -2.112 126.614  0.00  0.00    +0.000 A 
ATOM      5  C   UNL     1      -7.288  -1.991 127.435  0.00  0.00    +0.000 A 
ATOM      6  C   UNL     1      -6.801  -2.436 128.615  0.00  0.00    +0.000 A 
ENDROOT
BRANCH   1  12
ATOM      7  C   UNL     1      -7.225  -2.834 131.631  0.00  0.00    +0.000 A 
ATOM      8  C   UNL     1      -6.502  -3.231 132.747  0.00  0.00    +0.000 A 
ATOM      9  C   UNL     1      -5.570  -4.277 132.647  0.00  0.00    +0.000 A 
ATOM     10  C   UNL     1      -5.294  -4.895 131.433  0.00  0.00    +0.000 A 
ATOM     11  C   UNL     1      -6.000  -4.510 130.331  0.00  0.00    +0.000 A 
ATOM     12  C   UNL     1      -7.068  -3.610 130.458  0.00  0.00    +0.000 A 
BRANCH   7  14
ATOM     13  C   UNL     1      -7.071  -0.442 131.829  0.00  0.00    +0.000 C 
ATOM     14  O   UNL     1      -7.869  -1.620 131.758  0.00  0.00    +0.000 OA
ENDBRANCH   7  14
ENDBRANCH   1  12
BRANCH   4  15
ATOM     15  C   UNL     1      -8.930  -1.091 125.423  0.00  0.00    +0.000 C 
ATOM     16  O   UNL     1      -9.846  -0.335 125.816  0.00  0.00    +0.000 OA
ATOM     17  N   UNL     1      -8.487  -0.887 123.995  0.00  0.00    +0.000 N 
BRANCH  17  18
ATOM     18  C   UNL     1      -7.422  -1.470 123.116  0.00  0.00    +0.000 C 
BRANCH  18  19
ATOM     19  C   UNL     1      -6.120  -1.811 123.533  0.00  0.00    +0.000 C 
ATOM     20  C   UNL     1      -6.090  -3.149 124.020  0.00  0.00    +0.000 C 
ATOM     21  C   UNL     1      -5.548  -2.385 122.353  0.00  0.00    +0.000 C 
ENDBRANCH  18  19
ENDBRANCH  17  18
BRANCH  17  22
ATOM     22  C   UNL     1      -9.315   0.022 123.111  0.00  0.00    +0.000 C 
BRANCH  22  23
ATOM     23  C   UNL     1      -8.824   1.547 123.041  0.00  0.00    +0.000 C 
ATOM     24  C   UNL     1      -7.351   1.806 123.198  0.00  0.00    +0.000 C 
ATOM     25  C   UNL     1      -7.304   3.164 123.888  0.00  0.00    +0.000 C 
ATOM     26  C   UNL     1      -8.511   3.168 124.771  0.00  0.00    +0.000 C 
ATOM     27  O   UNL     1      -9.411   2.349 124.083  0.00  0.00    +0.000 OA
ENDBRANCH  22  23
ENDBRANCH  17  22
ENDBRANCH   4  15
TORSDOF 7
ENDMDL
MODEL 3
REMARK VINA RESULT:      -7.6      2.119      2.981
REMARK  Name = CHEMBL515111
REMARK  8 active torsions:
REMARK  status: ('A' for Active; 'I' for Inactive)
REMARK    1  A    between atoms: C_1  and  O_2
REMARK    2  A    between atoms: O_2  and  C_3
REMARK    3  A    between atoms: C_8  and  C_9
REMARK    4  A    between atoms: C_12  and  C_13
REMARK    5  A    between atoms: N_15  and  C_16
REMARK    6  A    between atoms: N_15  and  C_20
REMARK    7  A    between atoms: C_16  and  C_17
REMARK    8  A    between atoms: C_20  and  C_21
REMARK                            x       y       z     vdW  Elec       q    Type
REMARK                         _______ _______ _______ _____ _____    ______ ____
ROOT
ATOM      1  C   UNL     1      -6.852   2.720 122.998  0.00  0.00    +0.000 A 
ATOM      2  C   UNL     1      -6.289   3.287 124.157  0.00  0.00    +0.000 A 
ATOM      3  C   UNL     1      -6.130   2.554 125.420  0.00  0.00    +0.000 A 
ATOM      4  C   UNL     1      -6.621   1.273 125.547  0.00  0.00    +0.000 A 
ATOM      5  C   UNL     1      -6.859   0.893 124.240  0.00  0.00    +0.000 A 
ATOM      6  C   UNL     1      -7.005   1.416 123.002  0.00  0.00    +0.000 A 
ENDROOT
BRANCH   1  12
ATOM      7  C   UNL     1      -6.191   3.765 120.810  0.00  0.00    +0.000 A 
ATOM      8  C   UNL     1      -6.680   4.282 119.619  0.00  0.00    +0.000 A 
ATOM      9  C   UNL     1      -8.065   4.322 119.385  0.00  0.00    +0.000 A 
ATOM     10  C   UNL     1      -8.980   3.916 120.350  0.00  0.00    +0.000 A 
ATOM     11  C   UNL     1      -8.506   3.408 121.524  0.00  0.00    +0.000 A 
ATOM     12  C   UNL     1      -7.132   3.178 121.688  0.00  0.00    +0.000 A 
BRANCH   7  14
ATOM     13  C   UNL     1      -4.488   5.421 121.190  0.00  0.00    +0.000 C 
ATOM     14  O   UNL     1      -4.865   4.053 121.066  0.00  0.00    +0.000 OA
ENDBRANCH   7  14
ENDBRANCH   1  12
BRANCH   4  15
ATOM     15  C   UNL     1      -6.943   0.453 126.952  0.00  0.00    +0.000 C 
ATOM     16  O   UNL     1      -6.524   1.054 127.965  0.00  0.00    +0.000 OA
ATOM     17  N   UNL     1      -7.674  -0.839 127.219  0.00  0.00    +0.000 N 
BRANCH  17  18
ATOM     18  C   UNL     1      -8.396  -1.849 126.378  0.00  0.00    +0.000 C 
BRANCH  18  19
ATOM     19  C   UNL     1      -7.871  -2.476 125.231  0.00  0.00    +0.000 C 
ATOM     20  C   UNL     1      -8.316  -3.827 125.157  0.00  0.00    +0.000 C 
ATOM     21  C   UNL     1      -8.886  -2.245 124.248  0.00  0.00    +0.000 C 
ENDBRANCH  18  19
ENDBRANCH  17  18
BRANCH  17  22
ATOM     22  C   UNL     1      -7.641  -1.404 128.623  0.00  0.00    +0.000 C 
BRANCH  22  23
ATOM     23  C   UNL     1      -6.830  -2.777 128.793  0.00  0.00    +0.000 C 
ATOM     24  C   UNL     1      -7.123  -3.606 130.012  0.00  0.00    +0.000 C 
ATOM     25  C   UNL     1      -5.785  -4.268 130.320  0.00  0.00    +0.000 C 
ATOM     26  C   UNL     1      -4.771  -3.246 129.915  0.00  0.00    +0.000 C 
ATOM     27  O   UNL     1      -5.410  -2.555 128.882  0.00  0.00    +0.000 OA
ENDBRANCH  22  23
ENDBRANCH  17  22
ENDBRANCH   4  15
TORSDOF 7
ENDMDL
MODEL 4
REMARK VINA RESULT:      -7.5      6.767     10.670
REMARK  Name = CHEMBL515111
REMARK  8 active torsions:
REMARK  status: ('A' for Active; 'I' for Inactive)
REMARK    1  A    between atoms: C_1  and  O_2
REMARK    2  A    between atoms: O_2  and  C_3
REMARK    3  A    between atoms: C_8  and  C_9
REMARK    4  A    between atoms: C_12  and  C_13
REMARK    5  A    between atoms: N_15  and  C_16
REMARK    6  A    between atoms: N_15  and  C_20
REMARK    7  A    between atoms: C_16  and  C_17
REMARK    8  A    between atoms: C_20  and  C_21
REMARK                            x       y       z     vdW  Elec       q    Type
REMARK                         _______ _______ _______ _____ _____    ______ ____
ROOT
ATOM      1  C   UNL     1      -7.970   0.026 130.033  0.00  0.00    +0.000 A 
ATOM      2  C   UNL     1      -7.955   1.008 129.025  0.00  0.00    +0.000 A 
ATOM      3  C   UNL     1      -8.590   2.325 129.169  0.00  0.00    +0.000 A 
ATOM      4  C   UNL     1      -9.321   2.624 130.298  0.00  0.00    +0.000 A 
ATOM      5  C   UNL     1      -8.950   1.634 131.188  0.00  0.00    +0.000 A 
ATOM      6  C   UNL     1      -8.358   0.420 131.224  0.00  0.00    +0.000 A 
ENDROOT
BRANCH   1  12
ATOM      7  C   UNL     1      -6.204  -1.635 130.694  0.00  0.00    +0.000 A 
ATOM      8  C   UNL     1      -5.828  -2.968 130.609  0.00  0.00    +0.000 A 
ATOM      9  C   UNL     1      -6.630  -3.883 129.906  0.00  0.00    +0.000 A 
ATOM     10  C   UNL     1      -7.772  -3.478 129.224  0.00  0.00    +0.000 A 
ATOM     11  C   UNL     1      -8.147  -2.169 129.302  0.00  0.00    +0.000 A 
ATOM     12  C   UNL     1      -7.468  -1.292 130.161  0.00  0.00    +0.000 A 
BRANCH   7  14
ATOM     13  C   UNL     1      -4.382  -0.163 130.149  0.00  0.00    +0.000 C 
ATOM     14  O   UNL     1      -5.212  -0.779 131.129  0.00  0.00    +0.000 OA
ENDBRANCH   7  14
ENDBRANCH   1  12
BRANCH   4  15
ATOM     15  C   UNL     1     -10.449   3.825 130.477  0.00  0.00    +0.000 C 
ATOM     16  O   UNL     1     -11.615   3.424 130.268  0.00  0.00    +0.000 OA
ATOM     17  N   UNL     1     -10.323   5.273 130.883  0.00  0.00    +0.000 N 
BRANCH  17  18
ATOM     18  C   UNL     1      -9.195   6.170 131.295  0.00  0.00    +0.000 C 
BRANCH  18  19
ATOM     19  C   UNL     1      -7.837   5.799 131.343  0.00  0.00    +0.000 C 
ATOM     20  C   UNL     1      -7.004   6.943 131.182  0.00  0.00    +0.000 C 
ATOM     21  C   UNL     1      -7.516   5.945 132.730  0.00  0.00    +0.000 C 
ENDBRANCH  18  19
ENDBRANCH  17  18
BRANCH  17  22
ATOM     22  C   UNL     1     -11.550   6.155 130.781  0.00  0.00    +0.000 C 
BRANCH  22  23
ATOM     23  C   UNL     1     -11.633   7.069 129.466  0.00  0.00    +0.000 C 
ATOM     24  C   UNL     1     -12.379   8.369 129.575  0.00  0.00    +0.000 C 
ATOM     25  C   UNL     1     -12.973   8.552 128.182  0.00  0.00    +0.000 C 
ATOM     26  C   UNL     1     -13.270   7.159 127.727  0.00  0.00    +0.000 C 
ATOM     27  O   UNL     1     -12.302   6.395 128.385  0.00  0.00    +0.000 OA
ENDBRANCH  22  23
ENDBRANCH  17  22
ENDBRANCH   4  15
TORSDOF 7
ENDMDL
MODEL 5
REMARK VINA RESULT:      -7.5      2.448      9.165
REMARK  Name = CHEMBL515111
REMARK  8 active torsions:
REMARK  status: ('A' for Active; 'I' for Inactive)
REMARK    1  A    between atoms: C_1  and  O_2
REMARK    2  A    between atoms: O_2  and  C_3
REMARK    3  A    between atoms: C_8  and  C_9
REMARK    4  A    between atoms: C_12  and  C_13
REMARK    5  A    between atoms: N_15  and  C_16
REMARK    6  A    between atoms: N_15  and  C_20
REMARK    7  A    between atoms: C_16  and  C_17
REMARK    8  A    between atoms: C_20  and  C_21
REMARK                            x       y       z     vdW  Elec       q    Type
REMARK                         _______ _______ _______ _____ _____    ______ ____
ROOT
ATOM      1  C   UNL     1      -7.654  -3.278 128.997  0.00  0.00    +0.000 A 
ATOM      2  C   UNL     1      -8.709  -3.782 128.214  0.00  0.00    +0.000 A 
ATOM      3  C   UNL     1      -9.044  -3.267 126.880  0.00  0.00    +0.000 A 
ATOM      4  C   UNL     1      -8.371  -2.180 126.367  0.00  0.00    +0.000 A 
ATOM      5  C   UNL     1      -7.264  -2.074 127.186  0.00  0.00    +0.000 A 
ATOM      6  C   UNL     1      -6.801  -2.488 128.387  0.00  0.00    +0.000 A 
ENDROOT
BRANCH   1  12
ATOM      7  C   UNL     1      -7.298  -2.755 131.430  0.00  0.00    +0.000 A 
ATOM      8  C   UNL     1      -6.592  -3.124 132.566  0.00  0.00    +0.000 A 
ATOM      9  C   UNL     1      -5.663  -4.176 132.507  0.00  0.00    +0.000 A 
ATOM     10  C   UNL     1      -5.373  -4.828 131.314  0.00  0.00    +0.000 A 
ATOM     11  C   UNL     1      -6.062  -4.471 130.193  0.00  0.00    +0.000 A 
ATOM     12  C   UNL     1      -7.129  -3.563 130.281  0.00  0.00    +0.000 A 
BRANCH   7  14
ATOM     13  C   UNL     1      -7.140  -0.356 131.499  0.00  0.00    +0.000 C 
ATOM     14  O   UNL     1      -7.939  -1.536 131.515  0.00  0.00    +0.000 OA
ENDBRANCH   7  14
ENDBRANCH   1  12
BRANCH   4  15
ATOM     15  C   UNL     1      -8.857  -1.189 125.129  0.00  0.00    +0.000 C 
ATOM     16  O   UNL     1      -9.178  -1.826 124.101  0.00  0.00    +0.000 OA
ATOM     17  N   UNL     1      -9.018   0.309 125.042  0.00  0.00    +0.000 N 
BRANCH  17  18
ATOM     18  C   UNL     1      -8.842   1.456 125.990  0.00  0.00    +0.000 C 
BRANCH  18  19
ATOM     19  C   UNL     1      -7.787   1.594 126.913  0.00  0.00    +0.000 C 
ATOM     20  C   UNL     1      -7.736   2.927 127.413  0.00  0.00    +0.000 C 
ATOM     21  C   UNL     1      -8.418   1.308 128.165  0.00  0.00    +0.000 C 
ENDBRANCH  18  19
ENDBRANCH  17  18
BRANCH  17  22
ATOM     22  C   UNL     1      -9.322   0.919 123.690  0.00  0.00    +0.000 C 
BRANCH  22  23
ATOM     23  C   UNL     1      -8.511   2.258 123.342  0.00  0.00    +0.000 C 
ATOM     24  C   UNL     1      -8.806   2.922 122.026  0.00  0.00    +0.000 C 
ATOM     25  C   UNL     1      -7.468   3.539 121.634  0.00  0.00    +0.000 C 
ATOM     26  C   UNL     1      -6.453   2.578 122.167  0.00  0.00    +0.000 C 
ATOM     27  O   UNL     1      -7.091   2.027 123.282  0.00  0.00    +0.000 OA
ENDBRANCH  22  23
ENDBRANCH  17  22
ENDBRANCH   4  15
TORSDOF 7
ENDMDL
MODEL 6
REMARK VINA RESULT:      -7.3     10.875     12.880
REMARK  Name = CHEMBL515111
REMARK  8 active torsions:
REMARK  status: ('A' for Active; 'I' for Inactive)
REMARK    1  A    between atoms: C_1  and  O_2
REMARK    2  A    between atoms: O_2  and  C_3
REMARK    3  A    between atoms: C_8  and  C_9
REMARK    4  A    between atoms: C_12  and  C_13
REMARK    5  A    between atoms: N_15  and  C_16
REMARK    6  A    between atoms: N_15  and  C_20
REMARK    7  A    between atoms: C_16  and  C_17
REMARK    8  A    between atoms: C_20  and  C_21
REMARK                            x       y       z     vdW  Elec       q    Type
REMARK                         _______ _______ _______ _____ _____    ______ ____
ROOT
ATOM      1  C   UNL     1      -2.838   7.970 132.632  0.00  0.00    +0.000 A 
ATOM      2  C   UNL     1      -3.477   7.006 133.434  0.00  0.00    +0.000 A 
ATOM      3  C   UNL     1      -4.630   6.216 132.983  0.00  0.00    +0.000 A 
ATOM      4  C   UNL     1      -5.200   6.458 131.752  0.00  0.00    +0.000 A 
ATOM      5  C   UNL     1      -4.247   7.220 131.105  0.00  0.00    +0.000 A 
ATOM      6  C   UNL     1      -3.148   7.966 131.356  0.00  0.00    +0.000 A 
ENDROOT
BRANCH   1  12
ATOM      7  C   UNL     1      -0.477   8.504 133.308  0.00  0.00    +0.000 A 
ATOM      8  C   UNL     1       0.419   9.539 133.538  0.00  0.00    +0.000 A 
ATOM      9  C   UNL     1       0.005  10.874 133.391  0.00  0.00    +0.000 A 
ATOM     10  C   UNL     1      -1.311  11.200 133.083  0.00  0.00    +0.000 A 
ATOM     11  C   UNL     1      -2.197  10.189 132.857  0.00  0.00    +0.000 A 
ATOM     12  C   UNL     1      -1.750   8.860 132.804  0.00  0.00    +0.000 A 
BRANCH   7  14
ATOM     13  C   UNL     1       0.298   7.159 135.145  0.00  0.00    +0.000 C 
ATOM     14  O   UNL     1      -0.069   7.270 133.773  0.00  0.00    +0.000 OA
ENDBRANCH   7  14
ENDBRANCH   1  12
BRANCH   4  15
ATOM     15  C   UNL     1      -6.715   6.019 131.241  0.00  0.00    +0.000 C 
ATOM     16  O   UNL     1      -6.768   5.823 130.007  0.00  0.00    +0.000 OA
ATOM     17  N   UNL     1      -8.001   5.778 131.993  0.00  0.00    +0.000 N 
BRANCH  17  18
ATOM     18  C   UNL     1      -8.415   5.806 133.433  0.00  0.00    +0.000 C 
BRANCH  18  19
ATOM     19  C   UNL     1      -8.423   4.695 134.299  0.00  0.00    +0.000 C 
ATOM     20  C   UNL     1      -7.442   3.744 133.895  0.00  0.00    +0.000 C 
ATOM     21  C   UNL     1      -7.452   5.054 135.287  0.00  0.00    +0.000 C 
ENDBRANCH  18  19
ENDBRANCH  17  18
BRANCH  17  22
ATOM     22  C   UNL     1      -9.267   5.552 131.193  0.00  0.00    +0.000 C 
BRANCH  22  23
ATOM     23  C   UNL     1     -10.100   6.874 130.836  0.00  0.00    +0.000 C 
ATOM     24  C   UNL     1     -11.534   6.697 130.422  0.00  0.00    +0.000 C 
ATOM     25  C   UNL     1     -11.760   7.835 129.434  0.00  0.00    +0.000 C 
ATOM     26  C   UNL     1     -10.440   7.991 128.749  0.00  0.00    +0.000 C 
ATOM     27  O   UNL     1      -9.525   7.589 129.726  0.00  0.00    +0.000 OA
ENDBRANCH  22  23
ENDBRANCH  17  22
ENDBRANCH   4  15
TORSDOF 7
ENDMDL
MODEL 7
REMARK VINA RESULT:      -7.3      5.059      7.755
REMARK  Name = CHEMBL515111
REMARK  8 active torsions:
REMARK  status: ('A' for Active; 'I' for Inactive)
REMARK    1  A    between atoms: C_1  and  O_2
REMARK    2  A    between atoms: O_2  and  C_3
REMARK    3  A    between atoms: C_8  and  C_9
REMARK    4  A    between atoms: C_12  and  C_13
REMARK    5  A    between atoms: N_15  and  C_16
REMARK    6  A    between atoms: N_15  and  C_20
REMARK    7  A    between atoms: C_16  and  C_17
REMARK    8  A    between atoms: C_20  and  C_21
REMARK                            x       y       z     vdW  Elec       q    Type
REMARK                         _______ _______ _______ _____ _____    ______ ____
ROOT
ATOM      1  C   UNL     1      -7.754   0.058 125.663  0.00  0.00    +0.000 A 
ATOM      2  C   UNL     1      -6.713   0.997 125.536  0.00  0.00    +0.000 A 
ATOM      3  C   UNL     1      -6.506   2.107 126.476  0.00  0.00    +0.000 A 
ATOM      4  C   UNL     1      -7.403   2.328 127.498  0.00  0.00    +0.000 A 
ATOM      5  C   UNL     1      -8.127   1.152 127.546  0.00  0.00    +0.000 A 
ATOM      6  C   UNL     1      -8.397   0.053 126.808  0.00  0.00    +0.000 A 
ENDROOT
BRANCH   1  12
ATOM      7  C   UNL     1      -8.649  -1.039 123.587  0.00  0.00    +0.000 A 
ATOM      8  C   UNL     1      -9.164  -2.221 123.075  0.00  0.00    +0.000 A 
ATOM      9  C   UNL     1      -9.327  -3.339 123.910  0.00  0.00    +0.000 A 
ATOM     10  C   UNL     1      -9.046  -3.280 125.271  0.00  0.00    +0.000 A 
ATOM     11  C   UNL     1      -8.539  -2.122 125.782  0.00  0.00    +0.000 A 
ATOM     12  C   UNL     1      -8.187  -1.069 124.924  0.00  0.00    +0.000 A 
BRANCH   7  14
ATOM     13  C   UNL     1     -10.109   0.669 122.732  0.00  0.00    +0.000 C 
ATOM     14  O   UNL     1      -8.820   0.066 122.779  0.00  0.00    +0.000 OA
ENDBRANCH   7  14
ENDBRANCH   1  12
BRANCH   4  15
ATOM     15  C   UNL     1      -7.611   3.723 128.370  0.00  0.00    +0.000 C 
ATOM     16  O   UNL     1      -7.485   4.751 127.670  0.00  0.00    +0.000 OA
ATOM     17  N   UNL     1      -7.962   3.962 129.818  0.00  0.00    +0.000 N 
BRANCH  17  18
ATOM     18  C   UNL     1      -8.276   3.091 130.997  0.00  0.00    +0.000 C 
BRANCH  18  19
ATOM     19  C   UNL     1      -9.355   2.189 131.077  0.00  0.00    +0.000 C 
ATOM     20  C   UNL     1      -8.881   0.872 131.339  0.00  0.00    +0.000 C 
ATOM     21  C   UNL     1      -9.671   2.193 132.472  0.00  0.00    +0.000 C 
ENDBRANCH  18  19
ENDBRANCH  17  18
BRANCH  17  22
ATOM     22  C   UNL     1      -7.906   5.382 130.343  0.00  0.00    +0.000 C 
BRANCH  22  23
ATOM     23  C   UNL     1      -9.311   6.153 130.392  0.00  0.00    +0.000 C 
ATOM     24  C   UNL     1      -9.974   6.298 131.733  0.00  0.00    +0.000 C 
ATOM     25  C   UNL     1     -11.460   6.264 131.398  0.00  0.00    +0.000 C 
ATOM     26  C   UNL     1     -11.551   5.331 130.232  0.00  0.00    +0.000 C 
ATOM     27  O   UNL     1     -10.315   5.492 129.600  0.00  0.00    +0.000 OA
ENDBRANCH  22  23
ENDBRANCH  17  22
ENDBRANCH   4  15
TORSDOF 7
ENDMDL
MODEL 8
REMARK VINA RESULT:      -7.3      7.251     11.066
REMARK  Name = CHEMBL515111
REMARK  8 active torsions:
REMARK  status: ('A' for Active; 'I' for Inactive)
REMARK    1  A    between atoms: C_1  and  O_2
REMARK    2  A    between atoms: O_2  and  C_3
REMARK    3  A    between atoms: C_8  and  C_9
REMARK    4  A    between atoms: C_12  and  C_13
REMARK    5  A    between atoms: N_15  and  C_16
REMARK    6  A    between atoms: N_15  and  C_20
REMARK    7  A    between atoms: C_16  and  C_17
REMARK    8  A    between atoms: C_20  and  C_21
REMARK                            x       y       z     vdW  Elec       q    Type
REMARK                         _______ _______ _______ _____ _____    ______ ____
ROOT
ATOM      1  C   UNL     1      -8.162  -0.531 130.971  0.00  0.00    +0.000 A 
ATOM      2  C   UNL     1      -9.092   0.069 131.840  0.00  0.00    +0.000 A 
ATOM      3  C   UNL     1      -9.593   1.439 131.666  0.00  0.00    +0.000 A 
ATOM      4  C   UNL     1      -9.089   2.241 130.666  0.00  0.00    +0.000 A 
ATOM      5  C   UNL     1      -8.432   1.347 129.841  0.00  0.00    +0.000 A 
ATOM      6  C   UNL     1      -7.939   0.089 129.836  0.00  0.00    +0.000 A 
ENDROOT
BRANCH   1  12
ATOM      7  C   UNL     1      -6.347  -2.145 131.620  0.00  0.00    +0.000 A 
ATOM      8  C   UNL     1      -5.777  -3.374 131.319  0.00  0.00    +0.000 A 
ATOM      9  C   UNL     1      -6.284  -4.146 130.260  0.00  0.00    +0.000 A 
ATOM     10  C   UNL     1      -7.312  -3.682 129.447  0.00  0.00    +0.000 A 
ATOM     11  C   UNL     1      -7.876  -2.474 129.735  0.00  0.00    +0.000 A 
ATOM     12  C   UNL     1      -7.515  -1.789 130.905  0.00  0.00    +0.000 A 
BRANCH   7  14
ATOM     13  C   UNL     1      -5.891  -1.360 133.847  0.00  0.00    +0.000 C 
ATOM     14  O   UNL     1      -5.593  -1.345 132.454  0.00  0.00    +0.000 OA
ENDBRANCH   7  14
ENDBRANCH   1  12
BRANCH   4  15
ATOM     15  C   UNL     1      -9.173   3.894 130.563  0.00  0.00    +0.000 C 
ATOM     16  O   UNL     1      -9.253   4.299 129.382  0.00  0.00    +0.000 OA
ATOM     17  N   UNL     1      -9.214   4.968 131.622  0.00  0.00    +0.000 N 
BRANCH  17  18
ATOM     18  C   UNL     1      -9.221   4.987 133.121  0.00  0.00    +0.000 C 
BRANCH  18  19
ATOM     19  C   UNL     1      -8.634   4.011 133.949  0.00  0.00    +0.000 C 
ATOM     20  C   UNL     1      -7.292   3.760 133.545  0.00  0.00    +0.000 C 
ATOM     21  C   UNL     1      -8.020   4.794 134.978  0.00  0.00    +0.000 C 
ENDBRANCH  18  19
ENDBRANCH  17  18
BRANCH  17  22
ATOM     22  C   UNL     1      -9.117   6.414 131.180  0.00  0.00    +0.000 C 
BRANCH  22  23
ATOM     23  C   UNL     1     -10.507   7.105 130.779  0.00  0.00    +0.000 C 
ATOM     24  C   UNL     1     -11.769   6.356 131.104  0.00  0.00    +0.000 C 
ATOM     25  C   UNL     1     -12.717   6.758 129.980  0.00  0.00    +0.000 C 
ATOM     26  C   UNL     1     -11.824   6.927 128.792  0.00  0.00    +0.000 C 
ATOM     27  O   UNL     1     -10.610   7.322 129.360  0.00  0.00    +0.000 OA
ENDBRANCH  22  23
ENDBRANCH  17  22
ENDBRANCH   4  15
TORSDOF 7
ENDMDL
MODEL 9
REMARK VINA RESULT:      -7.3      5.603      9.495
REMARK  Name = CHEMBL515111
REMARK  8 active torsions:
REMARK  status: ('A' for Active; 'I' for Inactive)
REMARK    1  A    between atoms: C_1  and  O_2
REMARK    2  A    between atoms: O_2  and  C_3
REMARK    3  A    between atoms: C_8  and  C_9
REMARK    4  A    between atoms: C_12  and  C_13
REMARK    5  A    between atoms: N_15  and  C_16
REMARK    6  A    between atoms: N_15  and  C_20
REMARK    7  A    between atoms: C_16  and  C_17
REMARK    8  A    between atoms: C_20  and  C_21
REMARK                            x       y       z     vdW  Elec       q    Type
REMARK                         _______ _______ _______ _____ _____    ______ ____
ROOT
ATOM      1  C   UNL     1      -7.889  -0.089 127.833  0.00  0.00    +0.000 A 
ATOM      2  C   UNL     1      -7.381   0.940 127.017  0.00  0.00    +0.000 A 
ATOM      3  C   UNL     1      -7.425   2.360 127.387  0.00  0.00    +0.000 A 
ATOM      4  C   UNL     1      -8.063   2.758 128.541  0.00  0.00    +0.000 A 
ATOM      5  C   UNL     1      -8.213   1.579 129.245  0.00  0.00    +0.000 A 
ATOM      6  C   UNL     1      -8.182   0.239 129.070  0.00  0.00    +0.000 A 
ENDROOT
BRANCH   1  12
ATOM      7  C   UNL     1      -8.674  -2.193 126.705  0.00  0.00    +0.000 A 
ATOM      8  C   UNL     1      -8.785  -3.569 126.846  0.00  0.00    +0.000 A 
ATOM      9  C   UNL     1      -8.343  -4.194 128.024  0.00  0.00    +0.000 A 
ATOM     10  C   UNL     1      -7.851  -3.461 129.098  0.00  0.00    +0.000 A 
ATOM     11  C   UNL     1      -7.740  -2.108 128.967  0.00  0.00    +0.000 A 
ATOM     12  C   UNL     1      -7.990  -1.497 127.729  0.00  0.00    +0.000 A 
BRANCH   7  14
ATOM     13  C   UNL     1      -8.767  -1.498 124.404  0.00  0.00    +0.000 C 
ATOM     14  O   UNL     1      -9.408  -1.656 125.666  0.00  0.00    +0.000 OA
ENDBRANCH   7  14
ENDBRANCH   1  12
BRANCH   4  15
ATOM     15  C   UNL     1      -8.605   4.279 128.918  0.00  0.00    +0.000 C 
ATOM     16  O   UNL     1      -8.478   5.084 127.970  0.00  0.00    +0.000 OA
ATOM     17  N   UNL     1      -9.252   4.839 130.162  0.00  0.00    +0.000 N 
BRANCH  17  18
ATOM     18  C   UNL     1      -9.672   4.280 131.488  0.00  0.00    +0.000 C 
BRANCH  18  19
ATOM     19  C   UNL     1      -8.848   3.538 132.357  0.00  0.00    +0.000 C 
ATOM     20  C   UNL     1      -9.216   3.775 133.712  0.00  0.00    +0.000 C 
ATOM     21  C   UNL     1      -9.578   2.320 132.527  0.00  0.00    +0.000 C 
ENDBRANCH  18  19
ENDBRANCH  17  18
BRANCH  17  22
ATOM     22  C   UNL     1      -9.474   6.334 130.243  0.00  0.00    +0.000 C 
BRANCH  22  23
ATOM     23  C   UNL     1     -10.738   6.887 129.426  0.00  0.00    +0.000 C 
ATOM     24  C   UNL     1     -10.549   8.149 128.631  0.00  0.00    +0.000 C 
ATOM     25  C   UNL     1     -11.919   8.815 128.695  0.00  0.00    +0.000 C 
ATOM     26  C   UNL     1     -12.441   8.446 130.047  0.00  0.00    +0.000 C 
ATOM     27  O   UNL     1     -11.841   7.208 130.293  0.00  0.00    +0.000 OA
ENDBRANCH  22  23
ENDBRANCH  17  22
ENDBRANCH   4  15
TORSDOF 7
ENDMDL
