MODEL 1
REMARK VINA RESULT:      -9.4      0.000      0.000
REMARK  Name = CHEMBL1779409
REMARK  13 active torsions:
REMARK  status: ('A' for Active; 'I' for Inactive)
REMARK    1  A    between atoms: C_1  and  O_2
REMARK    2  A    between atoms: O_2  and  C_3
REMARK    3  A    between atoms: C_6  and  S_7
REMARK    4  A    between atoms: S_7  and  N_10
REMARK    5  A    between atoms: C_13  and  C_14
REMARK    6  A    between atoms: C_13  and  N_28
REMARK    7  A    between atoms: C_16  and  C_17
REMARK    8  A    between atoms: C_17  and  N_18
REMARK    9  A    between atoms: C_25  and  O_26
REMARK   10  A    between atoms: O_26  and  C_27
REMARK   11  A    between atoms: C_32  and  C_33
REMARK   12  A    between atoms: N_35  and  C_36
REMARK   13  A    between atoms: N_35  and  C_37
REMARK                            x       y       z     vdW  Elec       q    Type
REMARK                         _______ _______ _______ _____ _____    ______ ____
ROOT
ATOM      1  N   UNL     1      -6.485   4.323 128.471  0.00  0.00    +0.000 N 
ATOM      2  C   UNL     1      -7.791   4.083 128.295  0.00  0.00    +0.000 C 
ATOM      3  O   UNL     1      -8.534   4.925 127.852  0.00  0.00    +0.000 OA
ATOM      4  C   UNL     1      -7.409   2.863 129.624  0.00  0.00    +0.000 C 
ATOM      5  C   UNL     1      -8.519   3.569 130.210  0.00  0.00    +0.000 A 
ATOM      6  C   UNL     1      -9.876   3.974 130.041  0.00  0.00    +0.000 A 
ATOM      7  C   UNL     1     -10.354   4.914 130.914  0.00  0.00    +0.000 A 
ATOM      8 CL   UNL     1     -11.604   6.013 130.532  0.00  0.00    +0.000 Cl
ATOM      9  C   UNL     1      -9.493   5.133 131.917  0.00  0.00    +0.000 A 
ATOM     10  C   UNL     1      -8.120   4.900 131.483  0.00  0.00    +0.000 A 
ATOM     11  C   UNL     1      -7.723   4.618 130.019  0.00  0.00    +0.000 A 
ENDROOT
BRANCH   4  12
ATOM     12  C   UNL     1      -7.632   1.415 129.610  0.00  0.00    +0.000 A 
ATOM     13  C   UNL     1      -7.297   0.784 128.364  0.00  0.00    +0.000 A 
ATOM     14  C   UNL     1      -7.630  -0.476 128.061  0.00  0.00    +0.000 A 
ATOM     15  C   UNL     1      -7.428  -1.149 129.213  0.00  0.00    +0.000 A 
ATOM     16  C   UNL     1      -7.923  -0.698 130.421  0.00  0.00    +0.000 A 
ATOM     17  C   UNL     1      -7.996   0.615 130.662  0.00  0.00    +0.000 A 
BRANCH  17  18
ATOM     18  O   UNL     1      -8.113   0.781 132.014  0.00  0.00    +0.000 OA
ATOM     19  C   UNL     1      -7.399  -0.202 132.633  0.00  0.00    +0.000 C 
ENDBRANCH  17  18
BRANCH  14  20
ATOM     20  C   UNL     1      -7.887  -1.087 126.699  0.00  0.00    +0.000 C 
BRANCH  20  21
ATOM     21  N   UNL     1      -7.118  -2.341 126.406  0.00  0.00    +0.000 NA
ATOM     22  C   UNL     1      -5.676  -2.041 126.212  0.00  0.00    +0.000 C 
ATOM     23  C   UNL     1      -5.472  -1.837 124.729  0.00  0.00    +0.000 C 
ATOM     24  C   UNL     1      -6.488  -2.802 124.100  0.00  0.00    +0.000 C 
ATOM     25  C   UNL     1      -7.557  -3.067 125.198  0.00  0.00    +0.000 C 
ENDBRANCH  20  21
ENDBRANCH  14  20
ENDBRANCH   4  12
BRANCH   4  26
ATOM     26  N   UNL     1      -5.757   3.192 130.306  0.00  0.00    +0.000 NA
ATOM     27  C   UNL     1      -4.565   2.841 129.558  0.00  0.00    +0.000 C 
ATOM     28  C   UNL     1      -4.197   1.525 130.232  0.00  0.00    +0.000 C 
ATOM     29  C   UNL     1      -4.359   1.792 131.705  0.00  0.00    +0.000 C 
ATOM     30  C   UNL     1      -5.340   2.945 131.740  0.00  0.00    +0.000 C 
BRANCH  30  31
ATOM     31  C   UNL     1      -4.973   4.095 132.665  0.00  0.00    +0.000 C 
ATOM     32  O   UNL     1      -4.268   5.039 132.316  0.00  0.00    +0.000 OA
ATOM     33  N   UNL     1      -5.630   4.044 133.929  0.00  0.00    +0.000 N 
ATOM     34  C   UNL     1      -6.632   3.056 134.383  0.00  0.00    +0.000 C 
ATOM     35  C   UNL     1      -5.261   5.052 134.895  0.00  0.00    +0.000 C 
ENDBRANCH  30  31
ENDBRANCH   4  26
BRANCH   1  36
ATOM     36  S   UNL     1      -6.594   3.841 126.255  0.00  0.00    +0.000 S 
ATOM     37  O   UNL     1      -5.255   3.326 126.079  0.00  0.00    +0.000 OA
ATOM     38  O   UNL     1      -6.946   4.921 125.327  0.00  0.00    +0.000 OA
BRANCH  36  42
ATOM     39  C   UNL     1      -9.249   0.460 123.457  0.00  0.00    +0.000 A 
ATOM     40  C   UNL     1      -9.897   1.235 124.414  0.00  0.00    +0.000 A 
ATOM     41  C   UNL     1      -9.134   2.226 125.188  0.00  0.00    +0.000 A 
ATOM     42  C   UNL     1      -7.671   2.470 125.009  0.00  0.00    +0.000 A 
ATOM     43  C   UNL     1      -7.071   1.563 124.155  0.00  0.00    +0.000 A 
ATOM     44  C   UNL     1      -7.857   0.628 123.361  0.00  0.00    +0.000 A 
BRANCH  39  46
ATOM     45  C   UNL     1      -9.630  -1.714 122.525  0.00  0.00    +0.000 C 
ATOM     46  O   UNL     1     -10.001  -0.331 122.612  0.00  0.00    +0.000 OA
ENDBRANCH  39  46
ENDBRANCH  36  42
ENDBRANCH   1  36
TORSDOF 9
ENDMDL
MODEL 2
REMARK VINA RESULT:      -9.0      3.663      6.422
REMARK  Name = CHEMBL1779409
REMARK  13 active torsions:
REMARK  status: ('A' for Active; 'I' for Inactive)
REMARK    1  A    between atoms: C_1  and  O_2
REMARK    2  A    between atoms: O_2  and  C_3
REMARK    3  A    between atoms: C_6  and  S_7
REMARK    4  A    between atoms: S_7  and  N_10
REMARK    5  A    between atoms: C_13  and  C_14
REMARK    6  A    between atoms: C_13  and  N_28
REMARK    7  A    between atoms: C_16  and  C_17
REMARK    8  A    between atoms: C_17  and  N_18
REMARK    9  A    between atoms: C_25  and  O_26
REMARK   10  A    between atoms: O_26  and  C_27
REMARK   11  A    between atoms: C_32  and  C_33
REMARK   12  A    between atoms: N_35  and  C_36
REMARK   13  A    between atoms: N_35  and  C_37
REMARK                            x       y       z     vdW  Elec       q    Type
REMARK                         _______ _______ _______ _____ _____    ______ ____
ROOT
ATOM      1  N   UNL     1      -4.190   1.775 131.558  0.00  0.00    +0.000 N 
ATOM      2  C   UNL     1      -4.543   1.594 130.278  0.00  0.00    +0.000 C 
ATOM      3  O   UNL     1      -3.809   1.047 129.492  0.00  0.00    +0.000 OA
ATOM      4  C   UNL     1      -5.587   3.054 130.703  0.00  0.00    +0.000 C 
ATOM      5  C   UNL     1      -4.908   3.535 129.529  0.00  0.00    +0.000 A 
ATOM      6  C   UNL     1      -4.625   3.291 128.152  0.00  0.00    +0.000 A 
ATOM      7  C   UNL     1      -3.637   4.049 127.581  0.00  0.00    +0.000 A 
ATOM      8 CL   UNL     1      -2.680   3.523 126.268  0.00  0.00    +0.000 Cl
ATOM      9  C   UNL     1      -3.252   5.043 128.392  0.00  0.00    +0.000 A 
ATOM     10  C   UNL     1      -3.427   4.670 129.792  0.00  0.00    +0.000 A 
ATOM     11  C   UNL     1      -3.829   3.253 130.253  0.00  0.00    +0.000 A 
ENDROOT
BRANCH   4  12
ATOM     12  C   UNL     1      -7.041   3.187 130.585  0.00  0.00    +0.000 A 
ATOM     13  C   UNL     1      -7.466   4.350 129.858  0.00  0.00    +0.000 A 
ATOM     14  C   UNL     1      -8.732   4.780 129.825  0.00  0.00    +0.000 A 
ATOM     15  C   UNL     1      -9.456   3.645 129.728  0.00  0.00    +0.000 A 
ATOM     16  C   UNL     1      -9.236   2.563 130.559  0.00  0.00    +0.000 A 
ATOM     17  C   UNL     1      -7.997   2.285 130.976  0.00  0.00    +0.000 A 
BRANCH  17  18
ATOM     18  O   UNL     1      -7.990   0.989 131.414  0.00  0.00    +0.000 OA
ATOM     19  C   UNL     1      -9.251   0.661 131.814  0.00  0.00    +0.000 C 
ENDBRANCH  17  18
BRANCH  14  20
ATOM     20  C   UNL     1      -9.249   6.191 129.640  0.00  0.00    +0.000 C 
BRANCH  20  21
ATOM     21  N   UNL     1     -10.580   6.300 128.957  0.00  0.00    +0.000 NA
ATOM     22  C   UNL     1     -10.480   7.152 127.744  0.00  0.00    +0.000 C 
ATOM     23  C   UNL     1     -10.837   8.557 128.172  0.00  0.00    +0.000 C 
ATOM     24  C   UNL     1     -11.883   8.332 129.273  0.00  0.00    +0.000 C 
ATOM     25  C   UNL     1     -11.655   6.880 129.785  0.00  0.00    +0.000 C 
ENDBRANCH  20  21
ENDBRANCH  14  20
ENDBRANCH   4  12
BRANCH   4  26
ATOM     26  N   UNL     1      -5.068   3.736 132.306  0.00  0.00    +0.000 NA
ATOM     27  C   UNL     1      -5.312   3.006 133.535  0.00  0.00    +0.000 C 
ATOM     28  C   UNL     1      -6.563   3.720 134.032  0.00  0.00    +0.000 C 
ATOM     29  C   UNL     1      -6.274   5.183 133.829  0.00  0.00    +0.000 C 
ATOM     30  C   UNL     1      -5.230   5.179 132.733  0.00  0.00    +0.000 C 
BRANCH  30  31
ATOM     31  C   UNL     1      -4.022   6.074 132.968  0.00  0.00    +0.000 C 
ATOM     32  O   UNL     1      -3.151   5.821 133.797  0.00  0.00    +0.000 OA
ATOM     33  N   UNL     1      -3.928   7.159 132.050  0.00  0.00    +0.000 N 
ATOM     34  C   UNL     1      -4.818   7.451 130.906  0.00  0.00    +0.000 C 
ATOM     35  C   UNL     1      -2.858   8.105 132.269  0.00  0.00    +0.000 C 
ENDBRANCH  30  31
ENDBRANCH   4  26
BRANCH   1  36
ATOM     36  S   UNL     1      -4.905  -0.379 131.553  0.00  0.00    +0.000 S 
ATOM     37  O   UNL     1      -5.685  -0.351 132.769  0.00  0.00    +0.000 OA
ATOM     38  O   UNL     1      -3.897  -1.445 131.514  0.00  0.00    +0.000 OA
BRANCH  36  42
ATOM     39  C   UNL     1      -8.058  -3.103 128.561  0.00  0.00    +0.000 A 
ATOM     40  C   UNL     1      -7.233  -2.130 128.003  0.00  0.00    +0.000 A 
ATOM     41  C   UNL     1      -6.308  -1.378 128.864  0.00  0.00    +0.000 A 
ATOM     42  C   UNL     1      -6.183  -1.595 130.336  0.00  0.00    +0.000 A 
ATOM     43  C   UNL     1      -7.136  -2.463 130.838  0.00  0.00    +0.000 A 
ATOM     44  C   UNL     1      -8.003  -3.235 129.959  0.00  0.00    +0.000 A 
BRANCH  39  46
ATOM     45  C   UNL     1      -9.158  -3.384 126.451  0.00  0.00    +0.000 C 
ATOM     46  O   UNL     1      -8.784  -3.927 127.725  0.00  0.00    +0.000 OA
ENDBRANCH  39  46
ENDBRANCH  36  42
ENDBRANCH   1  36
TORSDOF 9
ENDMDL
MODEL 3
REMARK VINA RESULT:      -9.0      1.567      2.020
REMARK  Name = CHEMBL1779409
REMARK  13 active torsions:
REMARK  status: ('A' for Active; 'I' for Inactive)
REMARK    1  A    between atoms: C_1  and  O_2
REMARK    2  A    between atoms: O_2  and  C_3
REMARK    3  A    between atoms: C_6  and  S_7
REMARK    4  A    between atoms: S_7  and  N_10
REMARK    5  A    between atoms: C_13  and  C_14
REMARK    6  A    between atoms: C_13  and  N_28
REMARK    7  A    between atoms: C_16  and  C_17
REMARK    8  A    between atoms: C_17  and  N_18
REMARK    9  A    between atoms: C_25  and  O_26
REMARK   10  A    between atoms: O_26  and  C_27
REMARK   11  A    between atoms: C_32  and  C_33
REMARK   12  A    between atoms: N_35  and  C_36
REMARK   13  A    between atoms: N_35  and  C_37
REMARK                            x       y       z     vdW  Elec       q    Type
REMARK                         _______ _______ _______ _____ _____    ______ ____
ROOT
ATOM      1  N   UNL     1      -5.284   4.069 129.043  0.00  0.00    +0.000 N 
ATOM      2  C   UNL     1      -6.584   4.121 128.721  0.00  0.00    +0.000 C 
ATOM      3  O   UNL     1      -7.005   4.920 127.921  0.00  0.00    +0.000 OA
ATOM      4  C   UNL     1      -6.691   3.372 130.404  0.00  0.00    +0.000 C 
ATOM      5  C   UNL     1      -7.586   4.491 130.543  0.00  0.00    +0.000 A 
ATOM      6  C   UNL     1      -8.744   5.142 130.023  0.00  0.00    +0.000 A 
ATOM      7  C   UNL     1      -8.992   6.412 130.472  0.00  0.00    +0.000 A 
ATOM      8 CL   UNL     1      -9.826   7.593 129.562  0.00  0.00    +0.000 Cl
ATOM      9  C   UNL     1      -8.191   6.735 131.496  0.00  0.00    +0.000 A 
ATOM     10  C   UNL     1      -6.917   6.030 131.402  0.00  0.00    +0.000 A 
ATOM     11  C   UNL     1      -6.503   5.176 130.186  0.00  0.00    +0.000 A 
ENDROOT
BRANCH   4  12
ATOM     12  C   UNL     1      -7.330   2.112 130.790  0.00  0.00    +0.000 A 
ATOM     13  C   UNL     1      -7.223   1.075 129.803  0.00  0.00    +0.000 A 
ATOM     14  C   UNL     1      -7.919  -0.067 129.852  0.00  0.00    +0.000 A 
ATOM     15  C   UNL     1      -7.899  -0.401 131.159  0.00  0.00    +0.000 A 
ATOM     16  C   UNL     1      -8.213   0.508 132.152  0.00  0.00    +0.000 A 
ATOM     17  C   UNL     1      -7.891   1.796 132.000  0.00  0.00    +0.000 A 
BRANCH  17  18
ATOM     18  O   UNL     1      -7.923   2.378 133.238  0.00  0.00    +0.000 OA
ATOM     19  C   UNL     1      -9.110   3.035 133.375  0.00  0.00    +0.000 C 
ENDBRANCH  17  18
BRANCH  14  20
ATOM     20  C   UNL     1      -8.374  -0.950 128.709  0.00  0.00    +0.000 C 
BRANCH  20  21
ATOM     21  N   UNL     1      -7.659  -2.263 128.592  0.00  0.00    +0.000 NA
ATOM     22  C   UNL     1      -7.319  -2.553 127.175  0.00  0.00    +0.000 C 
ATOM     23  C   UNL     1      -8.456  -3.377 126.617  0.00  0.00    +0.000 C 
ATOM     24  C   UNL     1      -8.917  -4.203 127.827  0.00  0.00    +0.000 C 
ATOM     25  C   UNL     1      -8.422  -3.428 129.082  0.00  0.00    +0.000 C 
ENDBRANCH  20  21
ENDBRANCH  14  20
ENDBRANCH   4  12
BRANCH   4  26
ATOM     26  N   UNL     1      -5.078   3.486 131.232  0.00  0.00    +0.000 NA
ATOM     27  C   UNL     1      -3.987   2.609 130.851  0.00  0.00    +0.000 C 
ATOM     28  C   UNL     1      -4.084   1.558 131.950  0.00  0.00    +0.000 C 
ATOM     29  C   UNL     1      -4.280   2.348 133.217  0.00  0.00    +0.000 C 
ATOM     30  C   UNL     1      -4.872   3.651 132.722  0.00  0.00    +0.000 C 
BRANCH  30  31
ATOM     31  C   UNL     1      -4.256   4.917 133.299  0.00  0.00    +0.000 C 
ATOM     32  O   UNL     1      -3.328   5.516 132.763  0.00  0.00    +0.000 OA
ATOM     33  N   UNL     1      -4.942   5.415 134.446  0.00  0.00    +0.000 N 
ATOM     34  C   UNL     1      -6.172   4.875 135.063  0.00  0.00    +0.000 C 
ATOM     35  C   UNL     1      -4.361   6.562 135.104  0.00  0.00    +0.000 C 
ENDBRANCH  30  31
ENDBRANCH   4  26
BRANCH   1  36
ATOM     36  S   UNL     1      -5.348   2.905 127.094  0.00  0.00    +0.000 S 
ATOM     37  O   UNL     1      -4.515   1.789 127.481  0.00  0.00    +0.000 OA
ATOM     38  O   UNL     1      -4.910   3.581 125.868  0.00  0.00    +0.000 OA
BRANCH  36  42
ATOM     39  C   UNL     1      -8.953   0.306 124.534  0.00  0.00    +0.000 A 
ATOM     40  C   UNL     1      -9.293   1.036 125.669  0.00  0.00    +0.000 A 
ATOM     41  C   UNL     1      -8.259   1.805 126.377  0.00  0.00    +0.000 A 
ATOM     42  C   UNL     1      -6.830   1.865 125.947  0.00  0.00    +0.000 A 
ATOM     43  C   UNL     1      -6.539   0.999 124.909  0.00  0.00    +0.000 A 
ATOM     44  C   UNL     1      -7.590   0.291 124.191  0.00  0.00    +0.000 A 
BRANCH  39  46
ATOM     45  C   UNL     1     -10.081   0.207 122.422  0.00  0.00    +0.000 C 
ATOM     46  O   UNL     1      -9.957  -0.260 123.774  0.00  0.00    +0.000 OA
ENDBRANCH  39  46
ENDBRANCH  36  42
ENDBRANCH   1  36
TORSDOF 9
ENDMDL
MODEL 4
REMARK VINA RESULT:      -8.8      1.965      2.601
REMARK  Name = CHEMBL1779409
REMARK  13 active torsions:
REMARK  status: ('A' for Active; 'I' for Inactive)
REMARK    1  A    between atoms: C_1  and  O_2
REMARK    2  A    between atoms: O_2  and  C_3
REMARK    3  A    between atoms: C_6  and  S_7
REMARK    4  A    between atoms: S_7  and  N_10
REMARK    5  A    between atoms: C_13  and  C_14
REMARK    6  A    between atoms: C_13  and  N_28
REMARK    7  A    between atoms: C_16  and  C_17
REMARK    8  A    between atoms: C_17  and  N_18
REMARK    9  A    between atoms: C_25  and  O_26
REMARK   10  A    between atoms: O_26  and  C_27
REMARK   11  A    between atoms: C_32  and  C_33
REMARK   12  A    between atoms: N_35  and  C_36
REMARK   13  A    between atoms: N_35  and  C_37
REMARK                            x       y       z     vdW  Elec       q    Type
REMARK                         _______ _______ _______ _____ _____    ______ ____
ROOT
ATOM      1  N   UNL     1      -5.656   2.991 129.213  0.00  0.00    +0.000 N 
ATOM      2  C   UNL     1      -6.922   3.007 128.776  0.00  0.00    +0.000 C 
ATOM      3  O   UNL     1      -7.502   4.042 128.559  0.00  0.00    +0.000 OA
ATOM      4  C   UNL     1      -6.888   1.370 129.627  0.00  0.00    +0.000 C 
ATOM      5  C   UNL     1      -8.027   1.985 130.258  0.00  0.00    +0.000 A 
ATOM      6  C   UNL     1      -9.294   2.606 130.049  0.00  0.00    +0.000 A 
ATOM      7  C   UNL     1      -9.849   3.255 131.120  0.00  0.00    +0.000 A 
ATOM      8 CL   UNL     1     -10.917   4.579 130.976  0.00  0.00    +0.000 Cl
ATOM      9  C   UNL     1      -9.172   3.003 132.249  0.00  0.00    +0.000 A 
ATOM     10  C   UNL     1      -7.765   2.741 131.964  0.00  0.00    +0.000 A 
ATOM     11  C   UNL     1      -7.130   2.916 130.569  0.00  0.00    +0.000 A 
ENDROOT
BRANCH   4  12
ATOM     12  C   UNL     1      -7.218   0.057 129.068  0.00  0.00    +0.000 A 
ATOM     13  C   UNL     1      -6.795  -0.123 127.707  0.00  0.00    +0.000 A 
ATOM     14  C   UNL     1      -7.187  -1.147 126.941  0.00  0.00    +0.000 A 
ATOM     15  C   UNL     1      -7.167  -2.204 127.779  0.00  0.00    +0.000 A 
ATOM     16  C   UNL     1      -7.759  -2.159 129.027  0.00  0.00    +0.000 A 
ATOM     17  C   UNL     1      -7.758  -1.019 129.724  0.00  0.00    +0.000 A 
BRANCH  17  18
ATOM     18  O   UNL     1      -8.012  -1.333 131.030  0.00  0.00    +0.000 OA
ATOM     19  C   UNL     1      -7.510  -2.575 131.282  0.00  0.00    +0.000 C 
ENDBRANCH  17  18
BRANCH  14  20
ATOM     20  C   UNL     1      -7.336  -1.200 125.435  0.00  0.00    +0.000 C 
BRANCH  20  21
ATOM     21  N   UNL     1      -8.743  -1.347 124.937  0.00  0.00    +0.000 NA
ATOM     22  C   UNL     1      -9.327  -2.638 125.384  0.00  0.00    +0.000 C 
ATOM     23  C   UNL     1      -9.069  -3.636 124.279  0.00  0.00    +0.000 C 
ATOM     24  C   UNL     1      -9.145  -2.777 123.007  0.00  0.00    +0.000 C 
ATOM     25  C   UNL     1      -8.885  -1.314 123.467  0.00  0.00    +0.000 C 
ENDBRANCH  20  21
ENDBRANCH  14  20
ENDBRANCH   4  12
BRANCH   4  26
ATOM     26  N   UNL     1      -5.369   1.220 130.612  0.00  0.00    +0.000 NA
ATOM     27  C   UNL     1      -4.089   0.995 129.968  0.00  0.00    +0.000 C 
ATOM     28  C   UNL     1      -3.946  -0.510 130.162  0.00  0.00    +0.000 C 
ATOM     29  C   UNL     1      -4.354  -0.751 131.591  0.00  0.00    +0.000 C 
ATOM     30  C   UNL     1      -5.239   0.438 131.902  0.00  0.00    +0.000 C 
BRANCH  30  31
ATOM     31  C   UNL     1      -4.965   1.137 133.225  0.00  0.00    +0.000 C 
ATOM     32  O   UNL     1      -4.461   2.254 133.302  0.00  0.00    +0.000 OA
ATOM     33  N   UNL     1      -5.467   0.432 134.358  0.00  0.00    +0.000 N 
ATOM     34  C   UNL     1      -6.244  -0.825 134.364  0.00  0.00    +0.000 C 
ATOM     35  C   UNL     1      -5.163   0.988 135.656  0.00  0.00    +0.000 C 
ENDBRANCH  30  31
ENDBRANCH   4  26
BRANCH   1  36
ATOM     36  S   UNL     1      -5.394   3.302 126.980  0.00  0.00    +0.000 S 
ATOM     37  O   UNL     1      -4.415   2.268 126.730  0.00  0.00    +0.000 OA
ATOM     38  O   UNL     1      -4.993   4.631 126.507  0.00  0.00    +0.000 OA
BRANCH  36  42
ATOM     39  C   UNL     1      -8.231   2.985 122.718  0.00  0.00    +0.000 A 
ATOM     40  C   UNL     1      -6.886   3.335 122.637  0.00  0.00    +0.000 A 
ATOM     41  C   UNL     1      -6.072   3.391 123.861  0.00  0.00    +0.000 A 
ATOM     42  C   UNL     1      -6.601   3.082 125.223  0.00  0.00    +0.000 A 
ATOM     43  C   UNL     1      -7.971   2.893 125.242  0.00  0.00    +0.000 A 
ATOM     44  C   UNL     1      -8.744   2.788 124.012  0.00  0.00    +0.000 A 
BRANCH  39  46
ATOM     45  C   UNL     1      -8.907   3.799 120.569  0.00  0.00    +0.000 C 
ATOM     46  O   UNL     1      -8.937   2.756 121.554  0.00  0.00    +0.000 OA
ENDBRANCH  39  46
ENDBRANCH  36  42
ENDBRANCH   1  36
TORSDOF 9
ENDMDL
MODEL 5
REMARK VINA RESULT:      -8.7      3.585      7.912
REMARK  Name = CHEMBL1779409
REMARK  13 active torsions:
REMARK  status: ('A' for Active; 'I' for Inactive)
REMARK    1  A    between atoms: C_1  and  O_2
REMARK    2  A    between atoms: O_2  and  C_3
REMARK    3  A    between atoms: C_6  and  S_7
REMARK    4  A    between atoms: S_7  and  N_10
REMARK    5  A    between atoms: C_13  and  C_14
REMARK    6  A    between atoms: C_13  and  N_28
REMARK    7  A    between atoms: C_16  and  C_17
REMARK    8  A    between atoms: C_17  and  N_18
REMARK    9  A    between atoms: C_25  and  O_26
REMARK   10  A    between atoms: O_26  and  C_27
REMARK   11  A    between atoms: C_32  and  C_33
REMARK   12  A    between atoms: N_35  and  C_36
REMARK   13  A    between atoms: N_35  and  C_37
REMARK                            x       y       z     vdW  Elec       q    Type
REMARK                         _______ _______ _______ _____ _____    ______ ____
ROOT
ATOM      1  N   UNL     1      -4.692  -0.189 128.790  0.00  0.00    +0.000 N 
ATOM      2  C   UNL     1      -5.671  -1.081 128.987  0.00  0.00    +0.000 C 
ATOM      3  O   UNL     1      -5.585  -2.214 128.579  0.00  0.00    +0.000 OA
ATOM      4  C   UNL     1      -6.634   0.489 129.080  0.00  0.00    +0.000 C 
ATOM      5  C   UNL     1      -7.380  -0.232 128.081  0.00  0.00    +0.000 A 
ATOM      6  C   UNL     1      -8.085  -1.434 127.781  0.00  0.00    +0.000 A 
ATOM      7  C   UNL     1      -8.398  -1.656 126.466  0.00  0.00    +0.000 A 
ATOM      8 CL   UNL     1      -8.585  -3.210 125.786  0.00  0.00    +0.000 Cl
ATOM      9  C   UNL     1      -8.154  -0.573 125.717  0.00  0.00    +0.000 A 
ATOM     10  C   UNL     1      -7.060   0.213 126.278  0.00  0.00    +0.000 A 
ATOM     11  C   UNL     1      -6.199  -0.254 127.470  0.00  0.00    +0.000 A 
ENDROOT
BRANCH   4  12
ATOM     12  C   UNL     1      -7.494   0.955 130.171  0.00  0.00    +0.000 A 
ATOM     13  C   UNL     1      -8.522   1.868 129.757  0.00  0.00    +0.000 A 
ATOM     14  C   UNL     1      -9.266   2.581 130.611  0.00  0.00    +0.000 A 
ATOM     15  C   UNL     1      -9.521   1.718 131.615  0.00  0.00    +0.000 A 
ATOM     16  C   UNL     1      -8.522   0.968 132.208  0.00  0.00    +0.000 A 
ATOM     17  C   UNL     1      -7.495   0.531 131.474  0.00  0.00    +0.000 A 
BRANCH  17  18
ATOM     18  O   UNL     1      -6.900  -0.490 132.165  0.00  0.00    +0.000 OA
ATOM     19  C   UNL     1      -7.870  -1.352 132.581  0.00  0.00    +0.000 C 
ENDBRANCH  17  18
BRANCH  14  20
ATOM     20  C   UNL     1      -9.925   3.928 130.396  0.00  0.00    +0.000 C 
BRANCH  20  21
ATOM     21  N   UNL     1      -9.712   4.925 131.496  0.00  0.00    +0.000 NA
ATOM     22  C   UNL     1     -10.306   6.239 131.137  0.00  0.00    +0.000 C 
ATOM     23  C   UNL     1      -9.205   7.050 130.493  0.00  0.00    +0.000 C 
ATOM     24  C   UNL     1      -7.945   6.580 131.234  0.00  0.00    +0.000 C 
ATOM     25  C   UNL     1      -8.298   5.186 131.829  0.00  0.00    +0.000 C 
ENDBRANCH  20  21
ENDBRANCH  14  20
ENDBRANCH   4  12
BRANCH   4  26
ATOM     26  N   UNL     1      -5.606   1.877 128.515  0.00  0.00    +0.000 NA
ATOM     27  C   UNL     1      -4.648   2.499 129.408  0.00  0.00    +0.000 C 
ATOM     28  C   UNL     1      -5.441   3.723 129.849  0.00  0.00    +0.000 C 
ATOM     29  C   UNL     1      -6.056   4.256 128.582  0.00  0.00    +0.000 C 
ATOM     30  C   UNL     1      -6.094   3.041 127.680  0.00  0.00    +0.000 C 
BRANCH  30  31
ATOM     31  C   UNL     1      -5.598   3.257 126.259  0.00  0.00    +0.000 C 
ATOM     32  O   UNL     1      -4.452   2.995 125.901  0.00  0.00    +0.000 OA
ATOM     33  N   UNL     1      -6.619   3.666 125.353  0.00  0.00    +0.000 N 
ATOM     34  C   UNL     1      -8.060   3.835 125.637  0.00  0.00    +0.000 C 
ATOM     35  C   UNL     1      -6.205   3.981 124.005  0.00  0.00    +0.000 C 
ENDBRANCH  30  31
ENDBRANCH   4  26
BRANCH   1  36
ATOM     36  S   UNL     1      -3.930  -1.356 130.582  0.00  0.00    +0.000 S 
ATOM     37  O   UNL     1      -3.840  -0.267 131.528  0.00  0.00    +0.000 OA
ATOM     38  O   UNL     1      -2.688  -2.123 130.433  0.00  0.00    +0.000 OA
BRANCH  36  42
ATOM     39  C   UNL     1      -5.519  -5.048 133.768  0.00  0.00    +0.000 A 
ATOM     40  C   UNL     1      -4.922  -3.898 134.275  0.00  0.00    +0.000 A 
ATOM     41  C   UNL     1      -4.500  -2.830 133.357  0.00  0.00    +0.000 A 
ATOM     42  C   UNL     1      -4.679  -2.892 131.875  0.00  0.00    +0.000 A 
ATOM     43  C   UNL     1      -5.136  -4.121 131.435  0.00  0.00    +0.000 A 
ATOM     44  C   UNL     1      -5.597  -5.141 132.368  0.00  0.00    +0.000 A 
BRANCH  39  46
ATOM     45  C   UNL     1      -7.210  -5.511 135.401  0.00  0.00    +0.000 C 
ATOM     46  O   UNL     1      -6.076  -5.958 134.644  0.00  0.00    +0.000 OA
ENDBRANCH  39  46
ENDBRANCH  36  42
ENDBRANCH   1  36
TORSDOF 9
ENDMDL
MODEL 6
REMARK VINA RESULT:      -8.5      3.518      8.161
REMARK  Name = CHEMBL1779409
REMARK  13 active torsions:
REMARK  status: ('A' for Active; 'I' for Inactive)
REMARK    1  A    between atoms: C_1  and  O_2
REMARK    2  A    between atoms: O_2  and  C_3
REMARK    3  A    between atoms: C_6  and  S_7
REMARK    4  A    between atoms: S_7  and  N_10
REMARK    5  A    between atoms: C_13  and  C_14
REMARK    6  A    between atoms: C_13  and  N_28
REMARK    7  A    between atoms: C_16  and  C_17
REMARK    8  A    between atoms: C_17  and  N_18
REMARK    9  A    between atoms: C_25  and  O_26
REMARK   10  A    between atoms: O_26  and  C_27
REMARK   11  A    between atoms: C_32  and  C_33
REMARK   12  A    between atoms: N_35  and  C_36
REMARK   13  A    between atoms: N_35  and  C_37
REMARK                            x       y       z     vdW  Elec       q    Type
REMARK                         _______ _______ _______ _____ _____    ______ ____
ROOT
ATOM      1  N   UNL     1      -5.443   5.407 129.293  0.00  0.00    +0.000 N 
ATOM      2  C   UNL     1      -4.139   5.102 129.293  0.00  0.00    +0.000 C 
ATOM      3  O   UNL     1      -3.351   5.701 128.603  0.00  0.00    +0.000 OA
ATOM      4  C   UNL     1      -4.853   3.488 129.828  0.00  0.00    +0.000 C 
ATOM      5  C   UNL     1      -4.048   3.074 128.708  0.00  0.00    +0.000 A 
ATOM      6  C   UNL     1      -2.741   3.073 128.137  0.00  0.00    +0.000 A 
ATOM      7  C   UNL     1      -2.642   2.698 126.823  0.00  0.00    +0.000 A 
ATOM      8 CL   UNL     1      -1.413   3.246 125.772  0.00  0.00    +0.000 Cl
ATOM      9  C   UNL     1      -3.797   2.195 126.370  0.00  0.00    +0.000 A 
ATOM     10  C   UNL     1      -4.933   2.784 127.070  0.00  0.00    +0.000 A 
ATOM     11  C   UNL     1      -4.806   3.958 128.064  0.00  0.00    +0.000 A 
ENDROOT
BRANCH   4  12
ATOM     12  C   UNL     1      -4.541   2.721 131.036  0.00  0.00    +0.000 A 
ATOM     13  C   UNL     1      -4.201   1.348 130.787  0.00  0.00    +0.000 A 
ATOM     14  C   UNL     1      -4.102   0.424 131.750  0.00  0.00    +0.000 A 
ATOM     15  C   UNL     1      -3.495   1.076 132.762  0.00  0.00    +0.000 A 
ATOM     16  C   UNL     1      -3.924   2.317 133.196  0.00  0.00    +0.000 A 
ATOM     17  C   UNL     1      -4.424   3.192 132.319  0.00  0.00    +0.000 A 
BRANCH  17  18
ATOM     18  O   UNL     1      -4.379   4.429 132.899  0.00  0.00    +0.000 OA
ATOM     19  C   UNL     1      -4.838   4.324 134.178  0.00  0.00    +0.000 C 
ENDBRANCH  17  18
BRANCH  14  20
ATOM     20  C   UNL     1      -4.333  -1.070 131.656  0.00  0.00    +0.000 C 
BRANCH  20  21
ATOM     21  N   UNL     1      -5.456  -1.597 132.498  0.00  0.00    +0.000 NA
ATOM     22  C   UNL     1      -5.904  -2.925 132.007  0.00  0.00    +0.000 C 
ATOM     23  C   UNL     1      -7.042  -2.670 131.046  0.00  0.00    +0.000 C 
ATOM     24  C   UNL     1      -7.728  -1.430 131.637  0.00  0.00    +0.000 C 
ATOM     25  C   UNL     1      -6.658  -0.740 132.532  0.00  0.00    +0.000 C 
ENDBRANCH  20  21
ENDBRANCH  14  20
ENDBRANCH   4  12
BRANCH   4  26
ATOM     26  N   UNL     1      -6.656   3.505 129.599  0.00  0.00    +0.000 NA
ATOM     27  C   UNL     1      -7.507   4.266 130.494  0.00  0.00    +0.000 C 
ATOM     28  C   UNL     1      -7.988   3.156 131.421  0.00  0.00    +0.000 C 
ATOM     29  C   UNL     1      -8.340   2.016 130.502  0.00  0.00    +0.000 C 
ATOM     30  C   UNL     1      -7.505   2.297 129.271  0.00  0.00    +0.000 C 
BRANCH  30  31
ATOM     31  C   UNL     1      -8.233   2.181 127.940  0.00  0.00    +0.000 C 
ATOM     32  O   UNL     1      -8.644   3.154 127.313  0.00  0.00    +0.000 OA
ATOM     33  N   UNL     1      -8.276   0.852 127.426  0.00  0.00    +0.000 N 
ATOM     34  C   UNL     1      -7.658  -0.358 128.007  0.00  0.00    +0.000 C 
ATOM     35  C   UNL     1      -9.031   0.649 126.211  0.00  0.00    +0.000 C 
ENDBRANCH  30  31
ENDBRANCH   4  26
BRANCH   1  36
ATOM     36  S   UNL     1      -4.580   6.974 130.690  0.00  0.00    +0.000 S 
ATOM     37  O   UNL     1      -5.563   6.889 131.746  0.00  0.00    +0.000 OA
ATOM     38  O   UNL     1      -4.378   8.331 130.169  0.00  0.00    +0.000 OA
BRANCH  36  42
ATOM     39  C   UNL     1      -0.300   7.720 133.417  0.00  0.00    +0.000 A 
ATOM     40  C   UNL     1      -1.322   8.665 133.449  0.00  0.00    +0.000 A 
ATOM     41  C   UNL     1      -2.559   8.426 132.691  0.00  0.00    +0.000 A 
ATOM     42  C   UNL     1      -2.806   7.203 131.870  0.00  0.00    +0.000 A 
ATOM     43  C   UNL     1      -1.693   6.388 131.764  0.00  0.00    +0.000 A 
ATOM     44  C   UNL     1      -0.501   6.618 132.568  0.00  0.00    +0.000 A 
BRANCH  39  46
ATOM     45  C   UNL     1       0.606   7.359 135.605  0.00  0.00    +0.000 C 
ATOM     46  O   UNL     1       0.774   7.862 134.272  0.00  0.00    +0.000 OA
ENDBRANCH  39  46
ENDBRANCH  36  42
ENDBRANCH   1  36
TORSDOF 9
ENDMDL
MODEL 7
REMARK VINA RESULT:      -8.4      1.775      3.179
REMARK  Name = CHEMBL1779409
REMARK  13 active torsions:
REMARK  status: ('A' for Active; 'I' for Inactive)
REMARK    1  A    between atoms: C_1  and  O_2
REMARK    2  A    between atoms: O_2  and  C_3
REMARK    3  A    between atoms: C_6  and  S_7
REMARK    4  A    between atoms: S_7  and  N_10
REMARK    5  A    between atoms: C_13  and  C_14
REMARK    6  A    between atoms: C_13  and  N_28
REMARK    7  A    between atoms: C_16  and  C_17
REMARK    8  A    between atoms: C_17  and  N_18
REMARK    9  A    between atoms: C_25  and  O_26
REMARK   10  A    between atoms: O_26  and  C_27
REMARK   11  A    between atoms: C_32  and  C_33
REMARK   12  A    between atoms: N_35  and  C_36
REMARK   13  A    between atoms: N_35  and  C_37
REMARK                            x       y       z     vdW  Elec       q    Type
REMARK                         _______ _______ _______ _____ _____    ______ ____
ROOT
ATOM      1  N   UNL     1      -6.567   4.623 128.568  0.00  0.00    +0.000 N 
ATOM      2  C   UNL     1      -7.850   4.251 128.462  0.00  0.00    +0.000 C 
ATOM      3  O   UNL     1      -8.700   5.018 128.078  0.00  0.00    +0.000 OA
ATOM      4  C   UNL     1      -7.268   3.060 129.744  0.00  0.00    +0.000 C 
ATOM      5  C   UNL     1      -8.408   3.640 130.405  0.00  0.00    +0.000 A 
ATOM      6  C   UNL     1      -9.807   3.904 130.321  0.00  0.00    +0.000 A 
ATOM      7  C   UNL     1     -10.328   4.778 131.238  0.00  0.00    +0.000 A 
ATOM      8 CL   UNL     1     -11.704   5.746 130.949  0.00  0.00    +0.000 Cl
ATOM      9  C   UNL     1      -9.436   5.072 132.194  0.00  0.00    +0.000 A 
ATOM     10  C   UNL     1      -8.074   4.988 131.679  0.00  0.00    +0.000 A 
ATOM     11  C   UNL     1      -7.737   4.768 130.189  0.00  0.00    +0.000 A 
ENDROOT
BRANCH   4  12
ATOM     12  C   UNL     1      -7.341   1.598 129.714  0.00  0.00    +0.000 A 
ATOM     13  C   UNL     1      -8.080   1.026 130.805  0.00  0.00    +0.000 A 
ATOM     14  C   UNL     1      -8.080  -0.281 131.093  0.00  0.00    +0.000 A 
ATOM     15  C   UNL     1      -8.128  -0.878 129.884  0.00  0.00    +0.000 A 
ATOM     16  C   UNL     1      -7.280  -0.516 128.855  0.00  0.00    +0.000 A 
ATOM     17  C   UNL     1      -6.898   0.758 128.724  0.00  0.00    +0.000 A 
BRANCH  17  18
ATOM     18  O   UNL     1      -6.432   0.921 127.449  0.00  0.00    +0.000 OA
ATOM     19  C   UNL     1      -5.604  -0.122 127.155  0.00  0.00    +0.000 C 
ENDBRANCH  17  18
BRANCH  14  20
ATOM     20  C   UNL     1      -8.280  -0.955 132.434  0.00  0.00    +0.000 C 
BRANCH  20  21
ATOM     21  N   UNL     1      -7.090  -0.929 133.346  0.00  0.00    +0.000 NA
ATOM     22  C   UNL     1      -5.832  -0.802 132.565  0.00  0.00    +0.000 C 
ATOM     23  C   UNL     1      -5.331  -2.206 132.319  0.00  0.00    +0.000 C 
ATOM     24  C   UNL     1      -5.768  -2.960 133.584  0.00  0.00    +0.000 C 
ATOM     25  C   UNL     1      -6.933  -2.128 134.192  0.00  0.00    +0.000 C 
ENDBRANCH  20  21
ENDBRANCH  14  20
ENDBRANCH   4  12
BRANCH   4  26
ATOM     26  N   UNL     1      -5.621   3.549 130.337  0.00  0.00    +0.000 NA
ATOM     27  C   UNL     1      -4.453   3.383 129.495  0.00  0.00    +0.000 C 
ATOM     28  C   UNL     1      -3.887   2.088 130.065  0.00  0.00    +0.000 C 
ATOM     29  C   UNL     1      -3.975   2.257 131.558  0.00  0.00    +0.000 C 
ATOM     30  C   UNL     1      -5.078   3.281 131.724  0.00  0.00    +0.000 C 
BRANCH  30  31
ATOM     31  C   UNL     1      -4.784   4.418 132.690  0.00  0.00    +0.000 C 
ATOM     32  O   UNL     1      -4.183   5.439 132.363  0.00  0.00    +0.000 OA
ATOM     33  N   UNL     1      -5.384   4.249 133.972  0.00  0.00    +0.000 N 
ATOM     34  C   UNL     1      -6.272   3.152 134.412  0.00  0.00    +0.000 C 
ATOM     35  C   UNL     1      -5.072   5.243 134.973  0.00  0.00    +0.000 C 
ENDBRANCH  30  31
ENDBRANCH   4  26
BRANCH   1  36
ATOM     36  S   UNL     1      -6.756   4.162 126.353  0.00  0.00    +0.000 S 
ATOM     37  O   UNL     1      -5.479   3.513 126.158  0.00  0.00    +0.000 OA
ATOM     38  O   UNL     1      -7.008   5.276 125.432  0.00  0.00    +0.000 OA
BRANCH  36  42
ATOM     39  C   UNL     1      -9.795   1.355 123.321  0.00  0.00    +0.000 A 
ATOM     40  C   UNL     1      -8.994   2.354 122.775  0.00  0.00    +0.000 A 
ATOM     41  C   UNL     1      -8.101   3.130 123.647  0.00  0.00    +0.000 A 
ATOM     42  C   UNL     1      -7.985   2.913 125.120  0.00  0.00    +0.000 A 
ATOM     43  C   UNL     1      -8.917   2.016 125.610  0.00  0.00    +0.000 A 
ATOM     44  C   UNL     1      -9.751   1.221 124.719  0.00  0.00    +0.000 A 
BRANCH  39  46
ATOM     45  C   UNL     1      -9.989  -0.827 122.351  0.00  0.00    +0.000 C 
ATOM     46  O   UNL     1     -10.489   0.513 122.476  0.00  0.00    +0.000 OA
ENDBRANCH  39  46
ENDBRANCH  36  42
ENDBRANCH   1  36
TORSDOF 9
ENDMDL
MODEL 8
REMARK VINA RESULT:      -8.1      3.022      7.856
REMARK  Name = CHEMBL1779409
REMARK  13 active torsions:
REMARK  status: ('A' for Active; 'I' for Inactive)
REMARK    1  A    between atoms: C_1  and  O_2
REMARK    2  A    between atoms: O_2  and  C_3
REMARK    3  A    between atoms: C_6  and  S_7
REMARK    4  A    between atoms: S_7  and  N_10
REMARK    5  A    between atoms: C_13  and  C_14
REMARK    6  A    between atoms: C_13  and  N_28
REMARK    7  A    between atoms: C_16  and  C_17
REMARK    8  A    between atoms: C_17  and  N_18
REMARK    9  A    between atoms: C_25  and  O_26
REMARK   10  A    between atoms: O_26  and  C_27
REMARK   11  A    between atoms: C_32  and  C_33
REMARK   12  A    between atoms: N_35  and  C_36
REMARK   13  A    between atoms: N_35  and  C_37
REMARK                            x       y       z     vdW  Elec       q    Type
REMARK                         _______ _______ _______ _____ _____    ______ ____
ROOT
ATOM      1  N   UNL     1      -7.346   4.397 130.234  0.00  0.00    +0.000 N 
ATOM      2  C   UNL     1      -6.150   4.734 130.733  0.00  0.00    +0.000 C 
ATOM      3  O   UNL     1      -5.755   5.874 130.711  0.00  0.00    +0.000 OA
ATOM      4  C   UNL     1      -5.851   2.957 130.338  0.00  0.00    +0.000 C 
ATOM      5  C   UNL     1      -4.755   3.581 129.644  0.00  0.00    +0.000 A 
ATOM      6  C   UNL     1      -3.623   4.440 129.767  0.00  0.00    +0.000 A 
ATOM      7  C   UNL     1      -3.059   4.889 128.602  0.00  0.00    +0.000 A 
ATOM      8 CL   UNL     1      -2.218   6.369 128.465  0.00  0.00    +0.000 Cl
ATOM      9  C   UNL     1      -3.567   4.255 127.536  0.00  0.00    +0.000 A 
ATOM     10  C   UNL     1      -4.942   3.837 127.787  0.00  0.00    +0.000 A 
ATOM     11  C   UNL     1      -5.741   4.241 129.044  0.00  0.00    +0.000 A 
ENDROOT
BRANCH   4  12
ATOM     12  C   UNL     1      -5.394   1.898 131.240  0.00  0.00    +0.000 A 
ATOM     13  C   UNL     1      -4.484   0.966 130.635  0.00  0.00    +0.000 A 
ATOM     14  C   UNL     1      -4.124  -0.191 131.204  0.00  0.00    +0.000 A 
ATOM     15  C   UNL     1      -3.971   0.124 132.507  0.00  0.00    +0.000 A 
ATOM     16  C   UNL     1      -4.927   0.836 133.205  0.00  0.00    +0.000 A 
ATOM     17  C   UNL     1      -5.639   1.781 132.584  0.00  0.00    +0.000 A 
BRANCH  17  18
ATOM     18  O   UNL     1      -6.185   2.586 133.546  0.00  0.00    +0.000 OA
ATOM     19  C   UNL     1      -5.649   2.243 134.752  0.00  0.00    +0.000 C 
ENDBRANCH  17  18
BRANCH  14  20
ATOM     20  C   UNL     1      -3.696  -1.481 130.537  0.00  0.00    +0.000 C 
BRANCH  20  21
ATOM     21  N   UNL     1      -4.806  -2.282 129.923  0.00  0.00    +0.000 NA
ATOM     22  C   UNL     1      -5.967  -2.365 130.846  0.00  0.00    +0.000 C 
ATOM     23  C   UNL     1      -5.794  -3.635 131.646  0.00  0.00    +0.000 C 
ATOM     24  C   UNL     1      -5.112  -4.585 130.650  0.00  0.00    +0.000 C 
ATOM     25  C   UNL     1      -4.449  -3.672 129.580  0.00  0.00    +0.000 C 
ENDBRANCH  20  21
ENDBRANCH  14  20
ENDBRANCH   4  12
BRANCH   4  26
ATOM     26  N   UNL     1      -7.219   2.313 129.329  0.00  0.00    +0.000 NA
ATOM     27  C   UNL     1      -8.459   1.889 129.950  0.00  0.00    +0.000 C 
ATOM     28  C   UNL     1      -8.242   0.381 129.989  0.00  0.00    +0.000 C 
ATOM     29  C   UNL     1      -7.684   0.039 128.634  0.00  0.00    +0.000 C 
ATOM     30  C   UNL     1      -7.071   1.345 128.175  0.00  0.00    +0.000 C 
BRANCH  30  31
ATOM     31  C   UNL     1      -7.395   1.762 126.749  0.00  0.00    +0.000 C 
ATOM     32  O   UNL     1      -8.309   2.532 126.466  0.00  0.00    +0.000 OA
ATOM     33  N   UNL     1      -6.460   1.281 125.786  0.00  0.00    +0.000 N 
ATOM     34  C   UNL     1      -5.230   0.501 126.038  0.00  0.00    +0.000 C 
ATOM     35  C   UNL     1      -6.754   1.558 124.399  0.00  0.00    +0.000 C 
ENDBRANCH  30  31
ENDBRANCH   4  26
BRANCH   1  36
ATOM     36  S   UNL     1      -7.887   5.200 132.287  0.00  0.00    +0.000 S 
ATOM     37  O   UNL     1      -8.704   4.098 132.743  0.00  0.00    +0.000 OA
ATOM     38  O   UNL     1      -8.548   6.507 132.369  0.00  0.00    +0.000 OA
BRANCH  36  42
ATOM     39  C   UNL     1      -5.256   6.124 136.593  0.00  0.00    +0.000 A 
ATOM     40  C   UNL     1      -4.615   6.177 135.358  0.00  0.00    +0.000 A 
ATOM     41  C   UNL     1      -5.385   5.944 134.127  0.00  0.00    +0.000 A 
ATOM     42  C   UNL     1      -6.850   5.653 134.107  0.00  0.00    +0.000 A 
ATOM     43  C   UNL     1      -7.382   5.466 135.370  0.00  0.00    +0.000 A 
ATOM     44  C   UNL     1      -6.612   5.757 136.572  0.00  0.00    +0.000 A 
BRANCH  39  46
ATOM     45  C   UNL     1      -3.240   7.022 137.525  0.00  0.00    +0.000 C 
ATOM     46  O   UNL     1      -4.571   6.524 137.723  0.00  0.00    +0.000 OA
ENDBRANCH  39  46
ENDBRANCH  36  42
ENDBRANCH   1  36
TORSDOF 9
ENDMDL
MODEL 9
REMARK VINA RESULT:      -7.9      3.462      7.139
REMARK  Name = CHEMBL1779409
REMARK  13 active torsions:
REMARK  status: ('A' for Active; 'I' for Inactive)
REMARK    1  A    between atoms: C_1  and  O_2
REMARK    2  A    between atoms: O_2  and  C_3
REMARK    3  A    between atoms: C_6  and  S_7
REMARK    4  A    between atoms: S_7  and  N_10
REMARK    5  A    between atoms: C_13  and  C_14
REMARK    6  A    between atoms: C_13  and  N_28
REMARK    7  A    between atoms: C_16  and  C_17
REMARK    8  A    between atoms: C_17  and  N_18
REMARK    9  A    between atoms: C_25  and  O_26
REMARK   10  A    between atoms: O_26  and  C_27
REMARK   11  A    between atoms: C_32  and  C_33
REMARK   12  A    between atoms: N_35  and  C_36
REMARK   13  A    between atoms: N_35  and  C_37
REMARK                            x       y       z     vdW  Elec       q    Type
REMARK                         _______ _______ _______ _____ _____    ______ ____
ROOT
ATOM      1  N   UNL     1      -5.205   0.518 127.707  0.00  0.00    +0.000 N 
ATOM      2  C   UNL     1      -6.409   0.560 127.121  0.00  0.00    +0.000 C 
ATOM      3  O   UNL     1      -6.622  -0.004 126.076  0.00  0.00    +0.000 OA
ATOM      4  C   UNL     1      -6.470   2.115 128.111  0.00  0.00    +0.000 C 
ATOM      5  C   UNL     1      -6.791   2.612 126.798  0.00  0.00    +0.000 A 
ATOM      6  C   UNL     1      -7.667   2.495 125.679  0.00  0.00    +0.000 A 
ATOM      7  C   UNL     1      -7.288   3.134 124.528  0.00  0.00    +0.000 A 
ATOM      8 CL   UNL     1      -7.738   2.617 122.964  0.00  0.00    +0.000 Cl
ATOM      9  C   UNL     1      -6.238   3.939 124.739  0.00  0.00    +0.000 A 
ATOM     10  C   UNL     1      -5.403   3.432 125.823  0.00  0.00    +0.000 A 
ATOM     11  C   UNL     1      -5.620   2.061 126.496  0.00  0.00    +0.000 A 
ENDROOT
BRANCH   4  12
ATOM     12  C   UNL     1      -7.472   2.512 129.103  0.00  0.00    +0.000 A 
ATOM     13  C   UNL     1      -8.224   3.680 128.742  0.00  0.00    +0.000 A 
ATOM     14  C   UNL     1      -9.022   4.338 129.591  0.00  0.00    +0.000 A 
ATOM     15  C   UNL     1      -9.629   3.357 130.289  0.00  0.00    +0.000 A 
ATOM     16  C   UNL     1      -8.920   2.315 130.856  0.00  0.00    +0.000 A 
ATOM     17  C   UNL     1      -7.834   1.838 130.241  0.00  0.00    +0.000 A 
BRANCH  17  18
ATOM     18  O   UNL     1      -7.577   0.598 130.759  0.00  0.00    +0.000 OA
ATOM     19  C   UNL     1      -8.721   0.123 131.329  0.00  0.00    +0.000 C 
ENDBRANCH  17  18
BRANCH  14  20
ATOM     20  C   UNL     1      -9.398   5.805 129.593  0.00  0.00    +0.000 C 
BRANCH  20  21
ATOM     21  N   UNL     1     -10.661   6.142 128.858  0.00  0.00    +0.000 NA
ATOM     22  C   UNL     1     -10.389   7.102 127.758  0.00  0.00    +0.000 C 
ATOM     23  C   UNL     1     -10.615   8.485 128.324  0.00  0.00    +0.000 C 
ATOM     24  C   UNL     1     -11.749   8.267 129.337  0.00  0.00    +0.000 C 
ATOM     25  C   UNL     1     -11.717   6.752 129.690  0.00  0.00    +0.000 C 
ENDBRANCH  20  21
ENDBRANCH  14  20
ENDBRANCH   4  12
BRANCH   4  26
ATOM     26  N   UNL     1      -4.818   2.494 128.766  0.00  0.00    +0.000 NA
ATOM     27  C   UNL     1      -4.160   1.584 129.683  0.00  0.00    +0.000 C 
ATOM     28  C   UNL     1      -4.459   2.271 131.011  0.00  0.00    +0.000 C 
ATOM     29  C   UNL     1      -4.194   3.730 130.754  0.00  0.00    +0.000 C 
ATOM     30  C   UNL     1      -4.364   3.852 129.254  0.00  0.00    +0.000 C 
BRANCH  30  31
ATOM     31  C   UNL     1      -3.277   4.630 128.528  0.00  0.00    +0.000 C 
ATOM     32  O   UNL     1      -2.500   4.112 127.730  0.00  0.00    +0.000 OA
ATOM     33  N   UNL     1      -3.330   6.036 128.759  0.00  0.00    +0.000 N 
ATOM     34  C   UNL     1      -4.329   6.782 129.553  0.00  0.00    +0.000 C 
ATOM     35  C   UNL     1      -2.273   6.831 128.176  0.00  0.00    +0.000 C 
ENDBRANCH  30  31
ENDBRANCH   4  26
BRANCH   1  36
ATOM     36  S   UNL     1      -6.119  -1.462 128.335  0.00  0.00    +0.000 S 
ATOM     37  O   UNL     1      -5.515  -2.309 127.331  0.00  0.00    +0.000 OA
ATOM     38  O   UNL     1      -7.581  -1.562 128.400  0.00  0.00    +0.000 OA
BRANCH  36  42
ATOM     39  C   UNL     1      -5.625  -4.493 132.444  0.00  0.00    +0.000 A 
ATOM     40  C   UNL     1      -5.625  -3.109 132.594  0.00  0.00    +0.000 A 
ATOM     41  C   UNL     1      -5.801  -2.248 131.414  0.00  0.00    +0.000 A 
ATOM     42  C   UNL     1      -5.992  -2.771 130.028  0.00  0.00    +0.000 A 
ATOM     43  C   UNL     1      -5.829  -4.141 129.938  0.00  0.00    +0.000 A 
ATOM     44  C   UNL     1      -5.710  -4.974 131.127  0.00  0.00    +0.000 A 
BRANCH  39  46
ATOM     45  C   UNL     1      -4.481  -5.249 134.409  0.00  0.00    +0.000 C 
ATOM     46  O   UNL     1      -5.645  -5.290 133.571  0.00  0.00    +0.000 OA
ENDBRANCH  39  46
ENDBRANCH  36  42
ENDBRANCH   1  36
TORSDOF 9
ENDMDL
