MODEL 1
REMARK VINA RESULT:      -8.6      0.000      0.000
REMARK  Name = CHEMBL198329
REMARK  12 active torsions:
REMARK  status: ('A' for Active; 'I' for Inactive)
REMARK    1  A    between atoms: CD1_1  and  CG_2
REMARK    2  A    between atoms: CG_2  and  CD2_3
REMARK    3  A    between atoms: CG_2  and  CB_4
REMARK    4  A    between atoms: CB_4  and  CA_5
REMARK    5  A    between atoms: C_9  and  C_10
REMARK    6  A    between atoms: N_21  and  C_22
REMARK    7  A    between atoms: C_22  and  C_23
REMARK    8  A    between atoms: C_22  and  C_29
REMARK    9  A    between atoms: N_25  and  C_26
REMARK   10  A    between atoms: C_26  and  C_27
REMARK   11  A    between atoms: C_26  and  C_28
REMARK   12  A    between atoms: C_32  and  C_33
REMARK                            x       y       z     vdW  Elec       q    Type
REMARK                         _______ _______ _______ _____ _____    ______ ____
ROOT
ATOM      1  CA  LEU A   2      -8.093   2.178 129.855  0.00  0.00    +0.000 C 
ATOM      2  C   LEU A   2      -7.379   0.885 129.388  0.00  0.00    +0.000 C 
ATOM      3  O   LEU A   2      -7.502  -0.227 129.830  0.00  0.00    +0.000 OA
ATOM      4  N   UNK A   1      -6.519   1.146 128.377  0.00  0.00    +0.000 N 
ATOM      5  C   UNK A   1      -6.844   2.225 127.492  0.00  0.00    +0.000 C 
ATOM      6  C   UNK A   1      -6.887   3.552 128.261  0.00  0.00    +0.000 C 
ATOM      7  O   UNK A   1      -6.562   4.566 127.658  0.00  0.00    +0.000 OA
ATOM      8  N   LEU A   2      -7.373   3.478 129.571  0.00  0.00    +0.000 N 
ATOM      9  H   UNK A   1      -5.966   0.342 128.115  0.00  0.00    +0.000 HD
ENDROOT
BRANCH   5  10
ATOM     10  C   UNK A   1      -5.810   2.393 126.377  0.00  0.00    +0.000 C 
ATOM     11  C   UNK A   1      -6.491   2.453 125.006  0.00  0.00    +0.000 C 
ATOM     12  C   UNK A   1      -6.488   1.003 124.622  0.00  0.00    +0.000 A 
ATOM     13  C   UNK A   1      -7.350   0.363 123.754  0.00  0.00    +0.000 A 
ATOM     14  C   UNK A   1      -7.265  -1.027 123.649  0.00  0.00    +0.000 A 
ATOM     15  C   UNK A   1      -6.342  -1.755 124.417  0.00  0.00    +0.000 A 
ATOM     16  C   UNK A   1      -5.487  -1.105 125.308  0.00  0.00    +0.000 A 
ATOM     17  C   UNK A   1      -5.566   0.274 125.391  0.00  0.00    +0.000 A 
ATOM     18  C   UNK A   1      -4.843   1.176 126.342  0.00  0.00    +0.000 C 
ENDBRANCH   5  10
BRANCH   1  19
ATOM     19  CB  LEU A   2      -8.209   1.913 131.291  0.00  0.00    +0.000 C 
BRANCH  19  21
ATOM     20  CD1 LEU A   2      -9.449   2.668 132.969  0.00  0.00    +0.000 C 
ATOM     21  CG  LEU A   2      -9.672   2.018 131.675  0.00  0.00    +0.000 C 
ATOM     22  CD2 LEU A   2     -10.892   2.757 131.108  0.00  0.00    +0.000 C 
ENDBRANCH  19  21
ENDBRANCH   1  19
BRANCH   8  23
ATOM     23  C   UNK A   0      -7.335   4.707 130.557  0.00  0.00    +0.000 C 
BRANCH  23  24
ATOM     24  C   UNK A   0      -8.660   5.511 130.565  0.00  0.00    +0.000 A 
ATOM     25  C   UNK A   0      -9.397   5.754 129.392  0.00  0.00    +0.000 A 
ATOM     26  C   UNK A   0     -10.556   6.496 129.390  0.00  0.00    +0.000 A 
ATOM     27  C   UNK A   0     -11.138   6.846 130.597  0.00  0.00    +0.000 A 
ATOM     28  C   UNK A   0     -10.472   6.567 131.795  0.00  0.00    +0.000 A 
ATOM     29  C   UNK A   0      -9.208   5.977 131.774  0.00  0.00    +0.000 A 
BRANCH  27  30
ATOM     30  C   UNK A   0     -12.495   7.467 130.556  0.00  0.00    +0.000 C 
ATOM     31  F   UNK A   0     -13.087   7.463 131.781  0.00  0.00    +0.000 F 
ATOM     32  F   UNK A   0     -12.455   8.770 130.163  0.00  0.00    +0.000 F 
ATOM     33  F   UNK A   0     -13.353   6.839 129.711  0.00  0.00    +0.000 F 
ENDBRANCH  27  30
ENDBRANCH  23  24
BRANCH  23  34
ATOM     34  C   UNK A   0      -6.063   5.812 130.450  0.00  0.00    +0.000 C 
ATOM     35  O   UNK A   0      -6.238   7.035 130.408  0.00  0.00    +0.000 OA
ATOM     36  N   UNK A   0      -4.766   5.349 130.149  0.00  0.00    +0.000 N 
ATOM     37  H   UNK A   0      -4.681   4.343 130.130  0.00  0.00    +0.000 HD
BRANCH  36  38
ATOM     38  C   UNK A   0      -3.663   6.316 129.524  0.00  0.00    +0.000 C 
ATOM     39  C   UNK A   0      -2.709   6.416 130.658  0.00  0.00    +0.000 C 
ATOM     40  C   UNK A   0      -2.582   6.020 128.200  0.00  0.00    +0.000 C 
ENDBRANCH  36  38
ENDBRANCH  23  34
ENDBRANCH   8  23
TORSDOF 8
ENDMDL
MODEL 2
REMARK VINA RESULT:      -8.5      1.504      1.919
REMARK  Name = CHEMBL198329
REMARK  12 active torsions:
REMARK  status: ('A' for Active; 'I' for Inactive)
REMARK    1  A    between atoms: CD1_1  and  CG_2
REMARK    2  A    between atoms: CG_2  and  CD2_3
REMARK    3  A    between atoms: CG_2  and  CB_4
REMARK    4  A    between atoms: CB_4  and  CA_5
REMARK    5  A    between atoms: C_9  and  C_10
REMARK    6  A    between atoms: N_21  and  C_22
REMARK    7  A    between atoms: C_22  and  C_23
REMARK    8  A    between atoms: C_22  and  C_29
REMARK    9  A    between atoms: N_25  and  C_26
REMARK   10  A    between atoms: C_26  and  C_27
REMARK   11  A    between atoms: C_26  and  C_28
REMARK   12  A    between atoms: C_32  and  C_33
REMARK                            x       y       z     vdW  Elec       q    Type
REMARK                         _______ _______ _______ _____ _____    ______ ____
ROOT
ATOM      1  CA  LEU A   2      -8.354   1.472 129.161  0.00  0.00    +0.000 C 
ATOM      2  C   LEU A   2      -7.656   0.435 128.244  0.00  0.00    +0.000 C 
ATOM      3  O   LEU A   2      -7.397  -0.713 128.492  0.00  0.00    +0.000 OA
ATOM      4  N   UNK A   1      -7.317   0.990 127.058  0.00  0.00    +0.000 N 
ATOM      5  C   UNK A   1      -8.147   2.045 126.557  0.00  0.00    +0.000 C 
ATOM      6  C   UNK A   1      -8.126   3.242 127.517  0.00  0.00    +0.000 C 
ATOM      7  O   UNK A   1      -8.248   4.358 127.032  0.00  0.00    +0.000 OA
ATOM      8  N   LEU A   2      -8.046   2.926 128.878  0.00  0.00    +0.000 N 
ATOM      9  H   UNK A   1      -6.774   0.368 126.476  0.00  0.00    +0.000 HD
ENDROOT
BRANCH   5  10
ATOM     10  C   UNK A   1      -7.673   2.560 125.197  0.00  0.00    +0.000 C 
ATOM     11  C   UNK A   1      -8.850   2.694 124.225  0.00  0.00    +0.000 C 
ATOM     12  C   UNK A   1      -8.839   1.341 123.577  0.00  0.00    +0.000 A 
ATOM     13  C   UNK A   1      -9.901   0.687 122.983  0.00  0.00    +0.000 A 
ATOM     14  C   UNK A   1      -9.711  -0.633 122.570  0.00  0.00    +0.000 A 
ATOM     15  C   UNK A   1      -8.482  -1.283 122.768  0.00  0.00    +0.000 A 
ATOM     16  C   UNK A   1      -7.420  -0.625 123.387  0.00  0.00    +0.000 A 
ATOM     17  C   UNK A   1      -7.612   0.689 123.777  0.00  0.00    +0.000 A 
ATOM     18  C   UNK A   1      -6.673   1.560 124.553  0.00  0.00    +0.000 C 
ENDBRANCH   5  10
BRANCH   1  19
ATOM     19  CB  LEU A   2      -7.856   1.046 130.470  0.00  0.00    +0.000 C 
BRANCH  19  21
ATOM     20  CD1 LEU A   2      -8.592  -0.271 132.097  0.00  0.00    +0.000 C 
ATOM     21  CG  LEU A   2      -9.036   0.948 131.417  0.00  0.00    +0.000 C 
ATOM     22  CD2 LEU A   2      -9.585   1.815 132.558  0.00  0.00    +0.000 C 
ENDBRANCH  19  21
ENDBRANCH   1  19
BRANCH   8  23
ATOM     23  C   UNK A   0      -7.851   4.025 129.991  0.00  0.00    +0.000 C 
BRANCH  23  24
ATOM     24  C   UNK A   0      -9.092   4.939 130.156  0.00  0.00    +0.000 A 
ATOM     25  C   UNK A   0      -9.008   6.340 130.073  0.00  0.00    +0.000 A 
ATOM     26  C   UNK A   0     -10.102   7.155 130.252  0.00  0.00    +0.000 A 
ATOM     27  C   UNK A   0     -11.365   6.590 130.311  0.00  0.00    +0.000 A 
ATOM     28  C   UNK A   0     -11.503   5.198 130.331  0.00  0.00    +0.000 A 
ATOM     29  C   UNK A   0     -10.372   4.382 130.334  0.00  0.00    +0.000 A 
BRANCH  27  30
ATOM     30  C   UNK A   0     -12.538   7.515 130.297  0.00  0.00    +0.000 C 
ATOM     31  F   UNK A   0     -13.129   7.595 131.519  0.00  0.00    +0.000 F 
ATOM     32  F   UNK A   0     -12.186   8.788 129.966  0.00  0.00    +0.000 F 
ATOM     33  F   UNK A   0     -13.508   7.146 129.422  0.00  0.00    +0.000 F 
ENDBRANCH  27  30
ENDBRANCH  23  24
BRANCH  23  34
ATOM     34  C   UNK A   0      -6.485   5.016 129.940  0.00  0.00    +0.000 C 
ATOM     35  O   UNK A   0      -5.862   5.249 128.898  0.00  0.00    +0.000 OA
ATOM     36  N   UNK A   0      -5.866   5.406 131.145  0.00  0.00    +0.000 N 
ATOM     37  H   UNK A   0      -6.375   5.140 131.975  0.00  0.00    +0.000 HD
BRANCH  36  38
ATOM     38  C   UNK A   0      -4.339   5.866 131.185  0.00  0.00    +0.000 C 
ATOM     39  C   UNK A   0      -4.266   6.461 132.544  0.00  0.00    +0.000 C 
ATOM     40  C   UNK A   0      -2.908   4.888 131.168  0.00  0.00    +0.000 C 
ENDBRANCH  36  38
ENDBRANCH  23  34
ENDBRANCH   8  23
TORSDOF 8
ENDMDL
MODEL 3
REMARK VINA RESULT:      -8.5      4.361      8.742
REMARK  Name = CHEMBL198329
REMARK  12 active torsions:
REMARK  status: ('A' for Active; 'I' for Inactive)
REMARK    1  A    between atoms: CD1_1  and  CG_2
REMARK    2  A    between atoms: CG_2  and  CD2_3
REMARK    3  A    between atoms: CG_2  and  CB_4
REMARK    4  A    between atoms: CB_4  and  CA_5
REMARK    5  A    between atoms: C_9  and  C_10
REMARK    6  A    between atoms: N_21  and  C_22
REMARK    7  A    between atoms: C_22  and  C_23
REMARK    8  A    between atoms: C_22  and  C_29
REMARK    9  A    between atoms: N_25  and  C_26
REMARK   10  A    between atoms: C_26  and  C_27
REMARK   11  A    between atoms: C_26  and  C_28
REMARK   12  A    between atoms: C_32  and  C_33
REMARK                            x       y       z     vdW  Elec       q    Type
REMARK                         _______ _______ _______ _____ _____    ______ ____
ROOT
ATOM      1  CA  LEU A   2      -7.451   2.656 126.703  0.00  0.00    +0.000 C 
ATOM      2  C   LEU A   2      -7.515   4.180 126.978  0.00  0.00    +0.000 C 
ATOM      3  O   LEU A   2      -7.330   5.079 126.201  0.00  0.00    +0.000 OA
ATOM      4  N   UNK A   1      -7.795   4.425 128.279  0.00  0.00    +0.000 N 
ATOM      5  C   UNK A   1      -8.604   3.468 128.975  0.00  0.00    +0.000 C 
ATOM      6  C   UNK A   1      -7.898   2.107 129.024  0.00  0.00    +0.000 C 
ATOM      7  O   UNK A   1      -8.102   1.398 129.999  0.00  0.00    +0.000 OA
ATOM      8  N   LEU A   2      -7.141   1.776 127.894  0.00  0.00    +0.000 N 
ATOM      9  H   UNK A   1      -7.748   5.406 128.512  0.00  0.00    +0.000 HD
ENDROOT
BRANCH   5  10
ATOM     10  C   UNK A   1      -8.872   3.880 130.424  0.00  0.00    +0.000 C 
ATOM     11  C   UNK A   1     -10.373   3.838 130.733  0.00  0.00    +0.000 C 
ATOM     12  C   UNK A   1     -10.773   5.241 130.390  0.00  0.00    +0.000 A 
ATOM     13  C   UNK A   1     -12.024   5.688 130.010  0.00  0.00    +0.000 A 
ATOM     14  C   UNK A   1     -12.149   7.014 129.591  0.00  0.00    +0.000 A 
ATOM     15  C   UNK A   1     -11.033   7.864 129.540  0.00  0.00    +0.000 A 
ATOM     16  C   UNK A   1      -9.768   7.402 129.906  0.00  0.00    +0.000 A 
ATOM     17  C   UNK A   1      -9.658   6.092 130.338  0.00  0.00    +0.000 A 
ATOM     18  C   UNK A   1      -8.406   5.342 130.671  0.00  0.00    +0.000 C 
ENDBRANCH   5  10
BRANCH   1  19
ATOM     19  CB  LEU A   2      -6.391   2.614 125.694  0.00  0.00    +0.000 C 
BRANCH  19  21
ATOM     20  CD1 LEU A   2      -6.257   3.098 123.532  0.00  0.00    +0.000 C 
ATOM     21  CG  LEU A   2      -7.005   2.168 124.381  0.00  0.00    +0.000 C 
ATOM     22  CD2 LEU A   2      -7.003   0.863 123.571  0.00  0.00    +0.000 C 
ENDBRANCH  19  21
ENDBRANCH   1  19
BRANCH   8  23
ATOM     23  C   UNK A   0      -6.221   0.497 127.837  0.00  0.00    +0.000 C 
BRANCH  23  24
ATOM     24  C   UNK A   0      -6.820  -0.634 126.964  0.00  0.00    +0.000 A 
ATOM     25  C   UNK A   0      -8.206  -0.781 126.773  0.00  0.00    +0.000 A 
ATOM     26  C   UNK A   0      -8.742  -1.804 126.024  0.00  0.00    +0.000 A 
ATOM     27  C   UNK A   0      -7.901  -2.599 125.263  0.00  0.00    +0.000 A 
ATOM     28  C   UNK A   0      -6.515  -2.446 125.371  0.00  0.00    +0.000 A 
ATOM     29  C   UNK A   0      -5.980  -1.527 126.273  0.00  0.00    +0.000 A 
BRANCH  27  30
ATOM     30  C   UNK A   0      -8.534  -3.559 124.309  0.00  0.00    +0.000 C 
ATOM     31  F   UNK A   0      -8.179  -3.295 123.023  0.00  0.00    +0.000 F 
ATOM     32  F   UNK A   0      -8.157  -4.845 124.547  0.00  0.00    +0.000 F 
ATOM     33  F   UNK A   0      -9.891  -3.545 124.347  0.00  0.00    +0.000 F 
ENDBRANCH  27  30
ENDBRANCH  23  24
BRANCH  23  34
ATOM     34  C   UNK A   0      -5.684  -0.196 129.280  0.00  0.00    +0.000 C 
ATOM     35  O   UNK A   0      -4.533  -0.050 129.707  0.00  0.00    +0.000 OA
ATOM     36  N   UNK A   0      -6.471  -1.179 129.913  0.00  0.00    +0.000 N 
ATOM     37  H   UNK A   0      -7.380  -1.314 129.493  0.00  0.00    +0.000 HD
BRANCH  36  38
ATOM     38  C   UNK A   0      -5.833  -2.228 130.931  0.00  0.00    +0.000 C 
ATOM     39  C   UNK A   0      -7.059  -2.778 131.564  0.00  0.00    +0.000 C 
ATOM     40  C   UNK A   0      -4.950  -3.680 130.586  0.00  0.00    +0.000 C 
ENDBRANCH  36  38
ENDBRANCH  23  34
ENDBRANCH   8  23
TORSDOF 8
ENDMDL
MODEL 4
REMARK VINA RESULT:      -8.4      5.331      8.890
REMARK  Name = CHEMBL198329
REMARK  12 active torsions:
REMARK  status: ('A' for Active; 'I' for Inactive)
REMARK    1  A    between atoms: CD1_1  and  CG_2
REMARK    2  A    between atoms: CG_2  and  CD2_3
REMARK    3  A    between atoms: CG_2  and  CB_4
REMARK    4  A    between atoms: CB_4  and  CA_5
REMARK    5  A    between atoms: C_9  and  C_10
REMARK    6  A    between atoms: N_21  and  C_22
REMARK    7  A    between atoms: C_22  and  C_23
REMARK    8  A    between atoms: C_22  and  C_29
REMARK    9  A    between atoms: N_25  and  C_26
REMARK   10  A    between atoms: C_26  and  C_27
REMARK   11  A    between atoms: C_26  and  C_28
REMARK   12  A    between atoms: C_32  and  C_33
REMARK                            x       y       z     vdW  Elec       q    Type
REMARK                         _______ _______ _______ _____ _____    ______ ____
ROOT
ATOM      1  CA  LEU A   2      -6.991  -0.036 129.280  0.00  0.00    +0.000 C 
ATOM      2  C   LEU A   2      -7.022   0.920 130.499  0.00  0.00    +0.000 C 
ATOM      3  O   LEU A   2      -7.098   0.630 131.663  0.00  0.00    +0.000 OA
ATOM      4  N   UNK A   1      -6.977   2.213 130.100  0.00  0.00    +0.000 N 
ATOM      5  C   UNK A   1      -6.271   2.509 128.888  0.00  0.00    +0.000 C 
ATOM      6  C   UNK A   1      -6.934   1.802 127.698  0.00  0.00    +0.000 C 
ATOM      7  O   UNK A   1      -6.880   2.357 126.609  0.00  0.00    +0.000 OA
ATOM      8  N   LEU A   2      -7.474   0.540 127.968  0.00  0.00    +0.000 N 
ATOM      9  H   UNK A   1      -7.094   2.862 130.864  0.00  0.00    +0.000 HD
ENDROOT
BRANCH   5  10
ATOM     10  C   UNK A   1      -6.270   4.005 128.570  0.00  0.00    +0.000 C 
ATOM     11  C   UNK A   1      -4.881   4.463 128.112  0.00  0.00    +0.000 C 
ATOM     12  C   UNK A   1      -4.269   4.867 129.420  0.00  0.00    +0.000 A 
ATOM     13  C   UNK A   1      -2.926   4.912 129.739  0.00  0.00    +0.000 A 
ATOM     14  C   UNK A   1      -2.574   5.175 131.065  0.00  0.00    +0.000 A 
ATOM     15  C   UNK A   1      -3.557   5.371 132.048  0.00  0.00    +0.000 A 
ATOM     16  C   UNK A   1      -4.912   5.304 131.724  0.00  0.00    +0.000 A 
ATOM     17  C   UNK A   1      -5.251   5.061 130.405  0.00  0.00    +0.000 A 
ATOM     18  C   UNK A   1      -6.618   4.834 129.838  0.00  0.00    +0.000 C 
ENDBRANCH   5  10
BRANCH   1  19
ATOM     19  CB  LEU A   2      -7.859  -1.111 129.765  0.00  0.00    +0.000 C 
BRANCH  19  21
ATOM     20  CD1 LEU A   2      -8.146  -3.234 129.187  0.00  0.00    +0.000 C 
ATOM     21  CG  LEU A   2      -7.070  -2.406 129.737  0.00  0.00    +0.000 C 
ATOM     22  CD2 LEU A   2      -5.821  -2.899 128.994  0.00  0.00    +0.000 C 
ENDBRANCH  19  21
ENDBRANCH   1  19
BRANCH   8  23
ATOM     23  C   UNK A   0      -8.331  -0.256 126.910  0.00  0.00    +0.000 C 
BRANCH  23  24
ATOM     24  C   UNK A   0      -7.478  -1.230 126.058  0.00  0.00    +0.000 A 
ATOM     25  C   UNK A   0      -6.116  -1.001 125.796  0.00  0.00    +0.000 A 
ATOM     26  C   UNK A   0      -5.364  -1.848 125.012  0.00  0.00    +0.000 A 
ATOM     27  C   UNK A   0      -5.895  -3.070 124.633  0.00  0.00    +0.000 A 
ATOM     28  C   UNK A   0      -7.228  -3.369 124.929  0.00  0.00    +0.000 A 
ATOM     29  C   UNK A   0      -8.034  -2.425 125.565  0.00  0.00    +0.000 A 
BRANCH  27  30
ATOM     30  C   UNK A   0      -4.981  -4.042 123.963  0.00  0.00    +0.000 C 
ATOM     31  F   UNK A   0      -3.870  -4.283 124.710  0.00  0.00    +0.000 F 
ATOM     32  F   UNK A   0      -5.571  -5.253 123.766  0.00  0.00    +0.000 F 
ATOM     33  F   UNK A   0      -4.545  -3.626 122.746  0.00  0.00    +0.000 F 
ENDBRANCH  27  30
ENDBRANCH  23  24
BRANCH  23  34
ATOM     34  C   UNK A   0      -9.343   0.595 125.860  0.00  0.00    +0.000 C 
ATOM     35  O   UNK A   0     -10.566   0.423 125.821  0.00  0.00    +0.000 OA
ATOM     36  N   UNK A   0      -8.779   1.352 124.814  0.00  0.00    +0.000 N 
ATOM     37  H   UNK A   0      -7.771   1.414 124.846  0.00  0.00    +0.000 HD
BRANCH  36  38
ATOM     38  C   UNK A   0      -9.620   1.730 123.513  0.00  0.00    +0.000 C 
ATOM     39  C   UNK A   0      -8.640   2.578 122.787  0.00  0.00    +0.000 C 
ATOM     40  C   UNK A   0     -10.178   0.694 122.239  0.00  0.00    +0.000 C 
ENDBRANCH  36  38
ENDBRANCH  23  34
ENDBRANCH   8  23
TORSDOF 8
ENDMDL
MODEL 5
REMARK VINA RESULT:      -8.4      3.486      4.584
REMARK  Name = CHEMBL198329
REMARK  12 active torsions:
REMARK  status: ('A' for Active; 'I' for Inactive)
REMARK    1  A    between atoms: CD1_1  and  CG_2
REMARK    2  A    between atoms: CG_2  and  CD2_3
REMARK    3  A    between atoms: CG_2  and  CB_4
REMARK    4  A    between atoms: CB_4  and  CA_5
REMARK    5  A    between atoms: C_9  and  C_10
REMARK    6  A    between atoms: N_21  and  C_22
REMARK    7  A    between atoms: C_22  and  C_23
REMARK    8  A    between atoms: C_22  and  C_29
REMARK    9  A    between atoms: N_25  and  C_26
REMARK   10  A    between atoms: C_26  and  C_27
REMARK   11  A    between atoms: C_26  and  C_28
REMARK   12  A    between atoms: C_32  and  C_33
REMARK                            x       y       z     vdW  Elec       q    Type
REMARK                         _______ _______ _______ _____ _____    ______ ____
ROOT
ATOM      1  CA  LEU A   2      -6.444   1.846 132.820  0.00  0.00    +0.000 C 
ATOM      2  C   LEU A   2      -6.064   0.505 133.498  0.00  0.00    +0.000 C 
ATOM      3  O   LEU A   2      -6.508   0.040 134.514  0.00  0.00    +0.000 OA
ATOM      4  N   UNK A   1      -5.093  -0.131 132.802  0.00  0.00    +0.000 N 
ATOM      5  C   UNK A   1      -5.056   0.068 131.383  0.00  0.00    +0.000 C 
ATOM      6  C   UNK A   1      -4.803   1.546 131.058  0.00  0.00    +0.000 C 
ATOM      7  O   UNK A   1      -4.180   1.803 130.037  0.00  0.00    +0.000 OA
ATOM      8  N   LEU A   2      -5.387   2.468 131.935  0.00  0.00    +0.000 N 
ATOM      9  H   UNK A   1      -4.755  -0.959 133.269  0.00  0.00    +0.000 HD
ENDROOT
BRANCH   5  10
ATOM     10  C   UNK A   1      -3.935  -0.730 130.715  0.00  0.00    +0.000 C 
ATOM     11  C   UNK A   1      -4.494  -1.632 129.609  0.00  0.00    +0.000 C 
ATOM     12  C   UNK A   1      -4.764  -2.891 130.377  0.00  0.00    +0.000 A 
ATOM     13  C   UNK A   1      -5.679  -3.880 130.072  0.00  0.00    +0.000 A 
ATOM     14  C   UNK A   1      -5.877  -4.902 131.003  0.00  0.00    +0.000 A 
ATOM     15  C   UNK A   1      -5.179  -4.915 132.221  0.00  0.00    +0.000 A 
ATOM     16  C   UNK A   1      -4.272  -3.902 132.533  0.00  0.00    +0.000 A 
ATOM     17  C   UNK A   1      -4.069  -2.904 131.597  0.00  0.00    +0.000 A 
ATOM     18  C   UNK A   1      -3.242  -1.665 131.745  0.00  0.00    +0.000 C 
ENDBRANCH   5  10
BRANCH   1  19
ATOM     19  CB  LEU A   2      -6.731   2.666 133.999  0.00  0.00    +0.000 C 
BRANCH  19  21
ATOM     20  CD1 LEU A   2      -8.065   4.353 134.544  0.00  0.00    +0.000 C 
ATOM     21  CG  LEU A   2      -8.209   3.004 133.992  0.00  0.00    +0.000 C 
ATOM     22  CD2 LEU A   2      -9.277   3.175 132.903  0.00  0.00    +0.000 C 
ENDBRANCH  19  21
ENDBRANCH   1  19
BRANCH   8  23
ATOM     23  C   UNK A   0      -5.099   4.015 131.848  0.00  0.00    +0.000 C 
BRANCH  23  24
ATOM     24  C   UNK A   0      -6.299   4.819 131.285  0.00  0.00    +0.000 A 
ATOM     25  C   UNK A   0      -7.178   4.282 130.328  0.00  0.00    +0.000 A 
ATOM     26  C   UNK A   0      -8.225   5.005 129.801  0.00  0.00    +0.000 A 
ATOM     27  C   UNK A   0      -8.560   6.222 130.369  0.00  0.00    +0.000 A 
ATOM     28  C   UNK A   0      -7.751   6.767 131.372  0.00  0.00    +0.000 A 
ATOM     29  C   UNK A   0      -6.588   6.108 131.769  0.00  0.00    +0.000 A 
BRANCH  27  30
ATOM     30  C   UNK A   0      -9.822   6.875 129.910  0.00  0.00    +0.000 C 
ATOM     31  F   UNK A   0      -9.594   8.129 129.432  0.00  0.00    +0.000 F 
ATOM     32  F   UNK A   0     -10.417   6.190 128.895  0.00  0.00    +0.000 F 
ATOM     33  F   UNK A   0     -10.756   6.998 130.888  0.00  0.00    +0.000 F 
ENDBRANCH  27  30
ENDBRANCH  23  24
BRANCH  23  34
ATOM     34  C   UNK A   0      -3.706   4.552 131.061  0.00  0.00    +0.000 C 
ATOM     35  O   UNK A   0      -2.804   5.170 131.638  0.00  0.00    +0.000 OA
ATOM     36  N   UNK A   0      -3.651   4.527 129.653  0.00  0.00    +0.000 N 
ATOM     37  H   UNK A   0      -4.439   4.070 129.217  0.00  0.00    +0.000 HD
BRANCH  36  38
ATOM     38  C   UNK A   0      -2.649   5.466 128.842  0.00  0.00    +0.000 C 
ATOM     39  C   UNK A   0      -2.477   4.676 127.596  0.00  0.00    +0.000 C 
ATOM     40  C   UNK A   0      -2.926   7.053 128.199  0.00  0.00    +0.000 C 
ENDBRANCH  36  38
ENDBRANCH  23  34
ENDBRANCH   8  23
TORSDOF 8
ENDMDL
MODEL 6
REMARK VINA RESULT:      -8.3      3.923      6.340
REMARK  Name = CHEMBL198329
REMARK  12 active torsions:
REMARK  status: ('A' for Active; 'I' for Inactive)
REMARK    1  A    between atoms: CD1_1  and  CG_2
REMARK    2  A    between atoms: CG_2  and  CD2_3
REMARK    3  A    between atoms: CG_2  and  CB_4
REMARK    4  A    between atoms: CB_4  and  CA_5
REMARK    5  A    between atoms: C_9  and  C_10
REMARK    6  A    between atoms: N_21  and  C_22
REMARK    7  A    between atoms: C_22  and  C_23
REMARK    8  A    between atoms: C_22  and  C_29
REMARK    9  A    between atoms: N_25  and  C_26
REMARK   10  A    between atoms: C_26  and  C_27
REMARK   11  A    between atoms: C_26  and  C_28
REMARK   12  A    between atoms: C_32  and  C_33
REMARK                            x       y       z     vdW  Elec       q    Type
REMARK                         _______ _______ _______ _____ _____    ______ ____
ROOT
ATOM      1  CA  LEU A   2      -5.343   3.372 126.746  0.00  0.00    +0.000 C 
ATOM      2  C   LEU A   2      -5.663   3.079 125.258  0.00  0.00    +0.000 C 
ATOM      3  O   LEU A   2      -5.182   3.594 124.284  0.00  0.00    +0.000 OA
ATOM      4  N   UNK A   1      -6.628   2.136 125.148  0.00  0.00    +0.000 N 
ATOM      5  C   UNK A   1      -6.702   1.140 126.176  0.00  0.00    +0.000 C 
ATOM      6  C   UNK A   1      -7.011   1.794 127.529  0.00  0.00    +0.000 C 
ATOM      7  O   UNK A   1      -7.665   1.146 128.335  0.00  0.00    +0.000 OA
ATOM      8  N   LEU A   2      -6.439   3.054 127.738  0.00  0.00    +0.000 N 
ATOM      9  H   UNK A   1      -6.928   1.992 124.194  0.00  0.00    +0.000 HD
ENDROOT
BRANCH   5  10
ATOM     10  C   UNK A   1      -7.811   0.119 125.915  0.00  0.00    +0.000 C 
ATOM     11  C   UNK A   1      -7.381  -1.280 126.371  0.00  0.00    +0.000 C 
ATOM     12  C   UNK A   1      -6.763  -1.813 125.113  0.00  0.00    +0.000 A 
ATOM     13  C   UNK A   1      -5.801  -2.798 125.003  0.00  0.00    +0.000 A 
ATOM     14  C   UNK A   1      -5.252  -3.042 123.743  0.00  0.00    +0.000 A 
ATOM     15  C   UNK A   1      -5.654  -2.298 122.622  0.00  0.00    +0.000 A 
ATOM     16  C   UNK A   1      -6.612  -1.290 122.743  0.00  0.00    +0.000 A 
ATOM     17  C   UNK A   1      -7.163  -1.068 123.993  0.00  0.00    +0.000 A 
ATOM     18  C   UNK A   1      -8.112   0.018 124.393  0.00  0.00    +0.000 C 
ENDBRANCH   5  10
BRANCH   1  19
ATOM     19  CB  LEU A   2      -5.058   4.806 126.677  0.00  0.00    +0.000 C 
BRANCH  19  21
ATOM     20  CD1 LEU A   2      -3.847   6.266 127.830  0.00  0.00    +0.000 C 
ATOM     21  CG  LEU A   2      -3.615   5.022 127.091  0.00  0.00    +0.000 C 
ATOM     22  CD2 LEU A   2      -2.614   4.262 127.973  0.00  0.00    +0.000 C 
ENDBRANCH  19  21
ENDBRANCH   1  19
BRANCH   8  23
ATOM     23  C   UNK A   0      -6.780   3.938 128.998  0.00  0.00    +0.000 C 
BRANCH  23  24
ATOM     24  C   UNK A   0      -5.670   3.897 130.079  0.00  0.00    +0.000 A 
ATOM     25  C   UNK A   0      -4.887   2.751 130.305  0.00  0.00    +0.000 A 
ATOM     26  C   UNK A   0      -3.922   2.700 131.287  0.00  0.00    +0.000 A 
ATOM     27  C   UNK A   0      -3.559   3.866 131.941  0.00  0.00    +0.000 A 
ATOM     28  C   UNK A   0      -4.269   5.047 131.699  0.00  0.00    +0.000 A 
ATOM     29  C   UNK A   0      -5.365   5.043 130.836  0.00  0.00    +0.000 A 
BRANCH  27  30
ATOM     30  C   UNK A   0      -2.373   3.811 132.845  0.00  0.00    +0.000 C 
ATOM     31  F   UNK A   0      -2.609   4.450 134.023  0.00  0.00    +0.000 F 
ATOM     32  F   UNK A   0      -2.033   2.533 133.173  0.00  0.00    +0.000 F 
ATOM     33  F   UNK A   0      -1.259   4.378 132.314  0.00  0.00    +0.000 F 
ENDBRANCH  27  30
ENDBRANCH  23  24
BRANCH  23  34
ATOM     34  C   UNK A   0      -8.264   3.728 129.776  0.00  0.00    +0.000 C 
ATOM     35  O   UNK A   0      -9.253   4.429 129.536  0.00  0.00    +0.000 OA
ATOM     36  N   UNK A   0      -8.339   2.900 130.914  0.00  0.00    +0.000 N 
ATOM     37  H   UNK A   0      -7.489   2.394 131.113  0.00  0.00    +0.000 HD
BRANCH  36  38
ATOM     38  C   UNK A   0      -9.513   3.058 131.982  0.00  0.00    +0.000 C 
ATOM     39  C   UNK A   0      -9.951   1.646 132.122  0.00  0.00    +0.000 C 
ATOM     40  C   UNK A   0      -9.414   3.547 133.643  0.00  0.00    +0.000 C 
ENDBRANCH  36  38
ENDBRANCH  23  34
ENDBRANCH   8  23
TORSDOF 8
ENDMDL
MODEL 7
REMARK VINA RESULT:      -8.2      4.409      7.920
REMARK  Name = CHEMBL198329
REMARK  12 active torsions:
REMARK  status: ('A' for Active; 'I' for Inactive)
REMARK    1  A    between atoms: CD1_1  and  CG_2
REMARK    2  A    between atoms: CG_2  and  CD2_3
REMARK    3  A    between atoms: CG_2  and  CB_4
REMARK    4  A    between atoms: CB_4  and  CA_5
REMARK    5  A    between atoms: C_9  and  C_10
REMARK    6  A    between atoms: N_21  and  C_22
REMARK    7  A    between atoms: C_22  and  C_23
REMARK    8  A    between atoms: C_22  and  C_29
REMARK    9  A    between atoms: N_25  and  C_26
REMARK   10  A    between atoms: C_26  and  C_27
REMARK   11  A    between atoms: C_26  and  C_28
REMARK   12  A    between atoms: C_32  and  C_33
REMARK                            x       y       z     vdW  Elec       q    Type
REMARK                         _______ _______ _______ _____ _____    ______ ____
ROOT
ATOM      1  CA  LEU A   2      -7.677   3.010 129.073  0.00  0.00    +0.000 C 
ATOM      2  C   LEU A   2      -7.964   4.332 128.317  0.00  0.00    +0.000 C 
ATOM      3  O   LEU A   2      -7.690   4.605 127.179  0.00  0.00    +0.000 OA
ATOM      4  N   UNK A   1      -8.575   5.228 129.126  0.00  0.00    +0.000 N 
ATOM      5  C   UNK A   1      -9.425   4.716 130.160  0.00  0.00    +0.000 C 
ATOM      6  C   UNK A   1      -8.614   3.861 131.143  0.00  0.00    +0.000 C 
ATOM      7  O   UNK A   1      -8.974   3.847 132.312  0.00  0.00    +0.000 OA
ATOM      8  N   LEU A   2      -7.575   3.112 130.579  0.00  0.00    +0.000 N 
ATOM      9  H   UNK A   1      -8.689   6.133 128.693  0.00  0.00    +0.000 HD
ENDROOT
BRANCH   5  10
ATOM     10  C   UNK A   1     -10.078   5.832 130.979  0.00  0.00    +0.000 C 
ATOM     11  C   UNK A   1     -11.605   5.758 130.878  0.00  0.00    +0.000 C 
ATOM     12  C   UNK A   1     -11.855   6.648 129.697  0.00  0.00    +0.000 A 
ATOM     13  C   UNK A   1     -12.936   6.618 128.837  0.00  0.00    +0.000 A 
ATOM     14  C   UNK A   1     -12.902   7.440 127.709  0.00  0.00    +0.000 A 
ATOM     15  C   UNK A   1     -11.794   8.262 127.447  0.00  0.00    +0.000 A 
ATOM     16  C   UNK A   1     -10.696   8.273 128.308  0.00  0.00    +0.000 A 
ATOM     17  C   UNK A   1     -10.747   7.469 129.432  0.00  0.00    +0.000 A 
ATOM     18  C   UNK A   1      -9.660   7.225 130.433  0.00  0.00    +0.000 C 
ENDBRANCH   5  10
BRANCH   1  19
ATOM     19  CB  LEU A   2      -6.405   2.624 128.458  0.00  0.00    +0.000 C 
BRANCH  19  21
ATOM     20  CD1 LEU A   2      -5.287   0.991 127.454  0.00  0.00    +0.000 C 
ATOM     21  CG  LEU A   2      -6.669   1.474 127.506  0.00  0.00    +0.000 C 
ATOM     22  CD2 LEU A   2      -7.498   0.183 127.568  0.00  0.00    +0.000 C 
ENDBRANCH  19  21
ENDBRANCH   1  19
BRANCH   8  23
ATOM     23  C   UNK A   0      -6.542   2.307 131.456  0.00  0.00    +0.000 C 
BRANCH  23  24
ATOM     24  C   UNK A   0      -6.616   0.777 131.219  0.00  0.00    +0.000 A 
ATOM     25  C   UNK A   0      -7.840   0.090 131.133  0.00  0.00    +0.000 A 
ATOM     26  C   UNK A   0      -7.909  -1.273 130.955  0.00  0.00    +0.000 A 
ATOM     27  C   UNK A   0      -6.756  -1.975 130.644  0.00  0.00    +0.000 A 
ATOM     28  C   UNK A   0      -5.520  -1.319 130.653  0.00  0.00    +0.000 A 
ATOM     29  C   UNK A   0      -5.444   0.026 131.015  0.00  0.00    +0.000 A 
BRANCH  27  30
ATOM     30  C   UNK A   0      -6.903  -3.409 130.256  0.00  0.00    +0.000 C 
ATOM     31  F   UNK A   0      -8.174  -3.696 129.866  0.00  0.00    +0.000 F 
ATOM     32  F   UNK A   0      -6.103  -3.745 129.207  0.00  0.00    +0.000 F 
ATOM     33  F   UNK A   0      -6.602  -4.275 131.259  0.00  0.00    +0.000 F 
ENDBRANCH  27  30
ENDBRANCH  23  24
BRANCH  23  34
ATOM     34  C   UNK A   0      -6.496   2.567 133.123  0.00  0.00    +0.000 C 
ATOM     35  O   UNK A   0      -7.035   1.808 133.937  0.00  0.00    +0.000 OA
ATOM     36  N   UNK A   0      -6.049   3.808 133.620  0.00  0.00    +0.000 N 
ATOM     37  H   UNK A   0      -5.675   4.425 132.913  0.00  0.00    +0.000 HD
BRANCH  36  38
ATOM     38  C   UNK A   0      -6.460   4.319 135.074  0.00  0.00    +0.000 C 
ATOM     39  C   UNK A   0      -5.274   5.143 135.421  0.00  0.00    +0.000 C 
ATOM     40  C   UNK A   0      -7.753   5.381 135.528  0.00  0.00    +0.000 C 
ENDBRANCH  36  38
ENDBRANCH  23  34
ENDBRANCH   8  23
TORSDOF 8
ENDMDL
MODEL 8
REMARK VINA RESULT:      -8.1      3.853      8.262
REMARK  Name = CHEMBL198329
REMARK  12 active torsions:
REMARK  status: ('A' for Active; 'I' for Inactive)
REMARK    1  A    between atoms: CD1_1  and  CG_2
REMARK    2  A    between atoms: CG_2  and  CD2_3
REMARK    3  A    between atoms: CG_2  and  CB_4
REMARK    4  A    between atoms: CB_4  and  CA_5
REMARK    5  A    between atoms: C_9  and  C_10
REMARK    6  A    between atoms: N_21  and  C_22
REMARK    7  A    between atoms: C_22  and  C_23
REMARK    8  A    between atoms: C_22  and  C_29
REMARK    9  A    between atoms: N_25  and  C_26
REMARK   10  A    between atoms: C_26  and  C_27
REMARK   11  A    between atoms: C_26  and  C_28
REMARK   12  A    between atoms: C_32  and  C_33
REMARK                            x       y       z     vdW  Elec       q    Type
REMARK                         _______ _______ _______ _____ _____    ______ ____
ROOT
ATOM      1  CA  LEU A   2      -5.000   4.129 128.628  0.00  0.00    +0.000 C 
ATOM      2  C   LEU A   2      -5.356   4.382 130.115  0.00  0.00    +0.000 C 
ATOM      3  O   LEU A   2      -4.607   4.641 131.019  0.00  0.00    +0.000 OA
ATOM      4  N   UNK A   1      -6.687   4.251 130.322  0.00  0.00    +0.000 N 
ATOM      5  C   UNK A   1      -7.563   4.584 129.239  0.00  0.00    +0.000 C 
ATOM      6  C   UNK A   1      -7.307   3.660 128.041  0.00  0.00    +0.000 C 
ATOM      7  O   UNK A   1      -8.258   3.387 127.323  0.00  0.00    +0.000 OA
ATOM      8  N   LEU A   2      -5.975   3.278 127.845  0.00  0.00    +0.000 N 
ATOM      9  H   UNK A   1      -6.939   4.314 131.298  0.00  0.00    +0.000 HD
ENDROOT
BRANCH   5  10
ATOM     10  C   UNK A   1      -9.037   4.423 129.615  0.00  0.00    +0.000 C 
ATOM     11  C   UNK A   1      -9.525   5.625 130.431  0.00  0.00    +0.000 C 
ATOM     12  C   UNK A   1      -9.246   5.153 131.827  0.00  0.00    +0.000 A 
ATOM     13  C   UNK A   1      -9.023   5.931 132.946  0.00  0.00    +0.000 A 
ATOM     14  C   UNK A   1      -8.634   5.290 134.125  0.00  0.00    +0.000 A 
ATOM     15  C   UNK A   1      -8.456   3.898 134.166  0.00  0.00    +0.000 A 
ATOM     16  C   UNK A   1      -8.662   3.120 133.026  0.00  0.00    +0.000 A 
ATOM     17  C   UNK A   1      -9.066   3.761 131.869  0.00  0.00    +0.000 A 
ATOM     18  C   UNK A   1      -9.239   3.166 130.506  0.00  0.00    +0.000 C 
ENDBRANCH   5  10
BRANCH   1  19
ATOM     19  CB  LEU A   2      -3.695   3.481 128.775  0.00  0.00    +0.000 C 
BRANCH  19  21
ATOM     20  CD1 LEU A   2      -2.301   3.831 127.084  0.00  0.00    +0.000 C 
ATOM     21  CG  LEU A   2      -2.625   4.472 128.361  0.00  0.00    +0.000 C 
ATOM     22  CD2 LEU A   2      -2.606   5.970 128.024  0.00  0.00    +0.000 C 
ENDBRANCH  19  21
ENDBRANCH   1  19
BRANCH   8  23
ATOM     23  C   UNK A   0      -5.553   2.207 126.767  0.00  0.00    +0.000 C 
BRANCH  23  24
ATOM     24  C   UNK A   0      -5.829   2.675 125.316  0.00  0.00    +0.000 A 
ATOM     25  C   UNK A   0      -5.240   3.833 124.777  0.00  0.00    +0.000 A 
ATOM     26  C   UNK A   0      -5.510   4.269 123.499  0.00  0.00    +0.000 A 
ATOM     27  C   UNK A   0      -6.216   3.447 122.637  0.00  0.00    +0.000 A 
ATOM     28  C   UNK A   0      -6.766   2.252 123.112  0.00  0.00    +0.000 A 
ATOM     29  C   UNK A   0      -6.641   1.910 124.459  0.00  0.00    +0.000 A 
BRANCH  27  30
ATOM     30  C   UNK A   0      -6.309   3.862 121.206  0.00  0.00    +0.000 C 
ATOM     31  F   UNK A   0      -5.572   4.979 120.958  0.00  0.00    +0.000 F 
ATOM     32  F   UNK A   0      -5.837   2.906 120.359  0.00  0.00    +0.000 F 
ATOM     33  F   UNK A   0      -7.576   4.138 120.803  0.00  0.00    +0.000 F 
ENDBRANCH  27  30
ENDBRANCH  23  24
BRANCH  23  34
ATOM     34  C   UNK A   0      -6.118   0.623 126.913  0.00  0.00    +0.000 C 
ATOM     35  O   UNK A   0      -7.277   0.351 127.247  0.00  0.00    +0.000 OA
ATOM     36  N   UNK A   0      -5.198  -0.445 126.903  0.00  0.00    +0.000 N 
ATOM     37  H   UNK A   0      -4.250  -0.171 126.690  0.00  0.00    +0.000 HD
BRANCH  36  38
ATOM     38  C   UNK A   0      -5.559  -1.860 127.545  0.00  0.00    +0.000 C 
ATOM     39  C   UNK A   0      -5.672  -2.696 126.323  0.00  0.00    +0.000 C 
ATOM     40  C   UNK A   0      -4.584  -2.874 128.559  0.00  0.00    +0.000 C 
ENDBRANCH  36  38
ENDBRANCH  23  34
ENDBRANCH   8  23
TORSDOF 8
ENDMDL
MODEL 9
REMARK VINA RESULT:      -8.1      2.569      3.437
REMARK  Name = CHEMBL198329
REMARK  12 active torsions:
REMARK  status: ('A' for Active; 'I' for Inactive)
REMARK    1  A    between atoms: CD1_1  and  CG_2
REMARK    2  A    between atoms: CG_2  and  CD2_3
REMARK    3  A    between atoms: CG_2  and  CB_4
REMARK    4  A    between atoms: CB_4  and  CA_5
REMARK    5  A    between atoms: C_9  and  C_10
REMARK    6  A    between atoms: N_21  and  C_22
REMARK    7  A    between atoms: C_22  and  C_23
REMARK    8  A    between atoms: C_22  and  C_29
REMARK    9  A    between atoms: N_25  and  C_26
REMARK   10  A    between atoms: C_26  and  C_27
REMARK   11  A    between atoms: C_26  and  C_28
REMARK   12  A    between atoms: C_32  and  C_33
REMARK                            x       y       z     vdW  Elec       q    Type
REMARK                         _______ _______ _______ _____ _____    ______ ____
ROOT
ATOM      1  CA  LEU A   2      -7.046   1.970 132.057  0.00  0.00    +0.000 C 
ATOM      2  C   LEU A   2      -6.314   0.611 132.193  0.00  0.00    +0.000 C 
ATOM      3  O   LEU A   2      -5.921   0.081 133.198  0.00  0.00    +0.000 OA
ATOM      4  N   UNK A   1      -6.122   0.043 130.979  0.00  0.00    +0.000 N 
ATOM      5  C   UNK A   1      -7.092   0.313 129.960  0.00  0.00    +0.000 C 
ATOM      6  C   UNK A   1      -7.124   1.813 129.638  0.00  0.00    +0.000 C 
ATOM      7  O   UNK A   1      -7.396   2.140 128.491  0.00  0.00    +0.000 OA
ATOM      8  N   LEU A   2      -6.912   2.670 130.723  0.00  0.00    +0.000 N 
ATOM      9  H   UNK A   1      -5.562  -0.797 131.024  0.00  0.00    +0.000 HD
ENDROOT
BRANCH   5  10
ATOM     10  C   UNK A   1      -6.775  -0.414 128.651  0.00  0.00    +0.000 C 
ATOM     11  C   UNK A   1      -7.577  -1.715 128.542  0.00  0.00    +0.000 C 
ATOM     12  C   UNK A   1      -6.626  -2.690 129.170  0.00  0.00    +0.000 A 
ATOM     13  C   UNK A   1      -6.936  -3.887 129.784  0.00  0.00    +0.000 A 
ATOM     14  C   UNK A   1      -5.911  -4.576 130.437  0.00  0.00    +0.000 A 
ATOM     15  C   UNK A   1      -4.607  -4.058 130.482  0.00  0.00    +0.000 A 
ATOM     16  C   UNK A   1      -4.304  -2.837 129.877  0.00  0.00    +0.000 A 
ATOM     17  C   UNK A   1      -5.322  -2.171 129.218  0.00  0.00    +0.000 A 
ATOM     18  C   UNK A   1      -5.273  -0.810 128.597  0.00  0.00    +0.000 C 
ENDBRANCH   5  10
BRANCH   1  19
ATOM     19  CB  LEU A   2      -6.412   2.721 133.142  0.00  0.00    +0.000 C 
BRANCH  19  21
ATOM     20  CD1 LEU A   2      -6.786   4.404 134.539  0.00  0.00    +0.000 C 
ATOM     21  CG  LEU A   2      -7.499   3.210 134.079  0.00  0.00    +0.000 C 
ATOM     22  CD2 LEU A   2      -8.943   3.701 133.902  0.00  0.00    +0.000 C 
ENDBRANCH  19  21
ENDBRANCH   1  19
BRANCH   8  23
ATOM     23  C   UNK A   0      -6.750   4.229 130.550  0.00  0.00    +0.000 C 
BRANCH  23  24
ATOM     24  C   UNK A   0      -8.107   4.977 130.560  0.00  0.00    +0.000 A 
ATOM     25  C   UNK A   0      -8.191   6.376 130.676  0.00  0.00    +0.000 A 
ATOM     26  C   UNK A   0      -9.396   7.041 130.719  0.00  0.00    +0.000 A 
ATOM     27  C   UNK A   0     -10.561   6.350 130.434  0.00  0.00    +0.000 A 
ATOM     28  C   UNK A   0     -10.519   4.964 130.246  0.00  0.00    +0.000 A 
ATOM     29  C   UNK A   0      -9.314   4.275 130.388  0.00  0.00    +0.000 A 
BRANCH  27  30
ATOM     30  C   UNK A   0     -11.817   7.143 130.286  0.00  0.00    +0.000 C 
ATOM     31  F   UNK A   0     -12.468   7.279 131.473  0.00  0.00    +0.000 F 
ATOM     32  F   UNK A   0     -11.579   8.408 129.842  0.00  0.00    +0.000 F 
ATOM     33  F   UNK A   0     -12.707   6.594 129.419  0.00  0.00    +0.000 F 
ENDBRANCH  27  30
ENDBRANCH  23  24
BRANCH  23  34
ATOM     34  C   UNK A   0      -5.843   4.825 129.257  0.00  0.00    +0.000 C 
ATOM     35  O   UNK A   0      -6.309   4.973 128.122  0.00  0.00    +0.000 OA
ATOM     36  N   UNK A   0      -4.443   4.933 129.384  0.00  0.00    +0.000 N 
ATOM     37  H   UNK A   0      -4.097   4.740 130.312  0.00  0.00    +0.000 HD
BRANCH  36  38
ATOM     38  C   UNK A   0      -3.493   4.969 128.103  0.00  0.00    +0.000 C 
ATOM     39  C   UNK A   0      -2.476   5.959 128.543  0.00  0.00    +0.000 C 
ATOM     40  C   UNK A   0      -2.485   3.712 127.462  0.00  0.00    +0.000 C 
ENDBRANCH  36  38
ENDBRANCH  23  34
ENDBRANCH   8  23
TORSDOF 8
ENDMDL
