MODEL 1
REMARK VINA RESULT:      -9.4      0.000      0.000
REMARK  Name = CHEMBL1779401
REMARK  13 active torsions:
REMARK  status: ('A' for Active; 'I' for Inactive)
REMARK    1  A    between atoms: C_1  and  O_2
REMARK    2  A    between atoms: O_2  and  C_3
REMARK    3  A    between atoms: C_6  and  S_7
REMARK    4  A    between atoms: S_7  and  N_10
REMARK    5  A    between atoms: C_13  and  C_14
REMARK    6  A    between atoms: C_13  and  N_22
REMARK    7  A    between atoms: C_19  and  O_20
REMARK    8  A    between atoms: O_20  and  C_21
REMARK    9  A    between atoms: C_26  and  C_27
REMARK   10  A    between atoms: N_29  and  C_30
REMARK   11  A    between atoms: N_29  and  C_31
REMARK   12  A    between atoms: C_39  and  O_40
REMARK   13  A    between atoms: O_40  and  C_41
REMARK                            x       y       z     vdW  Elec       q    Type
REMARK                         _______ _______ _______ _____ _____    ______ ____
ROOT
ATOM      1  N   UNL     1      -8.603   2.025 127.425  0.00  0.00    +0.000 N 
ATOM      2  C   UNL     1      -7.541   2.914 127.081  0.00  0.00    +0.000 C 
ATOM      3  O   UNL     1      -7.862   3.952 126.639  0.00  0.00    +0.000 OA
ATOM      4  C   UNL     1      -6.147   2.624 128.135  0.00  0.00    +0.000 C 
ATOM      5  C   UNL     1      -7.002   3.020 129.286  0.00  0.00    +0.000 A 
ATOM      6  C   UNL     1      -6.474   3.919 130.326  0.00  0.00    +0.000 A 
ATOM      7  C   UNL     1      -7.197   4.437 131.333  0.00  0.00    +0.000 A 
ATOM      8 CL   UNL     1      -6.444   5.539 132.425  0.00  0.00    +0.000 Cl
ATOM      9  C   UNL     1      -8.495   4.004 131.283  0.00  0.00    +0.000 A 
ATOM     10  C   UNL     1      -9.030   3.017 130.191  0.00  0.00    +0.000 A 
ATOM     11  C   UNL     1      -8.269   2.384 129.122  0.00  0.00    +0.000 A 
ENDROOT
BRANCH   4  12
ATOM     12  C   UNL     1      -5.399   1.340 128.973  0.00  0.00    +0.000 A 
ATOM     13  C   UNL     1      -5.727  -0.010 128.630  0.00  0.00    +0.000 A 
ATOM     14  C   UNL     1      -5.418  -1.134 129.404  0.00  0.00    +0.000 A 
ATOM     15  C   UNL     1      -4.590  -0.970 130.464  0.00  0.00    +0.000 A 
ATOM     16  N   UNL     1      -4.119   0.220 130.772  0.00  0.00    +0.000 NA
ATOM     17  C   UNL     1      -4.564   1.306 130.096  0.00  0.00    +0.000 A 
BRANCH  17  18
ATOM     18  O   UNL     1      -4.059   2.323 130.779  0.00  0.00    +0.000 OA
ATOM     19  C   UNL     1      -4.042   1.914 132.067  0.00  0.00    +0.000 C 
ENDBRANCH  17  18
ENDBRANCH   4  12
BRANCH   4  20
ATOM     20  N   UNL     1      -5.229   3.567 127.482  0.00  0.00    +0.000 NA
ATOM     21  C   UNL     1      -4.649   3.086 126.255  0.00  0.00    +0.000 C 
ATOM     22  C   UNL     1      -3.296   2.596 126.700  0.00  0.00    +0.000 C 
ATOM     23  C   UNL     1      -2.886   3.582 127.779  0.00  0.00    +0.000 C 
ATOM     24  C   UNL     1      -4.188   4.222 128.281  0.00  0.00    +0.000 C 
BRANCH  24  25
ATOM     25  C   UNL     1      -4.149   5.741 128.264  0.00  0.00    +0.000 C 
ATOM     26  O   UNL     1      -4.520   6.403 127.298  0.00  0.00    +0.000 OA
ATOM     27  N   UNL     1      -3.726   6.316 129.481  0.00  0.00    +0.000 N 
ATOM     28  C   UNL     1      -3.335   5.609 130.709  0.00  0.00    +0.000 C 
ATOM     29  C   UNL     1      -3.653   7.758 129.540  0.00  0.00    +0.000 C 
ENDBRANCH  24  25
ENDBRANCH   4  20
BRANCH   1  30
ATOM     30  S   UNL     1      -8.738   0.780 125.691  0.00  0.00    +0.000 S 
ATOM     31  O   UNL     1      -8.678   1.740 124.598  0.00  0.00    +0.000 OA
ATOM     32  O   UNL     1      -9.972   0.033 125.905  0.00  0.00    +0.000 OA
BRANCH  30  36
ATOM     33  C   UNL     1      -5.430  -2.706 123.551  0.00  0.00    +0.000 A 
ATOM     34  C   UNL     1      -5.150  -1.774 124.544  0.00  0.00    +0.000 A 
ATOM     35  C   UNL     1      -6.174  -0.869 125.111  0.00  0.00    +0.000 A 
ATOM     36  C   UNL     1      -7.574  -0.816 124.711  0.00  0.00    +0.000 A 
ATOM     37  C   UNL     1      -7.836  -1.799 123.690  0.00  0.00    +0.000 A 
ATOM     38  C   UNL     1      -6.753  -2.699 123.131  0.00  0.00    +0.000 A 
BRANCH  33  40
ATOM     39  C   UNL     1      -4.434  -4.954 123.659  0.00  0.00    +0.000 C 
ATOM     40  O   UNL     1      -4.435  -3.592 123.198  0.00  0.00    +0.000 OA
ENDBRANCH  33  40
BRANCH  37  41
ATOM     41  O   UNL     1      -9.114  -1.988 123.223  0.00  0.00    +0.000 OA
ATOM     42  C   UNL     1      -9.653  -3.313 123.328  0.00  0.00    +0.000 C 
ENDBRANCH  37  41
ENDBRANCH  30  36
ENDBRANCH   1  30
TORSDOF 8
ENDMDL
MODEL 2
REMARK VINA RESULT:      -9.3      2.588      5.344
REMARK  Name = CHEMBL1779401
REMARK  13 active torsions:
REMARK  status: ('A' for Active; 'I' for Inactive)
REMARK    1  A    between atoms: C_1  and  O_2
REMARK    2  A    between atoms: O_2  and  C_3
REMARK    3  A    between atoms: C_6  and  S_7
REMARK    4  A    between atoms: S_7  and  N_10
REMARK    5  A    between atoms: C_13  and  C_14
REMARK    6  A    between atoms: C_13  and  N_22
REMARK    7  A    between atoms: C_19  and  O_20
REMARK    8  A    between atoms: O_20  and  C_21
REMARK    9  A    between atoms: C_26  and  C_27
REMARK   10  A    between atoms: N_29  and  C_30
REMARK   11  A    between atoms: N_29  and  C_31
REMARK   12  A    between atoms: C_39  and  O_40
REMARK   13  A    between atoms: O_40  and  C_41
REMARK                            x       y       z     vdW  Elec       q    Type
REMARK                         _______ _______ _______ _____ _____    ______ ____
ROOT
ATOM      1  N   UNL     1      -5.026   4.811 126.637  0.00  0.00    +0.000 N 
ATOM      2  C   UNL     1      -5.039   3.600 127.392  0.00  0.00    +0.000 C 
ATOM      3  O   UNL     1      -4.244   2.793 127.086  0.00  0.00    +0.000 OA
ATOM      4  C   UNL     1      -5.603   3.926 129.041  0.00  0.00    +0.000 C 
ATOM      5  C   UNL     1      -4.418   4.808 129.215  0.00  0.00    +0.000 A 
ATOM      6  C   UNL     1      -3.622   4.744 130.453  0.00  0.00    +0.000 A 
ATOM      7  C   UNL     1      -2.468   5.400 130.659  0.00  0.00    +0.000 A 
ATOM      8 CL   UNL     1      -1.619   5.156 132.140  0.00  0.00    +0.000 Cl
ATOM      9  C   UNL     1      -2.131   6.160 129.571  0.00  0.00    +0.000 A 
ATOM     10  C   UNL     1      -3.008   6.245 128.277  0.00  0.00    +0.000 A 
ATOM     11  C   UNL     1      -4.294   5.602 128.035  0.00  0.00    +0.000 A 
ENDROOT
BRANCH   4  12
ATOM     12  C   UNL     1      -6.662   4.978 129.866  0.00  0.00    +0.000 A 
ATOM     13  C   UNL     1      -6.262   5.536 131.121  0.00  0.00    +0.000 A 
ATOM     14  C   UNL     1      -7.118   6.172 132.027  0.00  0.00    +0.000 A 
ATOM     15  C   UNL     1      -8.382   6.449 131.623  0.00  0.00    +0.000 A 
ATOM     16  N   UNL     1      -8.797   6.100 130.424  0.00  0.00    +0.000 NA
ATOM     17  C   UNL     1      -7.992   5.350 129.635  0.00  0.00    +0.000 A 
BRANCH  17  18
ATOM     18  O   UNL     1      -8.776   5.017 128.621  0.00  0.00    +0.000 OA
ATOM     19  C   UNL     1      -9.680   6.018 128.525  0.00  0.00    +0.000 C 
ENDBRANCH  17  18
ENDBRANCH   4  12
BRANCH   4  20
ATOM     20  N   UNL     1      -5.614   2.531 129.504  0.00  0.00    +0.000 NA
ATOM     21  C   UNL     1      -6.580   1.690 128.846  0.00  0.00    +0.000 C 
ATOM     22  C   UNL     1      -7.725   1.674 129.824  0.00  0.00    +0.000 C 
ATOM     23  C   UNL     1      -7.047   1.688 131.182  0.00  0.00    +0.000 C 
ATOM     24  C   UNL     1      -5.640   2.256 130.945  0.00  0.00    +0.000 C 
BRANCH  24  25
ATOM     25  C   UNL     1      -4.539   1.372 131.505  0.00  0.00    +0.000 C 
ATOM     26  O   UNL     1      -4.064   0.428 130.880  0.00  0.00    +0.000 OA
ATOM     27  N   UNL     1      -4.063   1.783 132.768  0.00  0.00    +0.000 N 
ATOM     28  C   UNL     1      -4.516   2.939 133.556  0.00  0.00    +0.000 C 
ATOM     29  C   UNL     1      -3.020   0.986 133.373  0.00  0.00    +0.000 C 
ENDBRANCH  24  25
ENDBRANCH   4  20
BRANCH   1  30
ATOM     30  S   UNL     1      -6.553   4.457 125.181  0.00  0.00    +0.000 S 
ATOM     31  O   UNL     1      -5.884   4.776 123.928  0.00  0.00    +0.000 OA
ATOM     32  O   UNL     1      -7.651   5.307 125.628  0.00  0.00    +0.000 OA
BRANCH  30  36
ATOM     33  C   UNL     1      -9.065   0.055 123.776  0.00  0.00    +0.000 A 
ATOM     34  C   UNL     1      -8.308   0.267 124.922  0.00  0.00    +0.000 A 
ATOM     35  C   UNL     1      -7.681   1.568 125.244  0.00  0.00    +0.000 A 
ATOM     36  C   UNL     1      -7.752   2.770 124.424  0.00  0.00    +0.000 A 
ATOM     37  C   UNL     1      -8.553   2.523 123.251  0.00  0.00    +0.000 A 
ATOM     38  C   UNL     1      -9.168   1.171 122.956  0.00  0.00    +0.000 A 
BRANCH  33  40
ATOM     39  C   UNL     1      -9.021  -2.356 123.287  0.00  0.00    +0.000 C 
ATOM     40  O   UNL     1      -9.718  -1.152 123.647  0.00  0.00    +0.000 OA
ENDBRANCH  33  40
BRANCH  37  41
ATOM     41  O   UNL     1      -8.830   3.544 122.375  0.00  0.00    +0.000 OA
ATOM     42  C   UNL     1      -8.057   3.589 121.167  0.00  0.00    +0.000 C 
ENDBRANCH  37  41
ENDBRANCH  30  36
ENDBRANCH   1  30
TORSDOF 8
ENDMDL
MODEL 3
REMARK VINA RESULT:      -9.2      2.587      3.307
REMARK  Name = CHEMBL1779401
REMARK  13 active torsions:
REMARK  status: ('A' for Active; 'I' for Inactive)
REMARK    1  A    between atoms: C_1  and  O_2
REMARK    2  A    between atoms: O_2  and  C_3
REMARK    3  A    between atoms: C_6  and  S_7
REMARK    4  A    between atoms: S_7  and  N_10
REMARK    5  A    between atoms: C_13  and  C_14
REMARK    6  A    between atoms: C_13  and  N_22
REMARK    7  A    between atoms: C_19  and  O_20
REMARK    8  A    between atoms: O_20  and  C_21
REMARK    9  A    between atoms: C_26  and  C_27
REMARK   10  A    between atoms: N_29  and  C_30
REMARK   11  A    between atoms: N_29  and  C_31
REMARK   12  A    between atoms: C_39  and  O_40
REMARK   13  A    between atoms: O_40  and  C_41
REMARK                            x       y       z     vdW  Elec       q    Type
REMARK                         _______ _______ _______ _____ _____    ______ ____
ROOT
ATOM      1  N   UNL     1      -8.692   1.541 128.186  0.00  0.00    +0.000 N 
ATOM      2  C   UNL     1      -7.779   2.637 128.218  0.00  0.00    +0.000 C 
ATOM      3  O   UNL     1      -8.258   3.707 128.219  0.00  0.00    +0.000 OA
ATOM      4  C   UNL     1      -6.299   2.163 129.071  0.00  0.00    +0.000 C 
ATOM      5  C   UNL     1      -7.131   1.953 130.287  0.00  0.00    +0.000 A 
ATOM      6  C   UNL     1      -6.667   2.444 131.596  0.00  0.00    +0.000 A 
ATOM      7  C   UNL     1      -7.393   2.420 132.726  0.00  0.00    +0.000 A 
ATOM      8 CL   UNL     1      -6.730   3.106 134.162  0.00  0.00    +0.000 Cl
ATOM      9  C   UNL     1      -8.624   1.859 132.511  0.00  0.00    +0.000 A 
ATOM     10  C   UNL     1      -9.086   1.308 131.121  0.00  0.00    +0.000 A 
ATOM     11  C   UNL     1      -8.312   1.256 129.887  0.00  0.00    +0.000 A 
ENDROOT
BRANCH   4  12
ATOM     12  C   UNL     1      -5.342   0.777 129.337  0.00  0.00    +0.000 A 
ATOM     13  C   UNL     1      -5.523  -0.373 128.503  0.00  0.00    +0.000 A 
ATOM     14  C   UNL     1      -5.023  -1.651 128.778  0.00  0.00    +0.000 A 
ATOM     15  C   UNL     1      -4.151  -1.787 129.807  0.00  0.00    +0.000 A 
ATOM     16  N   UNL     1      -3.812  -0.751 130.544  0.00  0.00    +0.000 NA
ATOM     17  C   UNL     1      -4.434   0.436 130.347  0.00  0.00    +0.000 A 
BRANCH  17  18
ATOM     18  O   UNL     1      -4.015   1.176 131.362  0.00  0.00    +0.000 OA
ATOM     19  C   UNL     1      -3.891   0.320 132.401  0.00  0.00    +0.000 C 
ENDBRANCH  17  18
ENDBRANCH   4  12
BRANCH   4  20
ATOM     20  N   UNL     1      -5.553   3.408 128.840  0.00  0.00    +0.000 NA
ATOM     21  C   UNL     1      -4.948   3.509 127.537  0.00  0.00    +0.000 C 
ATOM     22  C   UNL     1      -3.524   3.097 127.803  0.00  0.00    +0.000 C 
ATOM     23  C   UNL     1      -3.230   3.661 129.181  0.00  0.00    +0.000 C 
ATOM     24  C   UNL     1      -4.596   3.866 129.852  0.00  0.00    +0.000 C 
BRANCH  24  25
ATOM     25  C   UNL     1      -4.783   5.270 130.403  0.00  0.00    +0.000 C 
ATOM     26  O   UNL     1      -5.365   6.154 129.780  0.00  0.00    +0.000 OA
ATOM     27  N   UNL     1      -4.299   5.438 131.717  0.00  0.00    +0.000 N 
ATOM     28  C   UNL     1      -3.658   4.422 132.565  0.00  0.00    +0.000 C 
ATOM     29  C   UNL     1      -4.432   6.750 132.308  0.00  0.00    +0.000 C 
ENDBRANCH  24  25
ENDBRANCH   4  20
BRANCH   1  30
ATOM     30  S   UNL     1      -8.761   1.062 126.103  0.00  0.00    +0.000 S 
ATOM     31  O   UNL     1     -10.189   0.944 125.846  0.00  0.00    +0.000 OA
ATOM     32  O   UNL     1      -7.927  -0.130 126.001  0.00  0.00    +0.000 OA
BRANCH  30  36
ATOM     33  C   UNL     1      -6.989   3.579 121.837  0.00  0.00    +0.000 A 
ATOM     34  C   UNL     1      -6.314   3.362 123.032  0.00  0.00    +0.000 A 
ATOM     35  C   UNL     1      -6.892   2.594 124.157  0.00  0.00    +0.000 A 
ATOM     36  C   UNL     1      -8.217   1.990 124.178  0.00  0.00    +0.000 A 
ATOM     37  C   UNL     1      -8.888   2.221 122.923  0.00  0.00    +0.000 A 
ATOM     38  C   UNL     1      -8.261   3.023 121.801  0.00  0.00    +0.000 A 
BRANCH  33  40
ATOM     39  C   UNL     1      -6.889   4.362 119.506  0.00  0.00    +0.000 C 
ATOM     40  O   UNL     1      -6.303   4.185 120.807  0.00  0.00    +0.000 OA
ENDBRANCH  33  40
BRANCH  37  41
ATOM     41  O   UNL     1     -10.122   1.665 122.685  0.00  0.00    +0.000 OA
ATOM     42  C   UNL     1     -10.157   0.254 122.427  0.00  0.00    +0.000 C 
ENDBRANCH  37  41
ENDBRANCH  30  36
ENDBRANCH   1  30
TORSDOF 8
ENDMDL
MODEL 4
REMARK VINA RESULT:      -9.2      4.094      8.370
REMARK  Name = CHEMBL1779401
REMARK  13 active torsions:
REMARK  status: ('A' for Active; 'I' for Inactive)
REMARK    1  A    between atoms: C_1  and  O_2
REMARK    2  A    between atoms: O_2  and  C_3
REMARK    3  A    between atoms: C_6  and  S_7
REMARK    4  A    between atoms: S_7  and  N_10
REMARK    5  A    between atoms: C_13  and  C_14
REMARK    6  A    between atoms: C_13  and  N_22
REMARK    7  A    between atoms: C_19  and  O_20
REMARK    8  A    between atoms: O_20  and  C_21
REMARK    9  A    between atoms: C_26  and  C_27
REMARK   10  A    between atoms: N_29  and  C_30
REMARK   11  A    between atoms: N_29  and  C_31
REMARK   12  A    between atoms: C_39  and  O_40
REMARK   13  A    between atoms: O_40  and  C_41
REMARK                            x       y       z     vdW  Elec       q    Type
REMARK                         _______ _______ _______ _____ _____    ______ ____
ROOT
ATOM      1  N   UNL     1      -9.214   2.953 129.470  0.00  0.00    +0.000 N 
ATOM      2  C   UNL     1      -8.485   2.411 130.571  0.00  0.00    +0.000 C 
ATOM      3  O   UNL     1      -9.028   1.573 131.185  0.00  0.00    +0.000 OA
ATOM      4  C   UNL     1      -6.746   2.491 130.239  0.00  0.00    +0.000 C 
ATOM      5  C   UNL     1      -6.979   1.585 129.083  0.00  0.00    +0.000 A 
ATOM      6  C   UNL     1      -6.071   0.452 128.835  0.00  0.00    +0.000 A 
ATOM      7  C   UNL     1      -6.261  -0.495 127.901  0.00  0.00    +0.000 A 
ATOM      8 CL   UNL     1      -5.140  -1.801 127.791  0.00  0.00    +0.000 Cl
ATOM      9  C   UNL     1      -7.407  -0.262 127.188  0.00  0.00    +0.000 A 
ATOM     10  C   UNL     1      -8.341   0.969 127.440  0.00  0.00    +0.000 A 
ATOM     11  C   UNL     1      -8.141   2.050 128.396  0.00  0.00    +0.000 A 
ENDROOT
BRANCH   4  12
ATOM     12  C   UNL     1      -5.628   3.472 129.404  0.00  0.00    +0.000 A 
ATOM     13  C   UNL     1      -4.496   2.866 128.772  0.00  0.00    +0.000 A 
ATOM     14  C   UNL     1      -3.371   3.556 128.306  0.00  0.00    +0.000 A 
ATOM     15  C   UNL     1      -3.420   4.910 128.277  0.00  0.00    +0.000 A 
ATOM     16  N   UNL     1      -4.485   5.554 128.706  0.00  0.00    +0.000 NA
ATOM     17  C   UNL     1      -5.489   4.861 129.293  0.00  0.00    +0.000 A 
BRANCH  17  18
ATOM     18  O   UNL     1      -6.278   5.809 129.775  0.00  0.00    +0.000 OA
ATOM     19  C   UNL     1      -5.573   6.386 130.773  0.00  0.00    +0.000 C 
ENDBRANCH  17  18
ENDBRANCH   4  12
BRANCH   4  20
ATOM     20  N   UNL     1      -6.292   1.992 131.545  0.00  0.00    +0.000 NA
ATOM     21  C   UNL     1      -5.577   2.958 132.339  0.00  0.00    +0.000 C 
ATOM     22  C   UNL     1      -4.138   2.599 132.075  0.00  0.00    +0.000 C 
ATOM     23  C   UNL     1      -4.152   1.086 131.962  0.00  0.00    +0.000 C 
ATOM     24  C   UNL     1      -5.597   0.702 131.615  0.00  0.00    +0.000 C 
BRANCH  24  25
ATOM     25  C   UNL     1      -6.174  -0.350 132.547  0.00  0.00    +0.000 C 
ATOM     26  O   UNL     1      -7.013  -0.087 133.405  0.00  0.00    +0.000 OA
ATOM     27  N   UNL     1      -5.719  -1.659 132.284  0.00  0.00    +0.000 N 
ATOM     28  C   UNL     1      -4.778  -2.079 131.235  0.00  0.00    +0.000 C 
ATOM     29  C   UNL     1      -6.216  -2.715 133.135  0.00  0.00    +0.000 C 
ENDBRANCH  24  25
ENDBRANCH   4  20
BRANCH   1  30
ATOM     30  S   UNL     1     -10.084   4.714 130.319  0.00  0.00    +0.000 S 
ATOM     31  O   UNL     1      -8.960   5.329 131.010  0.00  0.00    +0.000 OA
ATOM     32  O   UNL     1     -11.196   4.195 131.107  0.00  0.00    +0.000 OA
BRANCH  30  36
ATOM     33  C   UNL     1     -12.756   9.099 129.180  0.00  0.00    +0.000 A 
ATOM     34  C   UNL     1     -12.731   8.414 130.389  0.00  0.00    +0.000 A 
ATOM     35  C   UNL     1     -11.902   7.210 130.617  0.00  0.00    +0.000 A 
ATOM     36  C   UNL     1     -11.032   6.581 129.632  0.00  0.00    +0.000 A 
ATOM     37  C   UNL     1     -11.070   7.319 128.394  0.00  0.00    +0.000 A 
ATOM     38  C   UNL     1     -11.943   8.542 128.202  0.00  0.00    +0.000 A 
BRANCH  33  40
ATOM     39  C   UNL     1     -13.499  11.192 130.238  0.00  0.00    +0.000 C 
ATOM     40  O   UNL     1     -13.454  10.286 129.123  0.00  0.00    +0.000 OA
ENDBRANCH  33  40
BRANCH  37  41
ATOM     41  O   UNL     1     -10.257   6.957 127.347  0.00  0.00    +0.000 OA
ATOM     42  C   UNL     1     -10.619   7.441 126.047  0.00  0.00    +0.000 C 
ENDBRANCH  37  41
ENDBRANCH  30  36
ENDBRANCH   1  30
TORSDOF 8
ENDMDL
MODEL 5
REMARK VINA RESULT:      -9.1      3.147      5.900
REMARK  Name = CHEMBL1779401
REMARK  13 active torsions:
REMARK  status: ('A' for Active; 'I' for Inactive)
REMARK    1  A    between atoms: C_1  and  O_2
REMARK    2  A    between atoms: O_2  and  C_3
REMARK    3  A    between atoms: C_6  and  S_7
REMARK    4  A    between atoms: S_7  and  N_10
REMARK    5  A    between atoms: C_13  and  C_14
REMARK    6  A    between atoms: C_13  and  N_22
REMARK    7  A    between atoms: C_19  and  O_20
REMARK    8  A    between atoms: O_20  and  C_21
REMARK    9  A    between atoms: C_26  and  C_27
REMARK   10  A    between atoms: N_29  and  C_30
REMARK   11  A    between atoms: N_29  and  C_31
REMARK   12  A    between atoms: C_39  and  O_40
REMARK   13  A    between atoms: O_40  and  C_41
REMARK                            x       y       z     vdW  Elec       q    Type
REMARK                         _______ _______ _______ _____ _____    ______ ____
ROOT
ATOM      1  N   UNL     1      -5.609   1.922 129.851  0.00  0.00    +0.000 N 
ATOM      2  C   UNL     1      -5.933   1.963 131.241  0.00  0.00    +0.000 C 
ATOM      3  O   UNL     1      -5.211   1.377 131.956  0.00  0.00    +0.000 OA
ATOM      4  C   UNL     1      -6.757   3.486 131.621  0.00  0.00    +0.000 C 
ATOM      5  C   UNL     1      -5.519   4.198 131.204  0.00  0.00    +0.000 A 
ATOM      6  C   UNL     1      -4.996   5.311 132.014  0.00  0.00    +0.000 A 
ATOM      7  C   UNL     1      -3.825   5.935 131.798  0.00  0.00    +0.000 A 
ATOM      8 CL   UNL     1      -3.321   7.171 132.889  0.00  0.00    +0.000 Cl
ATOM      9  C   UNL     1      -3.183   5.414 130.707  0.00  0.00    +0.000 A 
ATOM     10  C   UNL     1      -3.772   4.256 129.834  0.00  0.00    +0.000 A 
ATOM     11  C   UNL     1      -5.061   3.595 129.993  0.00  0.00    +0.000 A 
ENDROOT
BRANCH   4  12
ATOM     12  C   UNL     1      -7.802   4.614 130.885  0.00  0.00    +0.000 A 
ATOM     13  C   UNL     1      -7.645   6.008 131.169  0.00  0.00    +0.000 A 
ATOM     14  C   UNL     1      -8.587   7.000 130.871  0.00  0.00    +0.000 A 
ATOM     15  C   UNL     1      -9.645   6.662 130.095  0.00  0.00    +0.000 A 
ATOM     16  N   UNL     1      -9.797   5.427 129.663  0.00  0.00    +0.000 NA
ATOM     17  C   UNL     1      -8.952   4.463 130.100  0.00  0.00    +0.000 A 
BRANCH  17  18
ATOM     18  O   UNL     1      -9.500   3.345 129.649  0.00  0.00    +0.000 OA
ATOM     19  C   UNL     1     -10.614   3.167 130.394  0.00  0.00    +0.000 C 
ENDBRANCH  17  18
ENDBRANCH   4  12
BRANCH   4  20
ATOM     20  N   UNL     1      -7.047   3.184 133.030  0.00  0.00    +0.000 NA
ATOM     21  C   UNL     1      -8.357   2.634 133.266  0.00  0.00    +0.000 C 
ATOM     22  C   UNL     1      -9.145   3.839 133.708  0.00  0.00    +0.000 C 
ATOM     23  C   UNL     1      -8.150   4.652 134.515  0.00  0.00    +0.000 C 
ATOM     24  C   UNL     1      -6.759   4.195 134.052  0.00  0.00    +0.000 C 
BRANCH  24  25
ATOM     25  C   UNL     1      -5.854   3.785 135.202  0.00  0.00    +0.000 C 
ATOM     26  O   UNL     1      -5.596   2.612 135.456  0.00  0.00    +0.000 OA
ATOM     27  N   UNL     1      -5.281   4.873 135.894  0.00  0.00    +0.000 N 
ATOM     28  C   UNL     1      -5.472   6.304 135.616  0.00  0.00    +0.000 C 
ATOM     29  C   UNL     1      -4.415   4.564 137.009  0.00  0.00    +0.000 C 
ENDBRANCH  24  25
ENDBRANCH   4  20
BRANCH   1  30
ATOM     30  S   UNL     1      -6.857   0.338 129.137  0.00  0.00    +0.000 S 
ATOM     31  O   UNL     1      -8.101   0.557 129.859  0.00  0.00    +0.000 OA
ATOM     32  O   UNL     1      -6.078  -0.862 129.424  0.00  0.00    +0.000 OA
BRANCH  30  36
ATOM     33  C   UNL     1      -9.223  -0.623 124.539  0.00  0.00    +0.000 A 
ATOM     34  C   UNL     1      -8.852   0.612 125.057  0.00  0.00    +0.000 A 
ATOM     35  C   UNL     1      -8.143   0.765 126.346  0.00  0.00    +0.000 A 
ATOM     36  C   UNL     1      -7.760  -0.322 127.238  0.00  0.00    +0.000 A 
ATOM     37  C   UNL     1      -8.147  -1.588 126.670  0.00  0.00    +0.000 A 
ATOM     38  C   UNL     1      -8.881  -1.698 125.349  0.00  0.00    +0.000 A 
BRANCH  33  40
ATOM     39  C   UNL     1     -10.168   0.536 122.585  0.00  0.00    +0.000 C 
ATOM     40  O   UNL     1      -9.751  -0.659 123.266  0.00  0.00    +0.000 OA
ENDBRANCH  33  40
BRANCH  37  41
ATOM     41  O   UNL     1      -7.807  -2.762 127.299  0.00  0.00    +0.000 OA
ATOM     42  C   UNL     1      -8.862  -3.708 127.520  0.00  0.00    +0.000 C 
ENDBRANCH  37  41
ENDBRANCH  30  36
ENDBRANCH   1  30
TORSDOF 8
ENDMDL
MODEL 6
REMARK VINA RESULT:      -9.1      2.521      4.681
REMARK  Name = CHEMBL1779401
REMARK  13 active torsions:
REMARK  status: ('A' for Active; 'I' for Inactive)
REMARK    1  A    between atoms: C_1  and  O_2
REMARK    2  A    between atoms: O_2  and  C_3
REMARK    3  A    between atoms: C_6  and  S_7
REMARK    4  A    between atoms: S_7  and  N_10
REMARK    5  A    between atoms: C_13  and  C_14
REMARK    6  A    between atoms: C_13  and  N_22
REMARK    7  A    between atoms: C_19  and  O_20
REMARK    8  A    between atoms: O_20  and  C_21
REMARK    9  A    between atoms: C_26  and  C_27
REMARK   10  A    between atoms: N_29  and  C_30
REMARK   11  A    between atoms: N_29  and  C_31
REMARK   12  A    between atoms: C_39  and  O_40
REMARK   13  A    between atoms: O_40  and  C_41
REMARK                            x       y       z     vdW  Elec       q    Type
REMARK                         _______ _______ _______ _____ _____    ______ ____
ROOT
ATOM      1  N   UNL     1      -5.899  -0.915 128.778  0.00  0.00    +0.000 N 
ATOM      2  C   UNL     1      -6.802   0.058 129.301  0.00  0.00    +0.000 C 
ATOM      3  O   UNL     1      -7.634  -0.346 130.022  0.00  0.00    +0.000 OA
ATOM      4  C   UNL     1      -5.986   1.626 129.436  0.00  0.00    +0.000 C 
ATOM      5  C   UNL     1      -5.050   0.995 130.406  0.00  0.00    +0.000 A 
ATOM      6  C   UNL     1      -4.683   1.699 131.647  0.00  0.00    +0.000 A 
ATOM      7  C   UNL     1      -3.953   1.171 132.642  0.00  0.00    +0.000 A 
ATOM      8 CL   UNL     1      -3.676   2.104 134.065  0.00  0.00    +0.000 Cl
ATOM      9  C   UNL     1      -3.571  -0.111 132.348  0.00  0.00    +0.000 A 
ATOM     10  C   UNL     1      -3.939  -0.831 131.007  0.00  0.00    +0.000 A 
ATOM     11  C   UNL     1      -4.673  -0.277 129.877  0.00  0.00    +0.000 A 
ENDROOT
BRANCH   4  12
ATOM     12  C   UNL     1      -4.765   2.524 128.655  0.00  0.00    +0.000 A 
ATOM     13  C   UNL     1      -4.432   2.225 127.295  0.00  0.00    +0.000 A 
ATOM     14  C   UNL     1      -3.285   2.674 126.631  0.00  0.00    +0.000 A 
ATOM     15  C   UNL     1      -2.518   3.608 127.244  0.00  0.00    +0.000 A 
ATOM     16  N   UNL     1      -2.829   4.053 128.444  0.00  0.00    +0.000 NA
ATOM     17  C   UNL     1      -3.855   3.482 129.118  0.00  0.00    +0.000 A 
BRANCH  17  18
ATOM     18  O   UNL     1      -3.761   4.011 130.329  0.00  0.00    +0.000 OA
ATOM     19  C   UNL     1      -3.594   5.337 130.127  0.00  0.00    +0.000 C 
ENDBRANCH  17  18
ENDBRANCH   4  12
BRANCH   4  20
ATOM     20  N   UNL     1      -7.157   2.400 129.870  0.00  0.00    +0.000 NA
ATOM     21  C   UNL     1      -8.007   2.850 128.799  0.00  0.00    +0.000 C 
ATOM     22  C   UNL     1      -7.558   4.273 128.597  0.00  0.00    +0.000 C 
ATOM     23  C   UNL     1      -7.233   4.757 129.998  0.00  0.00    +0.000 C 
ATOM     24  C   UNL     1      -6.976   3.493 130.831  0.00  0.00    +0.000 C 
BRANCH  24  25
ATOM     25  C   UNL     1      -7.799   3.443 132.107  0.00  0.00    +0.000 C 
ATOM     26  O   UNL     1      -8.860   2.829 132.187  0.00  0.00    +0.000 OA
ATOM     27  N   UNL     1      -7.198   4.097 133.203  0.00  0.00    +0.000 N 
ATOM     28  C   UNL     1      -5.902   4.791 133.221  0.00  0.00    +0.000 C 
ATOM     29  C   UNL     1      -7.926   4.101 134.451  0.00  0.00    +0.000 C 
ENDBRANCH  24  25
ENDBRANCH   4  20
BRANCH   1  30
ATOM     30  S   UNL     1      -6.758  -1.358 126.870  0.00  0.00    +0.000 S 
ATOM     31  O   UNL     1      -7.889  -2.207 127.214  0.00  0.00    +0.000 OA
ATOM     32  O   UNL     1      -5.646  -1.936 126.124  0.00  0.00    +0.000 OA
BRANCH  30  36
ATOM     33  C   UNL     1      -8.790   1.747 123.142  0.00  0.00    +0.000 A 
ATOM     34  C   UNL     1      -7.709   2.019 123.972  0.00  0.00    +0.000 A 
ATOM     35  C   UNL     1      -7.187   1.049 124.959  0.00  0.00    +0.000 A 
ATOM     36  C   UNL     1      -7.725  -0.283 125.206  0.00  0.00    +0.000 A 
ATOM     37  C   UNL     1      -8.835  -0.541 124.323  0.00  0.00    +0.000 A 
ATOM     38  C   UNL     1      -9.343   0.487 123.333  0.00  0.00    +0.000 A 
BRANCH  33  40
ATOM     39  C   UNL     1      -8.089   3.447 121.507  0.00  0.00    +0.000 C 
ATOM     40  O   UNL     1      -9.102   2.666 122.164  0.00  0.00    +0.000 OA
ENDBRANCH  33  40
BRANCH  37  41
ATOM     41  O   UNL     1      -9.444  -1.772 124.319  0.00  0.00    +0.000 OA
ATOM     42  C   UNL     1      -8.805  -2.808 123.559  0.00  0.00    +0.000 C 
ENDBRANCH  37  41
ENDBRANCH  30  36
ENDBRANCH   1  30
TORSDOF 8
ENDMDL
MODEL 7
REMARK VINA RESULT:      -9.0      1.944      2.831
REMARK  Name = CHEMBL1779401
REMARK  13 active torsions:
REMARK  status: ('A' for Active; 'I' for Inactive)
REMARK    1  A    between atoms: C_1  and  O_2
REMARK    2  A    between atoms: O_2  and  C_3
REMARK    3  A    between atoms: C_6  and  S_7
REMARK    4  A    between atoms: S_7  and  N_10
REMARK    5  A    between atoms: C_13  and  C_14
REMARK    6  A    between atoms: C_13  and  N_22
REMARK    7  A    between atoms: C_19  and  O_20
REMARK    8  A    between atoms: O_20  and  C_21
REMARK    9  A    between atoms: C_26  and  C_27
REMARK   10  A    between atoms: N_29  and  C_30
REMARK   11  A    between atoms: N_29  and  C_31
REMARK   12  A    between atoms: C_39  and  O_40
REMARK   13  A    between atoms: O_40  and  C_41
REMARK                            x       y       z     vdW  Elec       q    Type
REMARK                         _______ _______ _______ _____ _____    ______ ____
ROOT
ATOM      1  N   UNL     1      -8.727   1.768 127.942  0.00  0.00    +0.000 N 
ATOM      2  C   UNL     1      -7.345   1.975 128.232  0.00  0.00    +0.000 C 
ATOM      3  O   UNL     1      -6.914   3.033 127.963  0.00  0.00    +0.000 OA
ATOM      4  C   UNL     1      -6.866   0.985 129.622  0.00  0.00    +0.000 C 
ATOM      5  C   UNL     1      -7.841   1.755 130.439  0.00  0.00    +0.000 A 
ATOM      6  C   UNL     1      -7.469   2.233 131.782  0.00  0.00    +0.000 A 
ATOM      7  C   UNL     1      -8.223   3.040 132.547  0.00  0.00    +0.000 A 
ATOM      8 CL   UNL     1      -7.606   3.571 134.067  0.00  0.00    +0.000 Cl
ATOM      9  C   UNL     1      -9.402   3.350 131.923  0.00  0.00    +0.000 A 
ATOM     10  C   UNL     1      -9.798   2.803 130.511  0.00  0.00    +0.000 A 
ATOM     11  C   UNL     1      -9.042   1.879 129.676  0.00  0.00    +0.000 A 
ENDROOT
BRANCH   4  12
ATOM     12  C   UNL     1      -7.255  -0.511 130.344  0.00  0.00    +0.000 A 
ATOM     13  C   UNL     1      -7.442  -0.579 131.761  0.00  0.00    +0.000 A 
ATOM     14  C   UNL     1      -7.481  -1.761 132.511  0.00  0.00    +0.000 A 
ATOM     15  C   UNL     1      -7.531  -2.939 131.842  0.00  0.00    +0.000 A 
ATOM     16  N   UNL     1      -7.510  -2.967 130.526  0.00  0.00    +0.000 NA
ATOM     17  C   UNL     1      -7.314  -1.816 129.840  0.00  0.00    +0.000 A 
BRANCH  17  18
ATOM     18  O   UNL     1      -7.146  -2.225 128.592  0.00  0.00    +0.000 OA
ATOM     19  C   UNL     1      -8.251  -2.948 128.301  0.00  0.00    +0.000 C 
ENDBRANCH  17  18
ENDBRANCH   4  12
BRANCH   4  20
ATOM     20  N   UNL     1      -5.435   1.316 129.593  0.00  0.00    +0.000 NA
ATOM     21  C   UNL     1      -4.557   0.176 129.568  0.00  0.00    +0.000 C 
ATOM     22  C   UNL     1      -4.155   0.038 131.014  0.00  0.00    +0.000 C 
ATOM     23  C   UNL     1      -4.057   1.470 131.505  0.00  0.00    +0.000 C 
ATOM     24  C   UNL     1      -4.912   2.306 130.542  0.00  0.00    +0.000 C 
BRANCH  24  25
ATOM     25  C   UNL     1      -4.165   3.497 129.964  0.00  0.00    +0.000 C 
ATOM     26  O   UNL     1      -3.574   3.451 128.889  0.00  0.00    +0.000 OA
ATOM     27  N   UNL     1      -4.281   4.673 130.735  0.00  0.00    +0.000 N 
ATOM     28  C   UNL     1      -5.025   4.842 131.992  0.00  0.00    +0.000 C 
ATOM     29  C   UNL     1      -3.590   5.847 130.256  0.00  0.00    +0.000 C 
ENDBRANCH  24  25
ENDBRANCH   4  20
BRANCH   1  30
ATOM     30  S   UNL     1      -8.655   0.799 126.036  0.00  0.00    +0.000 S 
ATOM     31  O   UNL     1      -8.353   1.896 125.128  0.00  0.00    +0.000 OA
ATOM     32  O   UNL     1      -9.954   0.143 125.941  0.00  0.00    +0.000 OA
BRANCH  30  36
ATOM     33  C   UNL     1      -5.263  -2.563 123.832  0.00  0.00    +0.000 A 
ATOM     34  C   UNL     1      -5.025  -1.694 124.890  0.00  0.00    +0.000 A 
ATOM     35  C   UNL     1      -6.071  -0.821 125.467  0.00  0.00    +0.000 A 
ATOM     36  C   UNL     1      -7.452  -0.738 125.012  0.00  0.00    +0.000 A 
ATOM     37  C   UNL     1      -7.672  -1.657 123.923  0.00  0.00    +0.000 A 
ATOM     38  C   UNL     1      -6.568  -2.526 123.357  0.00  0.00    +0.000 A 
BRANCH  33  40
ATOM     39  C   UNL     1      -4.393  -4.854 123.610  0.00  0.00    +0.000 C 
ATOM     40  O   UNL     1      -4.256  -3.430 123.467  0.00  0.00    +0.000 OA
ENDBRANCH  33  40
BRANCH  37  41
ATOM     41  O   UNL     1      -8.929  -1.813 123.392  0.00  0.00    +0.000 OA
ATOM     42  C   UNL     1      -9.509  -3.122 123.471  0.00  0.00    +0.000 C 
ENDBRANCH  37  41
ENDBRANCH  30  36
ENDBRANCH   1  30
TORSDOF 8
ENDMDL
MODEL 8
REMARK VINA RESULT:      -9.0      2.940      5.743
REMARK  Name = CHEMBL1779401
REMARK  13 active torsions:
REMARK  status: ('A' for Active; 'I' for Inactive)
REMARK    1  A    between atoms: C_1  and  O_2
REMARK    2  A    between atoms: O_2  and  C_3
REMARK    3  A    between atoms: C_6  and  S_7
REMARK    4  A    between atoms: S_7  and  N_10
REMARK    5  A    between atoms: C_13  and  C_14
REMARK    6  A    between atoms: C_13  and  N_22
REMARK    7  A    between atoms: C_19  and  O_20
REMARK    8  A    between atoms: O_20  and  C_21
REMARK    9  A    between atoms: C_26  and  C_27
REMARK   10  A    between atoms: N_29  and  C_30
REMARK   11  A    between atoms: N_29  and  C_31
REMARK   12  A    between atoms: C_39  and  O_40
REMARK   13  A    between atoms: O_40  and  C_41
REMARK                            x       y       z     vdW  Elec       q    Type
REMARK                         _______ _______ _______ _____ _____    ______ ____
ROOT
ATOM      1  N   UNL     1      -5.554   4.790 128.293  0.00  0.00    +0.000 N 
ATOM      2  C   UNL     1      -5.647   3.712 129.224  0.00  0.00    +0.000 C 
ATOM      3  O   UNL     1      -4.704   3.019 129.306  0.00  0.00    +0.000 OA
ATOM      4  C   UNL     1      -6.720   4.162 130.561  0.00  0.00    +0.000 C 
ATOM      5  C   UNL     1      -5.763   5.251 130.894  0.00  0.00    +0.000 A 
ATOM      6  C   UNL     1      -5.379   5.498 132.294  0.00  0.00    +0.000 A 
ATOM      7  C   UNL     1      -4.432   6.365 132.690  0.00  0.00    +0.000 A 
ATOM      8 CL   UNL     1      -4.049   6.479 134.368  0.00  0.00    +0.000 Cl
ATOM      9  C   UNL     1      -3.876   7.012 131.618  0.00  0.00    +0.000 A 
ATOM     10  C   UNL     1      -4.323   6.764 130.139  0.00  0.00    +0.000 A 
ATOM     11  C   UNL     1      -5.384   5.882 129.670  0.00  0.00    +0.000 A 
ENDROOT
BRANCH   4  12
ATOM     12  C   UNL     1      -8.101   5.121 130.849  0.00  0.00    +0.000 A 
ATOM     13  C   UNL     1      -8.449   5.467 132.193  0.00  0.00    +0.000 A 
ATOM     14  C   UNL     1      -9.682   5.993 132.594  0.00  0.00    +0.000 A 
ATOM     15  C   UNL     1     -10.553   6.381 131.631  0.00  0.00    +0.000 A 
ATOM     16  N   UNL     1     -10.257   6.235 130.357  0.00  0.00    +0.000 NA
ATOM     17  C   UNL     1      -9.124   5.580 130.010  0.00  0.00    +0.000 A 
BRANCH  17  18
ATOM     18  O   UNL     1      -9.240   5.436 128.698  0.00  0.00    +0.000 OA
ATOM     19  C   UNL     1      -9.871   6.553 128.272  0.00  0.00    +0.000 C 
ENDBRANCH  17  18
ENDBRANCH   4  12
BRANCH   4  20
ATOM     20  N   UNL     1      -6.700   2.865 131.250  0.00  0.00    +0.000 NA
ATOM     21  C   UNL     1      -7.528   1.853 130.647  0.00  0.00    +0.000 C 
ATOM     22  C   UNL     1      -8.777   1.904 131.487  0.00  0.00    +0.000 C 
ATOM     23  C   UNL     1      -8.265   2.193 132.887  0.00  0.00    +0.000 C 
ATOM     24  C   UNL     1      -6.878   2.826 132.706  0.00  0.00    +0.000 C 
BRANCH  24  25
ATOM     25  C   UNL     1      -5.797   2.136 133.521  0.00  0.00    +0.000 C 
ATOM     26  O   UNL     1      -5.141   1.193 133.088  0.00  0.00    +0.000 OA
ATOM     27  N   UNL     1      -5.568   2.726 134.782  0.00  0.00    +0.000 N 
ATOM     28  C   UNL     1      -6.249   3.897 135.353  0.00  0.00    +0.000 C 
ATOM     29  C   UNL     1      -4.560   2.119 135.622  0.00  0.00    +0.000 C 
ENDBRANCH  24  25
ENDBRANCH   4  20
BRANCH   1  30
ATOM     30  S   UNL     1      -6.510   3.980 126.559  0.00  0.00    +0.000 S 
ATOM     31  O   UNL     1      -5.387   3.653 125.694  0.00  0.00    +0.000 OA
ATOM     32  O   UNL     1      -7.427   5.039 126.153  0.00  0.00    +0.000 OA
BRANCH  30  36
ATOM     33  C   UNL     1      -9.128  -0.495 125.669  0.00  0.00    +0.000 A 
ATOM     34  C   UNL     1      -8.255  -0.219 126.715  0.00  0.00    +0.000 A 
ATOM     35  C   UNL     1      -7.606   1.097 126.898  0.00  0.00    +0.000 A 
ATOM     36  C   UNL     1      -7.772   2.253 126.027  0.00  0.00    +0.000 A 
ATOM     37  C   UNL     1      -8.691   1.942 124.960  0.00  0.00    +0.000 A 
ATOM     38  C   UNL     1      -9.325   0.575 124.805  0.00  0.00    +0.000 A 
BRANCH  33  40
ATOM     39  C   UNL     1      -9.169  -2.898 126.197  0.00  0.00    +0.000 C 
ATOM     40  O   UNL     1      -9.784  -1.707 125.675  0.00  0.00    +0.000 OA
ENDBRANCH  33  40
BRANCH  37  41
ATOM     41  O   UNL     1      -9.066   2.914 124.065  0.00  0.00    +0.000 OA
ATOM     42  C   UNL     1      -8.249   3.069 122.896  0.00  0.00    +0.000 C 
ENDBRANCH  37  41
ENDBRANCH  30  36
ENDBRANCH   1  30
TORSDOF 8
ENDMDL
MODEL 9
REMARK VINA RESULT:      -9.0      2.878      4.834
REMARK  Name = CHEMBL1779401
REMARK  13 active torsions:
REMARK  status: ('A' for Active; 'I' for Inactive)
REMARK    1  A    between atoms: C_1  and  O_2
REMARK    2  A    between atoms: O_2  and  C_3
REMARK    3  A    between atoms: C_6  and  S_7
REMARK    4  A    between atoms: S_7  and  N_10
REMARK    5  A    between atoms: C_13  and  C_14
REMARK    6  A    between atoms: C_13  and  N_22
REMARK    7  A    between atoms: C_19  and  O_20
REMARK    8  A    between atoms: O_20  and  C_21
REMARK    9  A    between atoms: C_26  and  C_27
REMARK   10  A    between atoms: N_29  and  C_30
REMARK   11  A    between atoms: N_29  and  C_31
REMARK   12  A    between atoms: C_39  and  O_40
REMARK   13  A    between atoms: O_40  and  C_41
REMARK                            x       y       z     vdW  Elec       q    Type
REMARK                         _______ _______ _______ _____ _____    ______ ____
ROOT
ATOM      1  N   UNL     1      -6.662   0.075 131.420  0.00  0.00    +0.000 N 
ATOM      2  C   UNL     1      -7.721   0.791 130.785  0.00  0.00    +0.000 C 
ATOM      3  O   UNL     1      -8.809   0.499 131.112  0.00  0.00    +0.000 OA
ATOM      4  C   UNL     1      -7.172   2.419 130.351  0.00  0.00    +0.000 C 
ATOM      5  C   UNL     1      -6.967   2.679 131.802  0.00  0.00    +0.000 A 
ATOM      6  C   UNL     1      -7.410   3.952 132.396  0.00  0.00    +0.000 A 
ATOM      7  C   UNL     1      -7.389   4.235 133.709  0.00  0.00    +0.000 A 
ATOM      8 CL   UNL     1      -8.016   5.747 134.251  0.00  0.00    +0.000 Cl
ATOM      9  C   UNL     1      -6.880   3.189 134.432  0.00  0.00    +0.000 A 
ATOM     10  C   UNL     1      -6.379   1.857 133.779  0.00  0.00    +0.000 A 
ATOM     11  C   UNL     1      -6.325   1.532 132.360  0.00  0.00    +0.000 A 
ENDROOT
BRANCH   4  12
ATOM     12  C   UNL     1      -5.743   3.224 129.880  0.00  0.00    +0.000 A 
ATOM     13  C   UNL     1      -4.639   2.462 129.381  0.00  0.00    +0.000 A 
ATOM     14  C   UNL     1      -3.334   2.944 129.229  0.00  0.00    +0.000 A 
ATOM     15  C   UNL     1      -3.123   4.273 129.387  0.00  0.00    +0.000 A 
ATOM     16  N   UNL     1      -4.114   5.080 129.706  0.00  0.00    +0.000 NA
ATOM     17  C   UNL     1      -5.328   4.556 129.997  0.00  0.00    +0.000 A 
BRANCH  17  18
ATOM     18  O   UNL     1      -6.008   5.593 130.462  0.00  0.00    +0.000 OA
ATOM     19  C   UNL     1      -5.096   6.359 131.102  0.00  0.00    +0.000 C 
ENDBRANCH  17  18
ENDBRANCH   4  12
BRANCH   4  20
ATOM     20  N   UNL     1      -8.391   2.838 129.647  0.00  0.00    +0.000 NA
ATOM     21  C   UNL     1      -8.495   2.357 128.293  0.00  0.00    +0.000 C 
ATOM     22  C   UNL     1      -8.024   3.539 127.487  0.00  0.00    +0.000 C 
ATOM     23  C   UNL     1      -8.549   4.738 128.254  0.00  0.00    +0.000 C 
ATOM     24  C   UNL     1      -8.793   4.248 129.688  0.00  0.00    +0.000 C 
BRANCH  24  25
ATOM     25  C   UNL     1     -10.192   4.559 130.194  0.00  0.00    +0.000 C 
ATOM     26  O   UNL     1     -11.113   3.749 130.134  0.00  0.00    +0.000 OA
ATOM     27  N   UNL     1     -10.311   5.825 130.803  0.00  0.00    +0.000 N 
ATOM     28  C   UNL     1      -9.251   6.827 130.986  0.00  0.00    +0.000 C 
ATOM     29  C   UNL     1     -11.615   6.198 131.301  0.00  0.00    +0.000 C 
ENDBRANCH  24  25
ENDBRANCH   4  20
BRANCH   1  30
ATOM     30  S   UNL     1      -6.234  -1.464 129.998  0.00  0.00    +0.000 S 
ATOM     31  O   UNL     1      -6.634  -2.674 130.702  0.00  0.00    +0.000 OA
ATOM     32  O   UNL     1      -4.821  -1.261 129.695  0.00  0.00    +0.000 OA
BRANCH  30  36
ATOM     33  C   UNL     1      -8.206  -3.378 125.513  0.00  0.00    +0.000 A 
ATOM     34  C   UNL     1      -8.746  -3.488 126.789  0.00  0.00    +0.000 A 
ATOM     35  C   UNL     1      -8.129  -2.866 127.981  0.00  0.00    +0.000 A 
ATOM     36  C   UNL     1      -6.898  -2.088 127.991  0.00  0.00    +0.000 A 
ATOM     37  C   UNL     1      -6.369  -1.981 126.655  0.00  0.00    +0.000 A 
ATOM     38  C   UNL     1      -7.028  -2.643 125.463  0.00  0.00    +0.000 A 
BRANCH  33  40
ATOM     39  C   UNL     1      -9.330  -3.047 123.349  0.00  0.00    +0.000 C 
ATOM     40  O   UNL     1      -8.937  -3.876 124.456  0.00  0.00    +0.000 OA
ENDBRANCH  33  40
BRANCH  37  41
ATOM     41  O   UNL     1      -5.255  -1.214 126.411  0.00  0.00    +0.000 OA
ATOM     42  C   UNL     1      -5.462   0.196 126.244  0.00  0.00    +0.000 C 
ENDBRANCH  37  41
ENDBRANCH  30  36
ENDBRANCH   1  30
TORSDOF 8
ENDMDL
