MODEL 1
REMARK VINA RESULT:     -10.5      0.000      0.000
REMARK  Name = CHEMBL25353
REMARK  7 active torsions:
REMARK  status: ('A' for Active; 'I' for Inactive)
REMARK    1  A    between atoms: C_2  and  C_3
REMARK    2  A    between atoms: C_3  and  C_4
REMARK    3  A    between atoms: C_7  and  N_8
REMARK    4  A    between atoms: C_15  and  O_16
REMARK    5  A    between atoms: O_16  and  C_17
REMARK    6  A    between atoms: C_17  and  C_18
REMARK    7  A    between atoms: C_25  and  N_26
REMARK                            x       y       z     vdW  Elec       q    Type
REMARK                         _______ _______ _______ _____ _____    ______ ____
ROOT
ATOM      1  O   UNL     1      -9.798   0.072 131.757  0.00  0.00    +0.000 OA
ATOM      2  C   UNL     1      -8.781   0.690 131.467  0.00  0.00    +0.000 C 
ATOM      3  N   UNL     1      -8.652   2.085 131.680  0.00  0.00    +0.000 N 
ATOM      4  C   UNL     1      -8.307   2.994 130.587  0.00  0.00    +0.000 C 
ATOM      5  C   UNL     1      -7.437   4.120 131.096  0.00  0.00    +0.000 C 
ATOM      6  C   UNL     1      -8.434   5.210 132.002  0.00  0.00    +0.000 C 
ATOM      7  C   UNL     1      -8.672   4.010 133.213  0.00  0.00    +0.000 C 
ATOM      8  C   UNL     1      -9.406   2.741 132.750  0.00  0.00    +0.000 C 
ENDROOT
BRANCH   6   9
ATOM      9  N   UNL     1      -9.244   6.447 130.926  0.00  0.00    +0.000 N 
ATOM     10  C   UNL     1     -10.301   6.392 131.905  0.00  0.00    +0.000 C 
ATOM     11  O   UNL     1     -10.247   6.587 133.162  0.00  0.00    +0.000 OA
ATOM     12  O   UNL     1     -11.411   5.815 131.515  0.00  0.00    +0.000 OA
ATOM     13  C   UNL     1     -12.013   6.963 131.075  0.00  0.00    +0.000 C 
ATOM     14  C   UNL     1     -11.658   6.647 129.688  0.00  0.00    +0.000 A 
ATOM     15  C   UNL     1     -12.828   6.522 128.828  0.00  0.00    +0.000 A 
ATOM     16  C   UNL     1     -12.874   6.927 127.531  0.00  0.00    +0.000 A 
ATOM     17  C   UNL     1     -11.816   7.761 127.279  0.00  0.00    +0.000 A 
ATOM     18  C   UNL     1     -10.524   7.745 128.238  0.00  0.00    +0.000 A 
ATOM     19  C   UNL     1     -10.280   6.785 129.441  0.00  0.00    +0.000 A 
ENDBRANCH   6   9
BRANCH   2  20
ATOM     20  C   UNL     1      -7.515   0.037 130.911  0.00  0.00    +0.000 C 
BRANCH  20  21
ATOM     21  C   UNL     1      -7.508  -0.698 129.578  0.00  0.00    +0.000 A 
ATOM     22  C   UNL     1      -7.593   0.101 128.429  0.00  0.00    +0.000 A 
ATOM     23  C   UNL     1      -7.756  -0.438 127.153  0.00  0.00    +0.000 A 
ATOM     24  C   UNL     1      -7.784  -1.811 126.930  0.00  0.00    +0.000 A 
ATOM     25  C   UNL     1      -7.737  -2.633 128.067  0.00  0.00    +0.000 A 
ATOM     26  C   UNL     1      -7.592  -2.104 129.389  0.00  0.00    +0.000 A 
BRANCH  24  27
ATOM     27  N   UNL     1      -7.754  -2.266 125.630  0.00  0.00    +0.000 N 
ATOM     28  C   UNL     1      -7.278  -1.532 124.457  0.00  0.00    +0.000 C 
ATOM     29  C   UNL     1      -8.388  -1.476 123.393  0.00  0.00    +0.000 C 
ATOM     30  O   UNL     1      -8.892  -2.789 123.071  0.00  0.00    +0.000 OA
ATOM     31  C   UNL     1      -9.417  -3.417 124.256  0.00  0.00    +0.000 C 
ATOM     32  C   UNL     1      -8.323  -3.588 125.322  0.00  0.00    +0.000 C 
ENDBRANCH  24  27
BRANCH  26  33
ATOM     33  O   UNL     1      -7.539  -3.102 130.351  0.00  0.00    +0.000 OA
BRANCH  33  34
ATOM     34  C   UNL     1      -6.311  -3.287 131.052  0.00  0.00    +0.000 C 
BRANCH  34  35
ATOM     35  C   UNL     1      -5.389  -4.373 130.568  0.00  0.00    +0.000 C 
ATOM     36  F   UNL     1      -6.050  -5.512 130.299  0.00  0.00    +0.000 F 
ATOM     37  F   UNL     1      -4.692  -3.986 129.484  0.00  0.00    +0.000 F 
ATOM     38  F   UNL     1      -4.488  -4.645 131.552  0.00  0.00    +0.000 F 
ENDBRANCH  34  35
ENDBRANCH  33  34
ENDBRANCH  26  33
ENDBRANCH  20  21
ENDBRANCH   2  20
TORSDOF 7
ENDMDL
MODEL 2
REMARK VINA RESULT:     -10.0      4.657      7.560
REMARK  Name = CHEMBL25353
REMARK  7 active torsions:
REMARK  status: ('A' for Active; 'I' for Inactive)
REMARK    1  A    between atoms: C_2  and  C_3
REMARK    2  A    between atoms: C_3  and  C_4
REMARK    3  A    between atoms: C_7  and  N_8
REMARK    4  A    between atoms: C_15  and  O_16
REMARK    5  A    between atoms: O_16  and  C_17
REMARK    6  A    between atoms: C_17  and  C_18
REMARK    7  A    between atoms: C_25  and  N_26
REMARK                            x       y       z     vdW  Elec       q    Type
REMARK                         _______ _______ _______ _____ _____    ______ ____
ROOT
ATOM      1  O   UNL     1      -7.199   0.866 128.686  0.00  0.00    +0.000 OA
ATOM      2  C   UNL     1      -6.532   1.812 129.090  0.00  0.00    +0.000 C 
ATOM      3  N   UNL     1      -7.099   2.882 129.826  0.00  0.00    +0.000 N 
ATOM      4  C   UNL     1      -6.957   4.270 129.386  0.00  0.00    +0.000 C 
ATOM      5  C   UNL     1      -6.833   5.188 130.579  0.00  0.00    +0.000 C 
ATOM      6  C   UNL     1      -8.393   5.336 131.317  0.00  0.00    +0.000 C 
ATOM      7  C   UNL     1      -8.340   3.683 131.795  0.00  0.00    +0.000 C 
ATOM      8  C   UNL     1      -8.294   2.664 130.644  0.00  0.00    +0.000 C 
ENDROOT
BRANCH   6   9
ATOM      9  N   UNL     1      -9.398   6.646 130.531  0.00  0.00    +0.000 N 
ATOM     10  C   UNL     1     -10.318   6.385 131.610  0.00  0.00    +0.000 C 
ATOM     11  O   UNL     1     -10.116   6.414 132.866  0.00  0.00    +0.000 OA
ATOM     12  O   UNL     1     -11.436   5.789 131.275  0.00  0.00    +0.000 OA
ATOM     13  C   UNL     1     -12.149   6.941 131.076  0.00  0.00    +0.000 C 
ATOM     14  C   UNL     1     -11.956   6.839 129.626  0.00  0.00    +0.000 A 
ATOM     15  C   UNL     1     -13.217   6.749 128.902  0.00  0.00    +0.000 A 
ATOM     16  C   UNL     1     -13.449   7.320 127.689  0.00  0.00    +0.000 A 
ATOM     17  C   UNL     1     -12.477   8.253 127.435  0.00  0.00    +0.000 A 
ATOM     18  C   UNL     1     -11.075   8.199 128.223  0.00  0.00    +0.000 A 
ATOM     19  C   UNL     1     -10.630   7.106 129.241  0.00  0.00    +0.000 A 
ENDBRANCH   6   9
BRANCH   2  20
ATOM     20  C   UNL     1      -5.018   1.925 128.915  0.00  0.00    +0.000 C 
BRANCH  20  21
ATOM     21  C   UNL     1      -4.175   2.852 129.780  0.00  0.00    +0.000 A 
ATOM     22  C   UNL     1      -4.096   2.526 131.142  0.00  0.00    +0.000 A 
ATOM     23  C   UNL     1      -3.494   3.367 132.078  0.00  0.00    +0.000 A 
ATOM     24  C   UNL     1      -2.877   4.560 131.712  0.00  0.00    +0.000 A 
ATOM     25  C   UNL     1      -2.975   4.926 130.360  0.00  0.00    +0.000 A 
ATOM     26  C   UNL     1      -3.606   4.092 129.383  0.00  0.00    +0.000 A 
BRANCH  24  27
ATOM     27  N   UNL     1      -2.141   5.236 132.658  0.00  0.00    +0.000 N 
ATOM     28  C   UNL     1      -2.532   5.506 134.042  0.00  0.00    +0.000 C 
ATOM     29  C   UNL     1      -2.473   7.020 134.313  0.00  0.00    +0.000 C 
ATOM     30  O   UNL     1      -1.189   7.580 133.969  0.00  0.00    +0.000 OA
ATOM     31  C   UNL     1      -0.909   7.348 132.576  0.00  0.00    +0.000 C 
ATOM     32  C   UNL     1      -0.858   5.843 132.266  0.00  0.00    +0.000 C 
ENDBRANCH  24  27
BRANCH  26  33
ATOM     33  O   UNL     1      -3.556   4.643 128.111  0.00  0.00    +0.000 OA
BRANCH  33  34
ATOM     34  C   UNL     1      -2.331   4.543 127.389  0.00  0.00    +0.000 C 
BRANCH  34  35
ATOM     35  C   UNL     1      -2.082   3.283 126.607  0.00  0.00    +0.000 C 
ATOM     36  F   UNL     1      -3.224   2.629 126.329  0.00  0.00    +0.000 F 
ATOM     37  F   UNL     1      -1.413   3.530 125.466  0.00  0.00    +0.000 F 
ATOM     38  F   UNL     1      -1.308   2.452 127.358  0.00  0.00    +0.000 F 
ENDBRANCH  34  35
ENDBRANCH  33  34
ENDBRANCH  26  33
ENDBRANCH  20  21
ENDBRANCH   2  20
TORSDOF 7
ENDMDL
MODEL 3
REMARK VINA RESULT:      -9.9      2.559      3.111
REMARK  Name = CHEMBL25353
REMARK  7 active torsions:
REMARK  status: ('A' for Active; 'I' for Inactive)
REMARK    1  A    between atoms: C_2  and  C_3
REMARK    2  A    between atoms: C_3  and  C_4
REMARK    3  A    between atoms: C_7  and  N_8
REMARK    4  A    between atoms: C_15  and  O_16
REMARK    5  A    between atoms: O_16  and  C_17
REMARK    6  A    between atoms: C_17  and  C_18
REMARK    7  A    between atoms: C_25  and  N_26
REMARK                            x       y       z     vdW  Elec       q    Type
REMARK                         _______ _______ _______ _____ _____    ______ ____
ROOT
ATOM      1  O   UNL     1      -9.747   0.120 131.834  0.00  0.00    +0.000 OA
ATOM      2  C   UNL     1      -8.736   0.731 131.506  0.00  0.00    +0.000 C 
ATOM      3  N   UNL     1      -8.594   2.126 131.705  0.00  0.00    +0.000 N 
ATOM      4  C   UNL     1      -8.281   3.027 130.596  0.00  0.00    +0.000 C 
ATOM      5  C   UNL     1      -7.389   4.151 131.068  0.00  0.00    +0.000 C 
ATOM      6  C   UNL     1      -8.349   5.253 132.000  0.00  0.00    +0.000 C 
ATOM      7  C   UNL     1      -8.552   4.061 133.226  0.00  0.00    +0.000 C 
ATOM      8  C   UNL     1      -9.309   2.794 132.796  0.00  0.00    +0.000 C 
ENDROOT
BRANCH   6   9
ATOM      9  N   UNL     1      -9.189   6.487 130.944  0.00  0.00    +0.000 N 
ATOM     10  C   UNL     1     -10.239   6.398 131.927  0.00  0.00    +0.000 C 
ATOM     11  O   UNL     1     -10.183   6.579 133.185  0.00  0.00    +0.000 OA
ATOM     12  O   UNL     1     -11.340   5.804 131.534  0.00  0.00    +0.000 OA
ATOM     13  C   UNL     1     -11.966   6.946 131.112  0.00  0.00    +0.000 C 
ATOM     14  C   UNL     1     -11.612   6.655 129.719  0.00  0.00    +0.000 A 
ATOM     15  C   UNL     1     -12.784   6.518 128.864  0.00  0.00    +0.000 A 
ATOM     16  C   UNL     1     -12.844   6.938 127.572  0.00  0.00    +0.000 A 
ATOM     17  C   UNL     1     -11.803   7.796 127.325  0.00  0.00    +0.000 A 
ATOM     18  C   UNL     1     -10.507   7.793 128.278  0.00  0.00    +0.000 A 
ATOM     19  C   UNL     1     -10.238   6.823 129.468  0.00  0.00    +0.000 A 
ENDBRANCH   6   9
BRANCH   2  20
ATOM     20  C   UNL     1      -7.493   0.067 130.913  0.00  0.00    +0.000 C 
BRANCH  20  21
ATOM     21  C   UNL     1      -7.490  -0.526 129.510  0.00  0.00    +0.000 A 
ATOM     22  C   UNL     1      -7.922  -1.856 129.400  0.00  0.00    +0.000 A 
ATOM     23  C   UNL     1      -7.824  -2.577 128.210  0.00  0.00    +0.000 A 
ATOM     24  C   UNL     1      -7.346  -2.003 127.036  0.00  0.00    +0.000 A 
ATOM     25  C   UNL     1      -6.873  -0.685 127.129  0.00  0.00    +0.000 A 
ATOM     26  C   UNL     1      -6.942   0.070 128.343  0.00  0.00    +0.000 A 
BRANCH  24  27
ATOM     27  N   UNL     1      -7.459  -2.716 125.863  0.00  0.00    +0.000 N 
ATOM     28  C   UNL     1      -6.551  -2.665 124.717  0.00  0.00    +0.000 C 
ATOM     29  C   UNL     1      -7.338  -2.304 123.445  0.00  0.00    +0.000 C 
ATOM     30  O   UNL     1      -8.460  -3.186 123.237  0.00  0.00    +0.000 OA
ATOM     31  C   UNL     1      -9.351  -3.122 124.367  0.00  0.00    +0.000 C 
ATOM     32  C   UNL     1      -8.642  -3.568 125.656  0.00  0.00    +0.000 C 
ENDBRANCH  24  27
BRANCH  26  33
ATOM     33  O   UNL     1      -6.446   1.356 128.191  0.00  0.00    +0.000 OA
BRANCH  33  34
ATOM     34  C   UNL     1      -5.076   1.503 127.824  0.00  0.00    +0.000 C 
BRANCH  34  35
ATOM     35  C   UNL     1      -4.765   2.330 126.607  0.00  0.00    +0.000 C 
ATOM     36  F   UNL     1      -5.322   1.818 125.495  0.00  0.00    +0.000 F 
ATOM     37  F   UNL     1      -5.155   3.608 126.761  0.00  0.00    +0.000 F 
ATOM     38  F   UNL     1      -3.416   2.338 126.422  0.00  0.00    +0.000 F 
ENDBRANCH  34  35
ENDBRANCH  33  34
ENDBRANCH  26  33
ENDBRANCH  20  21
ENDBRANCH   2  20
TORSDOF 7
ENDMDL
MODEL 4
REMARK VINA RESULT:      -9.9      6.051      9.892
REMARK  Name = CHEMBL25353
REMARK  7 active torsions:
REMARK  status: ('A' for Active; 'I' for Inactive)
REMARK    1  A    between atoms: C_2  and  C_3
REMARK    2  A    between atoms: C_3  and  C_4
REMARK    3  A    between atoms: C_7  and  N_8
REMARK    4  A    between atoms: C_15  and  O_16
REMARK    5  A    between atoms: O_16  and  C_17
REMARK    6  A    between atoms: C_17  and  C_18
REMARK    7  A    between atoms: C_25  and  N_26
REMARK                            x       y       z     vdW  Elec       q    Type
REMARK                         _______ _______ _______ _____ _____    ______ ____
ROOT
ATOM      1  O   UNL     1      -3.694   3.428 130.681  0.00  0.00    +0.000 OA
ATOM      2  C   UNL     1      -4.167   4.045 131.629  0.00  0.00    +0.000 C 
ATOM      3  N   UNL     1      -5.546   4.359 131.719  0.00  0.00    +0.000 N 
ATOM      4  C   UNL     1      -6.005   5.737 131.891  0.00  0.00    +0.000 C 
ATOM      5  C   UNL     1      -7.237   5.776 132.764  0.00  0.00    +0.000 C 
ATOM      6  C   UNL     1      -8.580   5.196 131.835  0.00  0.00    +0.000 C 
ATOM      7  C   UNL     1      -7.892   3.618 131.798  0.00  0.00    +0.000 C 
ATOM      8  C   UNL     1      -6.542   3.503 131.070  0.00  0.00    +0.000 C 
ENDROOT
BRANCH   6   9
ATOM      9  N   UNL     1      -9.352   6.527 130.848  0.00  0.00    +0.000 N 
ATOM     10  C   UNL     1     -10.468   6.344 131.741  0.00  0.00    +0.000 C 
ATOM     11  O   UNL     1     -10.502   6.401 133.012  0.00  0.00    +0.000 OA
ATOM     12  O   UNL     1     -11.535   5.791 131.216  0.00  0.00    +0.000 OA
ATOM     13  C   UNL     1     -12.137   6.969 130.864  0.00  0.00    +0.000 C 
ATOM     14  C   UNL     1     -11.684   6.814 129.478  0.00  0.00    +0.000 A 
ATOM     15  C   UNL     1     -12.792   6.762 128.533  0.00  0.00    +0.000 A 
ATOM     16  C   UNL     1     -12.765   7.306 127.287  0.00  0.00    +0.000 A 
ATOM     17  C   UNL     1     -11.715   8.184 127.199  0.00  0.00    +0.000 A 
ATOM     18  C   UNL     1     -10.488   8.088 128.236  0.00  0.00    +0.000 A 
ATOM     19  C   UNL     1     -10.297   7.006 129.342  0.00  0.00    +0.000 A 
ENDBRANCH   6   9
BRANCH   2  20
ATOM     20  C   UNL     1      -3.357   4.490 132.847  0.00  0.00    +0.000 C 
BRANCH  20  21
ATOM     21  C   UNL     1      -2.857   5.920 133.002  0.00  0.00    +0.000 A 
ATOM     22  C   UNL     1      -3.063   6.515 134.255  0.00  0.00    +0.000 A 
ATOM     23  C   UNL     1      -2.802   7.865 134.493  0.00  0.00    +0.000 A 
ATOM     24  C   UNL     1      -2.262   8.696 133.517  0.00  0.00    +0.000 A 
ATOM     25  C   UNL     1      -2.081   8.133 132.244  0.00  0.00    +0.000 A 
ATOM     26  C   UNL     1      -2.361   6.757 131.967  0.00  0.00    +0.000 A 
BRANCH  24  27
ATOM     27  N   UNL     1      -1.854   9.960 133.882  0.00  0.00    +0.000 N 
ATOM     28  C   UNL     1      -2.701  11.040 134.390  0.00  0.00    +0.000 C 
ATOM     29  C   UNL     1      -2.535  12.289 133.507  0.00  0.00    +0.000 C 
ATOM     30  O   UNL     1      -1.151  12.673 133.371  0.00  0.00    +0.000 OA
ATOM     31  C   UNL     1      -0.396  11.592 132.791  0.00  0.00    +0.000 C 
ATOM     32  C   UNL     1      -0.447  10.341 133.684  0.00  0.00    +0.000 C 
ENDBRANCH  24  27
BRANCH  26  33
ATOM     33  O   UNL     1      -2.079   6.417 130.652  0.00  0.00    +0.000 OA
BRANCH  33  34
ATOM     34  C   UNL     1      -3.010   6.810 129.647  0.00  0.00    +0.000 C 
BRANCH  34  35
ATOM     35  C   UNL     1      -2.657   6.515 128.215  0.00  0.00    +0.000 C 
ATOM     36  F   UNL     1      -1.773   7.399 127.722  0.00  0.00    +0.000 F 
ATOM     37  F   UNL     1      -2.178   5.265 128.069  0.00  0.00    +0.000 F 
ATOM     38  F   UNL     1      -3.789   6.604 127.463  0.00  0.00    +0.000 F 
ENDBRANCH  34  35
ENDBRANCH  33  34
ENDBRANCH  26  33
ENDBRANCH  20  21
ENDBRANCH   2  20
TORSDOF 7
ENDMDL
MODEL 5
REMARK VINA RESULT:      -9.8      5.989      8.832
REMARK  Name = CHEMBL25353
REMARK  7 active torsions:
REMARK  status: ('A' for Active; 'I' for Inactive)
REMARK    1  A    between atoms: C_2  and  C_3
REMARK    2  A    between atoms: C_3  and  C_4
REMARK    3  A    between atoms: C_7  and  N_8
REMARK    4  A    between atoms: C_15  and  O_16
REMARK    5  A    between atoms: O_16  and  C_17
REMARK    6  A    between atoms: C_17  and  C_18
REMARK    7  A    between atoms: C_25  and  N_26
REMARK                            x       y       z     vdW  Elec       q    Type
REMARK                         _______ _______ _______ _____ _____    ______ ____
ROOT
ATOM      1  O   UNL     1      -8.157  -1.840 127.556  0.00  0.00    +0.000 OA
ATOM      2  C   UNL     1      -6.964  -2.075 127.403  0.00  0.00    +0.000 C 
ATOM      3  N   UNL     1      -6.132  -2.505 128.465  0.00  0.00    +0.000 N 
ATOM      4  C   UNL     1      -4.912  -1.780 128.820  0.00  0.00    +0.000 C 
ATOM      5  C   UNL     1      -3.841  -2.744 129.275  0.00  0.00    +0.000 C 
ATOM      6  C   UNL     1      -4.252  -3.303 130.863  0.00  0.00    +0.000 C 
ATOM      7  C   UNL     1      -5.616  -4.141 130.231  0.00  0.00    +0.000 C 
ATOM      8  C   UNL     1      -6.697  -3.255 129.590  0.00  0.00    +0.000 C 
ENDROOT
BRANCH   6   9
ATOM      9  N   UNL     1      -3.650  -2.167 132.163  0.00  0.00    +0.000 N 
ATOM     10  C   UNL     1      -3.551  -3.364 132.959  0.00  0.00    +0.000 C 
ATOM     11  O   UNL     1      -2.918  -4.442 132.721  0.00  0.00    +0.000 OA
ATOM     12  O   UNL     1      -4.426  -3.478 133.929  0.00  0.00    +0.000 OA
ATOM     13  C   UNL     1      -3.642  -2.894 134.888  0.00  0.00    +0.000 C 
ATOM     14  C   UNL     1      -4.356  -1.623 134.732  0.00  0.00    +0.000 A 
ATOM     15  C   UNL     1      -4.993  -1.188 135.969  0.00  0.00    +0.000 A 
ATOM     16  C   UNL     1      -5.090   0.108 136.368  0.00  0.00    +0.000 A 
ATOM     17  C   UNL     1      -4.216   0.874 135.638  0.00  0.00    +0.000 A 
ATOM     18  C   UNL     1      -3.651   0.338 134.230  0.00  0.00    +0.000 A 
ATOM     19  C   UNL     1      -4.059  -0.985 133.514  0.00  0.00    +0.000 A 
ENDBRANCH   6   9
BRANCH   2  20
ATOM     20  C   UNL     1      -6.247  -1.999 126.055  0.00  0.00    +0.000 C 
BRANCH  20  21
ATOM     21  C   UNL     1      -6.359  -0.779 125.151  0.00  0.00    +0.000 A 
ATOM     22  C   UNL     1      -6.022   0.453 125.730  0.00  0.00    +0.000 A 
ATOM     23  C   UNL     1      -6.226   1.668 125.076  0.00  0.00    +0.000 A 
ATOM     24  C   UNL     1      -6.723   1.733 123.777  0.00  0.00    +0.000 A 
ATOM     25  C   UNL     1      -7.102   0.516 123.189  0.00  0.00    +0.000 A 
ATOM     26  C   UNL     1      -6.923  -0.742 123.848  0.00  0.00    +0.000 A 
BRANCH  24  27
ATOM     27  N   UNL     1      -6.715   2.949 123.131  0.00  0.00    +0.000 N 
ATOM     28  C   UNL     1      -7.478   3.308 121.935  0.00  0.00    +0.000 C 
ATOM     29  C   UNL     1      -6.520   3.808 120.838  0.00  0.00    +0.000 C 
ATOM     30  O   UNL     1      -5.672   4.875 121.310  0.00  0.00    +0.000 OA
ATOM     31  C   UNL     1      -4.893   4.424 122.434  0.00  0.00    +0.000 C 
ATOM     32  C   UNL     1      -5.801   4.002 123.601  0.00  0.00    +0.000 C 
ENDBRANCH  24  27
BRANCH  26  33
ATOM     33  O   UNL     1      -7.339  -1.810 123.065  0.00  0.00    +0.000 OA
BRANCH  33  34
ATOM     34  C   UNL     1      -8.728  -2.130 123.060  0.00  0.00    +0.000 C 
BRANCH  34  35
ATOM     35  C   UNL     1      -9.187  -3.259 123.942  0.00  0.00    +0.000 C 
ATOM     36  F   UNL     1      -8.192  -4.122 124.214  0.00  0.00    +0.000 F 
ATOM     37  F   UNL     1      -9.721  -2.807 125.091  0.00  0.00    +0.000 F 
ATOM     38  F   UNL     1     -10.161  -3.951 123.288  0.00  0.00    +0.000 F 
ENDBRANCH  34  35
ENDBRANCH  33  34
ENDBRANCH  26  33
ENDBRANCH  20  21
ENDBRANCH   2  20
TORSDOF 7
ENDMDL
MODEL 6
REMARK VINA RESULT:      -9.7      4.781      8.780
REMARK  Name = CHEMBL25353
REMARK  7 active torsions:
REMARK  status: ('A' for Active; 'I' for Inactive)
REMARK    1  A    between atoms: C_2  and  C_3
REMARK    2  A    between atoms: C_3  and  C_4
REMARK    3  A    between atoms: C_7  and  N_8
REMARK    4  A    between atoms: C_15  and  O_16
REMARK    5  A    between atoms: O_16  and  C_17
REMARK    6  A    between atoms: C_17  and  C_18
REMARK    7  A    between atoms: C_25  and  N_26
REMARK                            x       y       z     vdW  Elec       q    Type
REMARK                         _______ _______ _______ _____ _____    ______ ____
ROOT
ATOM      1  O   UNL     1      -6.868   2.464 133.755  0.00  0.00    +0.000 OA
ATOM      2  C   UNL     1      -7.351   3.486 133.281  0.00  0.00    +0.000 C 
ATOM      3  N   UNL     1      -6.639   4.316 132.380  0.00  0.00    +0.000 N 
ATOM      4  C   UNL     1      -6.439   5.740 132.650  0.00  0.00    +0.000 C 
ATOM      5  C   UNL     1      -6.474   6.529 131.362  0.00  0.00    +0.000 C 
ATOM      6  C   UNL     1      -4.994   6.243 130.509  0.00  0.00    +0.000 C 
ATOM      7  C   UNL     1      -5.444   4.602 130.247  0.00  0.00    +0.000 C 
ATOM      8  C   UNL     1      -5.600   3.749 131.517  0.00  0.00    +0.000 C 
ENDROOT
BRANCH   6   9
ATOM      9  N   UNL     1      -3.663   7.372 131.055  0.00  0.00    +0.000 N 
ATOM     10  C   UNL     1      -2.792   6.425 130.404  0.00  0.00    +0.000 C 
ATOM     11  O   UNL     1      -2.810   6.006 129.203  0.00  0.00    +0.000 OA
ATOM     12  O   UNL     1      -2.045   5.697 131.199  0.00  0.00    +0.000 OA
ATOM     13  C   UNL     1      -0.970   6.544 131.187  0.00  0.00    +0.000 C 
ATOM     14  C   UNL     1      -1.365   7.102 132.485  0.00  0.00    +0.000 A 
ATOM     15  C   UNL     1      -0.338   6.921 133.504  0.00  0.00    +0.000 A 
ATOM     16  C   UNL     1      -0.054   7.828 134.476  0.00  0.00    +0.000 A 
ATOM     17  C   UNL     1      -0.608   9.038 134.143  0.00  0.00    +0.000 A 
ATOM     18  C   UNL     1      -1.811   9.112 133.078  0.00  0.00    +0.000 A 
ATOM     19  C   UNL     1      -2.518   7.902 132.397  0.00  0.00    +0.000 A 
ENDBRANCH   6   9
BRANCH   2  20
ATOM     20  C   UNL     1      -8.783   3.954 133.542  0.00  0.00    +0.000 C 
BRANCH  20  21
ATOM     21  C   UNL     1      -9.628   4.602 132.454  0.00  0.00    +0.000 A 
ATOM     22  C   UNL     1     -10.182   5.853 132.763  0.00  0.00    +0.000 A 
ATOM     23  C   UNL     1     -11.102   6.490 131.930  0.00  0.00    +0.000 A 
ATOM     24  C   UNL     1     -11.484   5.952 130.705  0.00  0.00    +0.000 A 
ATOM     25  C   UNL     1     -10.972   4.684 130.389  0.00  0.00    +0.000 A 
ATOM     26  C   UNL     1     -10.044   4.000 131.236  0.00  0.00    +0.000 A 
BRANCH  24  27
ATOM     27  N   UNL     1     -12.243   6.727 129.855  0.00  0.00    +0.000 N 
ATOM     28  C   UNL     1     -12.226   6.695 128.393  0.00  0.00    +0.000 C 
ATOM     29  C   UNL     1     -11.923   8.101 127.845  0.00  0.00    +0.000 C 
ATOM     30  O   UNL     1     -12.824   9.093 128.378  0.00  0.00    +0.000 OA
ATOM     31  C   UNL     1     -12.726   9.124 129.814  0.00  0.00    +0.000 C 
ATOM     32  C   UNL     1     -13.115   7.767 130.425  0.00  0.00    +0.000 C 
ENDBRANCH  24  27
BRANCH  26  33
ATOM     33  O   UNL     1      -9.651   2.778 130.708  0.00  0.00    +0.000 OA
BRANCH  33  34
ATOM     34  C   UNL     1      -8.866   2.789 129.519  0.00  0.00    +0.000 C 
BRANCH  34  35
ATOM     35  C   UNL     1      -8.257   1.487 129.074  0.00  0.00    +0.000 C 
ATOM     36  F   UNL     1      -8.431   0.513 129.983  0.00  0.00    +0.000 F 
ATOM     37  F   UNL     1      -8.748   1.090 127.885  0.00  0.00    +0.000 F 
ATOM     38  F   UNL     1      -6.916   1.667 128.918  0.00  0.00    +0.000 F 
ENDBRANCH  34  35
ENDBRANCH  33  34
ENDBRANCH  26  33
ENDBRANCH  20  21
ENDBRANCH   2  20
TORSDOF 7
ENDMDL
MODEL 7
REMARK VINA RESULT:      -9.6      3.667      4.440
REMARK  Name = CHEMBL25353
REMARK  7 active torsions:
REMARK  status: ('A' for Active; 'I' for Inactive)
REMARK    1  A    between atoms: C_2  and  C_3
REMARK    2  A    between atoms: C_3  and  C_4
REMARK    3  A    between atoms: C_7  and  N_8
REMARK    4  A    between atoms: C_15  and  O_16
REMARK    5  A    between atoms: O_16  and  C_17
REMARK    6  A    between atoms: C_17  and  C_18
REMARK    7  A    between atoms: C_25  and  N_26
REMARK                            x       y       z     vdW  Elec       q    Type
REMARK                         _______ _______ _______ _____ _____    ______ ____
ROOT
ATOM      1  O   UNL     1      -8.517   0.565 131.060  0.00  0.00    +0.000 OA
ATOM      2  C   UNL     1      -7.735   1.344 130.529  0.00  0.00    +0.000 C 
ATOM      3  N   UNL     1      -7.721   2.729 130.828  0.00  0.00    +0.000 N 
ATOM      4  C   UNL     1      -7.865   3.738 129.779  0.00  0.00    +0.000 C 
ATOM      5  C   UNL     1      -7.027   4.953 130.099  0.00  0.00    +0.000 C 
ATOM      6  C   UNL     1      -7.805   5.830 131.374  0.00  0.00    +0.000 C 
ATOM      7  C   UNL     1      -7.485   4.544 132.474  0.00  0.00    +0.000 C 
ATOM      8  C   UNL     1      -8.164   3.206 132.141  0.00  0.00    +0.000 C 
ENDROOT
BRANCH   6   9
ATOM      9  N   UNL     1      -9.069   6.986 130.734  0.00  0.00    +0.000 N 
ATOM     10  C   UNL     1      -9.906   6.407 131.756  0.00  0.00    +0.000 C 
ATOM     11  O   UNL     1      -9.706   6.322 133.010  0.00  0.00    +0.000 OA
ATOM     12  O   UNL     1     -10.875   5.635 131.329  0.00  0.00    +0.000 OA
ATOM     13  C   UNL     1     -11.817   6.627 131.259  0.00  0.00    +0.000 C 
ATOM     14  C   UNL     1     -11.616   6.748 129.811  0.00  0.00    +0.000 A 
ATOM     15  C   UNL     1     -12.835   6.484 129.057  0.00  0.00    +0.000 A 
ATOM     16  C   UNL     1     -13.190   7.139 127.919  0.00  0.00    +0.000 A 
ATOM     17  C   UNL     1     -12.439   8.280 127.799  0.00  0.00    +0.000 A 
ATOM     18  C   UNL     1     -11.052   8.425 128.602  0.00  0.00    +0.000 A 
ATOM     19  C   UNL     1     -10.379   7.333 129.487  0.00  0.00    +0.000 A 
ENDBRANCH   6   9
BRANCH   2  20
ATOM     20  C   UNL     1      -6.645   0.921 129.544  0.00  0.00    +0.000 C 
BRANCH  20  21
ATOM     21  C   UNL     1      -6.783   1.152 128.044  0.00  0.00    +0.000 A 
ATOM     22  C   UNL     1      -7.989   0.738 127.462  0.00  0.00    +0.000 A 
ATOM     23  C   UNL     1      -8.192   0.741 126.082  0.00  0.00    +0.000 A 
ATOM     24  C   UNL     1      -7.231   1.215 125.194  0.00  0.00    +0.000 A 
ATOM     25  C   UNL     1      -6.001   1.602 125.750  0.00  0.00    +0.000 A 
ATOM     26  C   UNL     1      -5.759   1.587 127.161  0.00  0.00    +0.000 A 
BRANCH  24  27
ATOM     27  N   UNL     1      -7.576   1.367 123.870  0.00  0.00    +0.000 N 
ATOM     28  C   UNL     1      -6.894   2.197 122.877  0.00  0.00    +0.000 C 
ATOM     29  C   UNL     1      -7.893   3.186 122.251  0.00  0.00    +0.000 C 
ATOM     30  O   UNL     1      -9.056   2.516 121.724  0.00  0.00    +0.000 OA
ATOM     31  C   UNL     1      -9.721   1.788 122.773  0.00  0.00    +0.000 C 
ATOM     32  C   UNL     1      -8.798   0.714 123.372  0.00  0.00    +0.000 C 
ENDBRANCH  24  27
BRANCH  26  33
ATOM     33  O   UNL     1      -4.487   2.039 127.481  0.00  0.00    +0.000 OA
BRANCH  33  34
ATOM     34  C   UNL     1      -4.344   3.401 127.877  0.00  0.00    +0.000 C 
BRANCH  34  35
ATOM     35  C   UNL     1      -3.458   4.282 127.039  0.00  0.00    +0.000 C 
ATOM     36  F   UNL     1      -3.764   5.583 127.180  0.00  0.00    +0.000 F 
ATOM     37  F   UNL     1      -2.156   4.089 127.321  0.00  0.00    +0.000 F 
ATOM     38  F   UNL     1      -3.639   3.958 125.729  0.00  0.00    +0.000 F 
ENDBRANCH  34  35
ENDBRANCH  33  34
ENDBRANCH  26  33
ENDBRANCH  20  21
ENDBRANCH   2  20
TORSDOF 7
ENDMDL
MODEL 8
REMARK VINA RESULT:      -9.4      5.172     10.595
REMARK  Name = CHEMBL25353
REMARK  7 active torsions:
REMARK  status: ('A' for Active; 'I' for Inactive)
REMARK    1  A    between atoms: C_2  and  C_3
REMARK    2  A    between atoms: C_3  and  C_4
REMARK    3  A    between atoms: C_7  and  N_8
REMARK    4  A    between atoms: C_15  and  O_16
REMARK    5  A    between atoms: O_16  and  C_17
REMARK    6  A    between atoms: C_17  and  C_18
REMARK    7  A    between atoms: C_25  and  N_26
REMARK                            x       y       z     vdW  Elec       q    Type
REMARK                         _______ _______ _______ _____ _____    ______ ____
ROOT
ATOM      1  O   UNL     1      -5.817   2.466 130.548  0.00  0.00    +0.000 OA
ATOM      2  C   UNL     1      -6.107   3.119 129.552  0.00  0.00    +0.000 C 
ATOM      3  N   UNL     1      -6.793   2.555 128.448  0.00  0.00    +0.000 N 
ATOM      4  C   UNL     1      -6.242   2.620 127.094  0.00  0.00    +0.000 C 
ATOM      5  C   UNL     1      -7.352   2.778 126.082  0.00  0.00    +0.000 C 
ATOM      6  C   UNL     1      -8.170   1.258 125.929  0.00  0.00    +0.000 C 
ATOM      7  C   UNL     1      -8.768   1.401 127.537  0.00  0.00    +0.000 C 
ATOM      8  C   UNL     1      -7.697   1.419 128.641  0.00  0.00    +0.000 C 
ENDROOT
BRANCH   6   9
ATOM      9  N   UNL     1      -7.349   0.161 124.718  0.00  0.00    +0.000 N 
ATOM     10  C   UNL     1      -8.665  -0.406 124.559  0.00  0.00    +0.000 C 
ATOM     11  O   UNL     1      -9.758   0.168 124.250  0.00  0.00    +0.000 OA
ATOM     12  O   UNL     1      -8.829  -1.613 125.042  0.00  0.00    +0.000 OA
ATOM     13  C   UNL     1      -8.514  -2.267 123.881  0.00  0.00    +0.000 C 
ATOM     14  C   UNL     1      -7.156  -2.529 124.368  0.00  0.00    +0.000 A 
ATOM     15  C   UNL     1      -6.857  -3.954 124.442  0.00  0.00    +0.000 A 
ATOM     16  C   UNL     1      -5.643  -4.499 124.162  0.00  0.00    +0.000 A 
ATOM     17  C   UNL     1      -4.882  -3.584 123.480  0.00  0.00    +0.000 A 
ATOM     18  C   UNL     1      -5.242  -2.017 123.550  0.00  0.00    +0.000 A 
ATOM     19  C   UNL     1      -6.366  -1.366 124.411  0.00  0.00    +0.000 A 
ENDBRANCH   6   9
BRANCH   2  20
ATOM     20  C   UNL     1      -5.832   4.615 129.403  0.00  0.00    +0.000 C 
BRANCH  20  21
ATOM     21  C   UNL     1      -4.675   5.296 130.121  0.00  0.00    +0.000 A 
ATOM     22  C   UNL     1      -5.022   6.275 131.063  0.00  0.00    +0.000 A 
ATOM     23  C   UNL     1      -4.071   7.089 131.681  0.00  0.00    +0.000 A 
ATOM     24  C   UNL     1      -2.707   6.940 131.445  0.00  0.00    +0.000 A 
ATOM     25  C   UNL     1      -2.337   5.992 130.479  0.00  0.00    +0.000 A 
ATOM     26  C   UNL     1      -3.295   5.160 129.815  0.00  0.00    +0.000 A 
BRANCH  24  27
ATOM     27  N   UNL     1      -1.824   7.645 132.232  0.00  0.00    +0.000 N 
ATOM     28  C   UNL     1      -0.457   7.256 132.577  0.00  0.00    +0.000 C 
ATOM     29  C   UNL     1      -0.295   7.224 134.107  0.00  0.00    +0.000 C 
ATOM     30  O   UNL     1      -0.700   8.467 134.718  0.00  0.00    +0.000 OA
ATOM     31  C   UNL     1      -2.078   8.743 134.403  0.00  0.00    +0.000 C 
ATOM     32  C   UNL     1      -2.281   8.883 132.885  0.00  0.00    +0.000 C 
ENDBRANCH  24  27
BRANCH  26  33
ATOM     33  O   UNL     1      -2.698   4.278 128.926  0.00  0.00    +0.000 OA
BRANCH  33  34
ATOM     34  C   UNL     1      -2.582   4.683 127.564  0.00  0.00    +0.000 C 
BRANCH  34  35
ATOM     35  C   UNL     1      -2.615   3.608 126.512  0.00  0.00    +0.000 C 
ATOM     36  F   UNL     1      -1.434   3.483 125.882  0.00  0.00    +0.000 F 
ATOM     37  F   UNL     1      -2.982   2.420 127.027  0.00  0.00    +0.000 F 
ATOM     38  F   UNL     1      -3.544   3.947 125.576  0.00  0.00    +0.000 F 
ENDBRANCH  34  35
ENDBRANCH  33  34
ENDBRANCH  26  33
ENDBRANCH  20  21
ENDBRANCH   2  20
TORSDOF 7
ENDMDL
MODEL 9
REMARK VINA RESULT:      -9.4      3.112      8.923
REMARK  Name = CHEMBL25353
REMARK  7 active torsions:
REMARK  status: ('A' for Active; 'I' for Inactive)
REMARK    1  A    between atoms: C_2  and  C_3
REMARK    2  A    between atoms: C_3  and  C_4
REMARK    3  A    between atoms: C_7  and  N_8
REMARK    4  A    between atoms: C_15  and  O_16
REMARK    5  A    between atoms: O_16  and  C_17
REMARK    6  A    between atoms: C_17  and  C_18
REMARK    7  A    between atoms: C_25  and  N_26
REMARK                            x       y       z     vdW  Elec       q    Type
REMARK                         _______ _______ _______ _____ _____    ______ ____
ROOT
ATOM      1  O   UNL     1      -6.129   3.942 131.195  0.00  0.00    +0.000 OA
ATOM      2  C   UNL     1      -6.984   3.283 131.775  0.00  0.00    +0.000 C 
ATOM      3  N   UNL     1      -6.895   1.876 131.914  0.00  0.00    +0.000 N 
ATOM      4  C   UNL     1      -7.968   0.995 131.453  0.00  0.00    +0.000 C 
ATOM      5  C   UNL     1      -8.103  -0.195 132.375  0.00  0.00    +0.000 C 
ATOM      6  C   UNL     1      -6.775  -1.267 132.077  0.00  0.00    +0.000 C 
ATOM      7  C   UNL     1      -5.675  -0.106 132.714  0.00  0.00    +0.000 C 
ATOM      8  C   UNL     1      -5.587   1.217 131.936  0.00  0.00    +0.000 C 
ENDROOT
BRANCH   6   9
ATOM      9  N   UNL     1      -7.123  -2.415 130.696  0.00  0.00    +0.000 N 
ATOM     10  C   UNL     1      -5.854  -1.956 130.188  0.00  0.00    +0.000 C 
ATOM     11  O   UNL     1      -4.710  -1.968 130.745  0.00  0.00    +0.000 OA
ATOM     12  O   UNL     1      -5.908  -1.190 129.125  0.00  0.00    +0.000 OA
ATOM     13  C   UNL     1      -5.792  -2.209 128.218  0.00  0.00    +0.000 C 
ATOM     14  C   UNL     1      -7.240  -2.201 127.987  0.00  0.00    +0.000 A 
ATOM     15  C   UNL     1      -7.580  -1.924 126.597  0.00  0.00    +0.000 A 
ATOM     16  C   UNL     1      -8.620  -2.495 125.933  0.00  0.00    +0.000 A 
ATOM     17  C   UNL     1      -9.057  -3.592 126.632  0.00  0.00    +0.000 A 
ATOM     18  C   UNL     1      -8.709  -3.748 128.195  0.00  0.00    +0.000 A 
ATOM     19  C   UNL     1      -7.962  -2.708 129.083  0.00  0.00    +0.000 A 
ENDBRANCH   6   9
BRANCH   2  20
ATOM     20  C   UNL     1      -8.202   3.891 132.472  0.00  0.00    +0.000 C 
BRANCH  20  21
ATOM     21  C   UNL     1      -9.297   4.611 131.695  0.00  0.00    +0.000 A 
ATOM     22  C   UNL     1      -9.872   5.724 132.324  0.00  0.00    +0.000 A 
ATOM     23  C   UNL     1     -10.987   6.383 131.805  0.00  0.00    +0.000 A 
ATOM     24  C   UNL     1     -11.566   6.013 130.594  0.00  0.00    +0.000 A 
ATOM     25  C   UNL     1     -11.030   4.879 129.963  0.00  0.00    +0.000 A 
ATOM     26  C   UNL     1      -9.901   4.173 130.486  0.00  0.00    +0.000 A 
BRANCH  24  27
ATOM     27  N   UNL     1     -12.537   6.827 130.055  0.00  0.00    +0.000 N 
ATOM     28  C   UNL     1     -13.213   6.649 128.770  0.00  0.00    +0.000 C 
ATOM     29  C   UNL     1     -13.039   7.916 127.912  0.00  0.00    +0.000 C 
ATOM     30  O   UNL     1     -13.462   9.103 128.613  0.00  0.00    +0.000 OA
ATOM     31  C   UNL     1     -12.699   9.256 129.824  0.00  0.00    +0.000 C 
ATOM     32  C   UNL     1     -12.912   8.060 130.767  0.00  0.00    +0.000 C 
ENDBRANCH  24  27
BRANCH  26  33
ATOM     33  O   UNL     1      -9.529   3.106 129.681  0.00  0.00    +0.000 OA
BRANCH  33  34
ATOM     34  C   UNL     1      -8.541   3.340 128.679  0.00  0.00    +0.000 C 
BRANCH  34  35
ATOM     35  C   UNL     1      -7.922   2.140 128.016  0.00  0.00    +0.000 C 
ATOM     36  F   UNL     1      -6.705   1.862 128.514  0.00  0.00    +0.000 F 
ATOM     37  F   UNL     1      -8.712   1.055 128.117  0.00  0.00    +0.000 F 
ATOM     38  F   UNL     1      -7.771   2.408 126.690  0.00  0.00    +0.000 F 
ENDBRANCH  34  35
ENDBRANCH  33  34
ENDBRANCH  26  33
ENDBRANCH  20  21
ENDBRANCH   2  20
TORSDOF 7
ENDMDL
