MODEL 1
REMARK VINA RESULT:      -9.9      0.000      0.000
REMARK  Name = CHEMBL30667
REMARK  6 active torsions:
REMARK  status: ('A' for Active; 'I' for Inactive)
REMARK    1  A    between atoms: C_1  and  C_2
REMARK    2  A    between atoms: N_4  and  C_5
REMARK    3  A    between atoms: C_5  and  C_6
REMARK    4  A    between atoms: C_6  and  C_7
REMARK    5  A    between atoms: C_11  and  C_12
REMARK    6  A    between atoms: C_17  and  N_18
REMARK                            x       y       z     vdW  Elec       q    Type
REMARK                         _______ _______ _______ _____ _____    ______ ____
ROOT
ATOM      1  C   UNL     1      -6.442   3.113 129.079  0.00  0.00    +0.000 C 
ATOM      2  O   UNL     1      -5.638   2.361 129.623  0.00  0.00    +0.000 OA
ATOM      3  N   UNL     1      -6.643   3.111 127.708  0.00  0.00    +0.000 N 
ATOM      4  C   UNL     1      -6.865   1.866 126.973  0.00  0.00    +0.000 C 
ATOM      5  C   UNL     1      -5.833   1.668 125.882  0.00  0.00    +0.000 C 
ATOM      6  C   UNL     1      -5.713   2.919 124.994  0.00  0.00    +0.000 C 
ATOM      7  C   UNL     1      -5.437   4.163 125.840  0.00  0.00    +0.000 C 
ATOM      8  C   UNL     1      -6.462   4.336 126.940  0.00  0.00    +0.000 C 
ENDROOT
BRANCH   6   9
ATOM      9  N   UNL     1      -6.811   3.053 123.977  0.00  0.00    +0.000 N 
ATOM     10  C   UNL     1      -8.167   2.805 124.222  0.00  0.00    +0.000 C 
ATOM     11  O   UNL     1      -8.806   3.041 125.242  0.00  0.00    +0.000 OA
ATOM     12  O   UNL     1      -8.794   2.135 123.223  0.00  0.00    +0.000 OA
ATOM     13  C   UNL     1      -8.843   2.881 122.025  0.00  0.00    +0.000 C 
ATOM     14  C   UNL     1      -7.505   3.454 121.688  0.00  0.00    +0.000 A 
ATOM     15  C   UNL     1      -7.282   3.951 120.400  0.00  0.00    +0.000 A 
ATOM     16  C   UNL     1      -6.055   4.516 120.078  0.00  0.00    +0.000 A 
ATOM     17  C   UNL     1      -5.057   4.602 121.041  0.00  0.00    +0.000 A 
ATOM     18  C   UNL     1      -5.278   4.113 122.327  0.00  0.00    +0.000 A 
ATOM     19  C   UNL     1      -6.500   3.521 122.664  0.00  0.00    +0.000 A 
ENDBRANCH   6   9
BRANCH   1  24
ATOM     20  C   UNL     1     -11.084   6.212 131.377  0.00  0.00    +0.000 A 
ATOM     21  C   UNL     1     -10.905   5.177 130.484  0.00  0.00    +0.000 A 
ATOM     22  C   UNL     1      -9.515   4.907 130.428  0.00  0.00    +0.000 A 
ATOM     23  C   UNL     1      -8.701   4.001 129.716  0.00  0.00    +0.000 A 
ATOM     24  C   UNL     1      -7.307   4.042 129.895  0.00  0.00    +0.000 A 
ATOM     25  C   UNL     1      -6.756   5.001 130.763  0.00  0.00    +0.000 A 
ATOM     26  C   UNL     1      -7.551   5.881 131.516  0.00  0.00    +0.000 A 
ATOM     27  C   UNL     1      -8.924   5.809 131.305  0.00  0.00    +0.000 A 
ATOM     28  O   UNL     1      -9.879   6.598 131.892  0.00  0.00    +0.000 OA
BRANCH  20  29
ATOM     29  C   UNL     1     -12.316   6.926 131.820  0.00  0.00    +0.000 C 
BRANCH  29  30
ATOM     30  C   UNL     1     -12.875   7.816 130.706  0.00  0.00    +0.000 C 
BRANCH  30  34
ATOM     31  C   UNL     1     -11.086   8.284 127.379  0.00  0.00    +0.000 C 
ATOM     32  C   UNL     1     -12.160   7.867 128.353  0.00  0.00    +0.000 C 
ATOM     33  O   UNL     1     -13.184   7.303 127.982  0.00  0.00    +0.000 OA
ATOM     34  N   UNL     1     -11.902   8.166 129.676  0.00  0.00    +0.000 N 
ATOM     35  H   UNL     1     -11.036   8.622 129.930  0.00  0.00    +0.000 HD
ENDBRANCH  30  34
ENDBRANCH  29  30
ENDBRANCH  20  29
ENDBRANCH   1  24
TORSDOF 5
ENDMDL
MODEL 2
REMARK VINA RESULT:      -9.6      1.850      2.605
REMARK  Name = CHEMBL30667
REMARK  6 active torsions:
REMARK  status: ('A' for Active; 'I' for Inactive)
REMARK    1  A    between atoms: C_1  and  C_2
REMARK    2  A    between atoms: N_4  and  C_5
REMARK    3  A    between atoms: C_5  and  C_6
REMARK    4  A    between atoms: C_6  and  C_7
REMARK    5  A    between atoms: C_11  and  C_12
REMARK    6  A    between atoms: C_17  and  N_18
REMARK                            x       y       z     vdW  Elec       q    Type
REMARK                         _______ _______ _______ _____ _____    ______ ____
ROOT
ATOM      1  C   UNL     1      -6.389   3.126 129.077  0.00  0.00    +0.000 C 
ATOM      2  O   UNL     1      -5.400   2.666 129.639  0.00  0.00    +0.000 OA
ATOM      3  N   UNL     1      -6.790   2.698 127.821  0.00  0.00    +0.000 N 
ATOM      4  C   UNL     1      -6.911   1.274 127.505  0.00  0.00    +0.000 C 
ATOM      5  C   UNL     1      -6.035   0.885 126.333  0.00  0.00    +0.000 C 
ATOM      6  C   UNL     1      -6.258   1.825 125.134  0.00  0.00    +0.000 C 
ATOM      7  C   UNL     1      -6.068   3.285 125.545  0.00  0.00    +0.000 C 
ATOM      8  C   UNL     1      -6.931   3.655 126.731  0.00  0.00    +0.000 C 
ENDROOT
BRANCH   6   9
ATOM      9  N   UNL     1      -7.503   1.525 124.347  0.00  0.00    +0.000 N 
ATOM     10  C   UNL     1      -8.473   2.468 123.990  0.00  0.00    +0.000 C 
ATOM     11  O   UNL     1      -8.306   3.639 123.665  0.00  0.00    +0.000 OA
ATOM     12  O   UNL     1      -9.749   2.026 124.124  0.00  0.00    +0.000 OA
ATOM     13  C   UNL     1     -10.039   0.958 123.247  0.00  0.00    +0.000 C 
ATOM     14  C   UNL     1      -8.976  -0.090 123.297  0.00  0.00    +0.000 A 
ATOM     15  C   UNL     1      -9.234  -1.349 122.747  0.00  0.00    +0.000 A 
ATOM     16  C   UNL     1      -8.246  -2.326 122.755  0.00  0.00    +0.000 A 
ATOM     17  C   UNL     1      -6.997  -2.044 123.295  0.00  0.00    +0.000 A 
ATOM     18  C   UNL     1      -6.735  -0.787 123.838  0.00  0.00    +0.000 A 
ATOM     19  C   UNL     1      -7.724   0.202 123.858  0.00  0.00    +0.000 A 
ENDBRANCH   6   9
BRANCH   1  24
ATOM     20  C   UNL     1     -11.087   6.301 131.147  0.00  0.00    +0.000 A 
ATOM     21  C   UNL     1     -10.888   5.107 130.487  0.00  0.00    +0.000 A 
ATOM     22  C   UNL     1      -9.490   4.939 130.336  0.00  0.00    +0.000 A 
ATOM     23  C   UNL     1      -8.658   3.960 129.753  0.00  0.00    +0.000 A 
ATOM     24  C   UNL     1      -7.264   4.148 129.761  0.00  0.00    +0.000 A 
ATOM     25  C   UNL     1      -6.735   5.319 130.331  0.00  0.00    +0.000 A 
ATOM     26  C   UNL     1      -7.540   6.283 130.957  0.00  0.00    +0.000 A 
ATOM     27  C   UNL     1      -8.913   6.060 130.923  0.00  0.00    +0.000 A 
ATOM     28  O   UNL     1      -9.884   6.887 131.426  0.00  0.00    +0.000 OA
BRANCH  20  29
ATOM     29  C   UNL     1     -12.338   7.001 131.557  0.00  0.00    +0.000 C 
BRANCH  29  30
ATOM     30  C   UNL     1     -12.766   8.035 130.513  0.00  0.00    +0.000 C 
BRANCH  30  34
ATOM     31  C   UNL     1     -10.965   8.107 127.161  0.00  0.00    +0.000 C 
ATOM     32  C   UNL     1     -12.046   7.815 128.172  0.00  0.00    +0.000 C 
ATOM     33  O   UNL     1     -13.076   7.225 127.862  0.00  0.00    +0.000 OA
ATOM     34  N   UNL     1     -11.787   8.257 129.454  0.00  0.00    +0.000 N 
ATOM     35  H   UNL     1     -10.916   8.728 129.658  0.00  0.00    +0.000 HD
ENDBRANCH  30  34
ENDBRANCH  29  30
ENDBRANCH  20  29
ENDBRANCH   1  24
TORSDOF 5
ENDMDL
MODEL 3
REMARK VINA RESULT:      -9.3      2.926      4.049
REMARK  Name = CHEMBL30667
REMARK  6 active torsions:
REMARK  status: ('A' for Active; 'I' for Inactive)
REMARK    1  A    between atoms: C_1  and  C_2
REMARK    2  A    between atoms: N_4  and  C_5
REMARK    3  A    between atoms: C_5  and  C_6
REMARK    4  A    between atoms: C_6  and  C_7
REMARK    5  A    between atoms: C_11  and  C_12
REMARK    6  A    between atoms: C_17  and  N_18
REMARK                            x       y       z     vdW  Elec       q    Type
REMARK                         _______ _______ _______ _____ _____    ______ ____
ROOT
ATOM      1  C   UNL     1      -6.987   3.096 128.040  0.00  0.00    +0.000 C 
ATOM      2  O   UNL     1      -5.882   3.609 128.193  0.00  0.00    +0.000 OA
ATOM      3  N   UNL     1      -7.201   2.055 127.151  0.00  0.00    +0.000 N 
ATOM      4  C   UNL     1      -6.329   0.880 127.132  0.00  0.00    +0.000 C 
ATOM      5  C   UNL     1      -5.696   0.674 125.772  0.00  0.00    +0.000 C 
ATOM      6  C   UNL     1      -6.755   0.700 124.655  0.00  0.00    +0.000 C 
ATOM      7  C   UNL     1      -7.588   1.981 124.724  0.00  0.00    +0.000 C 
ATOM      8  C   UNL     1      -8.195   2.186 126.095  0.00  0.00    +0.000 C 
ENDROOT
BRANCH   6   9
ATOM      9  N   UNL     1      -7.534  -0.578 124.523  0.00  0.00    +0.000 N 
ATOM     10  C   UNL     1      -8.928  -0.662 124.430  0.00  0.00    +0.000 C 
ATOM     11  O   UNL     1      -9.695   0.102 123.854  0.00  0.00    +0.000 OA
ATOM     12  O   UNL     1      -9.469  -1.671 125.159  0.00  0.00    +0.000 OA
ATOM     13  C   UNL     1      -9.065  -2.942 124.696  0.00  0.00    +0.000 C 
ATOM     14  C   UNL     1      -7.586  -3.003 124.495  0.00  0.00    +0.000 A 
ATOM     15  C   UNL     1      -6.969  -4.248 124.344  0.00  0.00    +0.000 A 
ATOM     16  C   UNL     1      -5.600  -4.322 124.125  0.00  0.00    +0.000 A 
ATOM     17  C   UNL     1      -4.848  -3.157 124.039  0.00  0.00    +0.000 A 
ATOM     18  C   UNL     1      -5.461  -1.913 124.181  0.00  0.00    +0.000 A 
ATOM     19  C   UNL     1      -6.836  -1.820 124.424  0.00  0.00    +0.000 A 
ENDBRANCH   6   9
BRANCH   1  24
ATOM     20  C   UNL     1     -11.071   6.357 131.060  0.00  0.00    +0.000 A 
ATOM     21  C   UNL     1     -10.014   6.601 130.208  0.00  0.00    +0.000 A 
ATOM     22  C   UNL     1      -9.488   5.344 129.822  0.00  0.00    +0.000 A 
ATOM     23  C   UNL     1      -8.425   4.916 128.999  0.00  0.00    +0.000 A 
ATOM     24  C   UNL     1      -8.167   3.539 128.870  0.00  0.00    +0.000 A 
ATOM     25  C   UNL     1      -8.961   2.624 129.582  0.00  0.00    +0.000 A 
ATOM     26  C   UNL     1     -10.052   3.026 130.370  0.00  0.00    +0.000 A 
ATOM     27  C   UNL     1     -10.270   4.396 130.473  0.00  0.00    +0.000 A 
ATOM     28  O   UNL     1     -11.241   5.010 131.220  0.00  0.00    +0.000 OA
BRANCH  20  29
ATOM     29  C   UNL     1     -11.981   7.287 131.789  0.00  0.00    +0.000 C 
BRANCH  29  30
ATOM     30  C   UNL     1     -13.219   7.624 130.954  0.00  0.00    +0.000 C 
BRANCH  30  34
ATOM     31  C   UNL     1     -13.143   7.161 127.176  0.00  0.00    +0.000 C 
ATOM     32  C   UNL     1     -13.153   7.871 128.507  0.00  0.00    +0.000 C 
ATOM     33  O   UNL     1     -13.114   9.095 128.586  0.00  0.00    +0.000 OA
ATOM     34  N   UNL     1     -13.211   7.047 129.614  0.00  0.00    +0.000 N 
ATOM     35  H   UNL     1     -13.253   6.044 129.493  0.00  0.00    +0.000 HD
ENDBRANCH  30  34
ENDBRANCH  29  30
ENDBRANCH  20  29
ENDBRANCH   1  24
TORSDOF 5
ENDMDL
MODEL 4
REMARK VINA RESULT:      -9.0      4.014      4.573
REMARK  Name = CHEMBL30667
REMARK  6 active torsions:
REMARK  status: ('A' for Active; 'I' for Inactive)
REMARK    1  A    between atoms: C_1  and  C_2
REMARK    2  A    between atoms: N_4  and  C_5
REMARK    3  A    between atoms: C_5  and  C_6
REMARK    4  A    between atoms: C_6  and  C_7
REMARK    5  A    between atoms: C_11  and  C_12
REMARK    6  A    between atoms: C_17  and  N_18
REMARK                            x       y       z     vdW  Elec       q    Type
REMARK                         _______ _______ _______ _____ _____    ______ ____
ROOT
ATOM      1  C   UNL     1      -7.536  -0.850 131.377  0.00  0.00    +0.000 C 
ATOM      2  O   UNL     1      -7.360  -1.792 132.144  0.00  0.00    +0.000 OA
ATOM      3  N   UNL     1      -7.509  -1.005 130.000  0.00  0.00    +0.000 N 
ATOM      4  C   UNL     1      -8.268  -2.067 129.339  0.00  0.00    +0.000 C 
ATOM      5  C   UNL     1      -7.370  -2.972 128.523  0.00  0.00    +0.000 C 
ATOM      6  C   UNL     1      -6.462  -2.159 127.583  0.00  0.00    +0.000 C 
ATOM      7  C   UNL     1      -5.675  -1.106 128.365  0.00  0.00    +0.000 C 
ATOM      8  C   UNL     1      -6.582  -0.223 129.194  0.00  0.00    +0.000 C 
ENDROOT
BRANCH   6   9
ATOM      9  N   UNL     1      -7.152  -1.668 126.342  0.00  0.00    +0.000 N 
ATOM     10  C   UNL     1      -8.265  -0.821 126.324  0.00  0.00    +0.000 C 
ATOM     11  O   UNL     1      -8.516   0.115 127.076  0.00  0.00    +0.000 OA
ATOM     12  O   UNL     1      -9.207  -1.166 125.410  0.00  0.00    +0.000 OA
ATOM     13  C   UNL     1      -8.731  -1.056 124.084  0.00  0.00    +0.000 C 
ATOM     14  C   UNL     1      -7.399  -1.713 123.929  0.00  0.00    +0.000 A 
ATOM     15  C   UNL     1      -6.916  -1.981 122.645  0.00  0.00    +0.000 A 
ATOM     16  C   UNL     1      -5.666  -2.562 122.481  0.00  0.00    +0.000 A 
ATOM     17  C   UNL     1      -4.889  -2.861 123.593  0.00  0.00    +0.000 A 
ATOM     18  C   UNL     1      -5.364  -2.589 124.875  0.00  0.00    +0.000 A 
ATOM     19  C   UNL     1      -6.630  -2.023 125.061  0.00  0.00    +0.000 A 
ENDBRANCH   6   9
BRANCH   1  24
ATOM     20  C   UNL     1      -9.755   4.713 132.124  0.00  0.00    +0.000 A 
ATOM     21  C   UNL     1      -9.971   3.645 131.279  0.00  0.00    +0.000 A 
ATOM     22  C   UNL     1      -9.107   2.602 131.692  0.00  0.00    +0.000 A 
ATOM     23  C   UNL     1      -8.841   1.289 131.247  0.00  0.00    +0.000 A 
ATOM     24  C   UNL     1      -7.858   0.527 131.904  0.00  0.00    +0.000 A 
ATOM     25  C   UNL     1      -7.149   1.099 132.974  0.00  0.00    +0.000 A 
ATOM     26  C   UNL     1      -7.430   2.386 133.462  0.00  0.00    +0.000 A 
ATOM     27  C   UNL     1      -8.406   3.107 132.782  0.00  0.00    +0.000 A 
ATOM     28  O   UNL     1      -8.806   4.389 133.053  0.00  0.00    +0.000 OA
BRANCH  20  29
ATOM     29  C   UNL     1     -10.356   6.077 132.158  0.00  0.00    +0.000 C 
BRANCH  29  30
ATOM     30  C   UNL     1     -11.468   6.222 131.116  0.00  0.00    +0.000 C 
BRANCH  30  34
ATOM     31  C   UNL     1     -10.514   8.338 128.098  0.00  0.00    +0.000 C 
ATOM     32  C   UNL     1     -10.648   7.119 128.977  0.00  0.00    +0.000 C 
ATOM     33  O   UNL     1     -10.224   6.022 128.627  0.00  0.00    +0.000 OA
ATOM     34  N   UNL     1     -11.276   7.332 130.188  0.00  0.00    +0.000 N 
ATOM     35  H   UNL     1     -11.596   8.259 130.432  0.00  0.00    +0.000 HD
ENDBRANCH  30  34
ENDBRANCH  29  30
ENDBRANCH  20  29
ENDBRANCH   1  24
TORSDOF 5
ENDMDL
MODEL 5
REMARK VINA RESULT:      -8.9      5.539      8.410
REMARK  Name = CHEMBL30667
REMARK  6 active torsions:
REMARK  status: ('A' for Active; 'I' for Inactive)
REMARK    1  A    between atoms: C_1  and  C_2
REMARK    2  A    between atoms: N_4  and  C_5
REMARK    3  A    between atoms: C_5  and  C_6
REMARK    4  A    between atoms: C_6  and  C_7
REMARK    5  A    between atoms: C_11  and  C_12
REMARK    6  A    between atoms: C_17  and  N_18
REMARK                            x       y       z     vdW  Elec       q    Type
REMARK                         _______ _______ _______ _____ _____    ______ ____
ROOT
ATOM      1  C   UNL     1      -6.681   4.139 133.312  0.00  0.00    +0.000 C 
ATOM      2  O   UNL     1      -6.226   3.056 132.955  0.00  0.00    +0.000 OA
ATOM      3  N   UNL     1      -7.742   4.745 132.658  0.00  0.00    +0.000 N 
ATOM      4  C   UNL     1      -8.964   4.006 132.342  0.00  0.00    +0.000 C 
ATOM      5  C   UNL     1      -9.256   4.016 130.856  0.00  0.00    +0.000 C 
ATOM      6  C   UNL     1      -9.213   5.447 130.289  0.00  0.00    +0.000 C 
ATOM      7  C   UNL     1      -7.885   6.127 130.628  0.00  0.00    +0.000 C 
ATOM      8  C   UNL     1      -7.594   6.088 132.112  0.00  0.00    +0.000 C 
ENDROOT
BRANCH   6   9
ATOM      9  N   UNL     1     -10.449   6.253 130.573  0.00  0.00    +0.000 N 
ATOM     10  C   UNL     1     -11.017   6.434 131.839  0.00  0.00    +0.000 C 
ATOM     11  O   UNL     1     -10.441   6.563 132.914  0.00  0.00    +0.000 OA
ATOM     12  O   UNL     1     -12.371   6.356 131.852  0.00  0.00    +0.000 OA
ATOM     13  C   UNL     1     -12.974   7.393 131.108  0.00  0.00    +0.000 C 
ATOM     14  C   UNL     1     -12.342   7.535 129.762  0.00  0.00    +0.000 A 
ATOM     15  C   UNL     1     -12.995   8.282 128.777  0.00  0.00    +0.000 A 
ATOM     16  C   UNL     1     -12.407   8.451 127.531  0.00  0.00    +0.000 A 
ATOM     17  C   UNL     1     -11.162   7.891 127.270  0.00  0.00    +0.000 A 
ATOM     18  C   UNL     1     -10.506   7.151 128.251  0.00  0.00    +0.000 A 
ATOM     19  C   UNL     1     -11.092   6.952 129.506  0.00  0.00    +0.000 A 
ENDBRANCH   6   9
BRANCH   1  24
ATOM     20  C   UNL     1      -6.104   6.893 138.652  0.00  0.00    +0.000 A 
ATOM     21  C   UNL     1      -7.094   6.225 137.962  0.00  0.00    +0.000 A 
ATOM     22  C   UNL     1      -6.530   5.785 136.739  0.00  0.00    +0.000 A 
ATOM     23  C   UNL     1      -7.006   5.076 135.617  0.00  0.00    +0.000 A 
ATOM     24  C   UNL     1      -6.141   4.840 134.534  0.00  0.00    +0.000 A 
ATOM     25  C   UNL     1      -4.827   5.337 134.588  0.00  0.00    +0.000 A 
ATOM     26  C   UNL     1      -4.319   6.005 135.713  0.00  0.00    +0.000 A 
ATOM     27  C   UNL     1      -5.209   6.220 136.760  0.00  0.00    +0.000 A 
ATOM     28  O   UNL     1      -4.945   6.886 137.928  0.00  0.00    +0.000 OA
BRANCH  20  29
ATOM     29  C   UNL     1      -6.121   7.583 139.974  0.00  0.00    +0.000 C 
BRANCH  29  30
ATOM     30  C   UNL     1      -6.522   9.053 139.830  0.00  0.00    +0.000 C 
BRANCH  30  34
ATOM     31  C   UNL     1     -10.029   9.806 138.555  0.00  0.00    +0.000 C 
ATOM     32  C   UNL     1      -8.533   9.611 138.528  0.00  0.00    +0.000 C 
ATOM     33  O   UNL     1      -7.884   9.746 137.495  0.00  0.00    +0.000 OA
ATOM     34  N   UNL     1      -7.962   9.274 139.738  0.00  0.00    +0.000 N 
ATOM     35  H   UNL     1      -8.542   9.187 140.562  0.00  0.00    +0.000 HD
ENDBRANCH  30  34
ENDBRANCH  29  30
ENDBRANCH  20  29
ENDBRANCH   1  24
TORSDOF 5
ENDMDL
MODEL 6
REMARK VINA RESULT:      -8.9      4.962      9.072
REMARK  Name = CHEMBL30667
REMARK  6 active torsions:
REMARK  status: ('A' for Active; 'I' for Inactive)
REMARK    1  A    between atoms: C_1  and  C_2
REMARK    2  A    between atoms: N_4  and  C_5
REMARK    3  A    between atoms: C_5  and  C_6
REMARK    4  A    between atoms: C_6  and  C_7
REMARK    5  A    between atoms: C_11  and  C_12
REMARK    6  A    between atoms: C_17  and  N_18
REMARK                            x       y       z     vdW  Elec       q    Type
REMARK                         _______ _______ _______ _____ _____    ______ ____
ROOT
ATOM      1  C   UNL     1      -5.823  -2.215 130.372  0.00  0.00    +0.000 C 
ATOM      2  O   UNL     1      -5.258  -3.069 131.048  0.00  0.00    +0.000 OA
ATOM      3  N   UNL     1      -5.596  -0.860 130.554  0.00  0.00    +0.000 N 
ATOM      4  C   UNL     1      -4.239  -0.319 130.632  0.00  0.00    +0.000 C 
ATOM      5  C   UNL     1      -4.003   0.417 131.933  0.00  0.00    +0.000 C 
ATOM      6  C   UNL     1      -5.115   1.447 132.202  0.00  0.00    +0.000 C 
ATOM      7  C   UNL     1      -6.493   0.787 132.145  0.00  0.00    +0.000 C 
ATOM      8  C   UNL     1      -6.707   0.035 130.849  0.00  0.00    +0.000 C 
ENDROOT
BRANCH   6   9
ATOM      9  N   UNL     1      -4.970   2.720 131.416  0.00  0.00    +0.000 N 
ATOM     10  C   UNL     1      -5.920   3.225 130.523  0.00  0.00    +0.000 C 
ATOM     11  O   UNL     1      -7.143   3.184 130.616  0.00  0.00    +0.000 OA
ATOM     12  O   UNL     1      -5.390   3.727 129.379  0.00  0.00    +0.000 OA
ATOM     13  C   UNL     1      -4.580   4.859 129.617  0.00  0.00    +0.000 C 
ATOM     14  C   UNL     1      -3.615   4.611 130.731  0.00  0.00    +0.000 A 
ATOM     15  C   UNL     1      -2.536   5.483 130.903  0.00  0.00    +0.000 A 
ATOM     16  C   UNL     1      -1.647   5.287 131.952  0.00  0.00    +0.000 A 
ATOM     17  C   UNL     1      -1.841   4.234 132.838  0.00  0.00    +0.000 A 
ATOM     18  C   UNL     1      -2.920   3.368 132.673  0.00  0.00    +0.000 A 
ATOM     19  C   UNL     1      -3.814   3.536 131.609  0.00  0.00    +0.000 A 
ENDBRANCH   6   9
BRANCH   1  24
ATOM     20  C   UNL     1      -8.542  -2.823 125.018  0.00  0.00    +0.000 A 
ATOM     21  C   UNL     1      -7.375  -2.269 125.500  0.00  0.00    +0.000 A 
ATOM     22  C   UNL     1      -7.337  -2.519 126.893  0.00  0.00    +0.000 A 
ATOM     23  C   UNL     1      -6.441  -2.212 127.940  0.00  0.00    +0.000 A 
ATOM     24  C   UNL     1      -6.756  -2.607 129.252  0.00  0.00    +0.000 A 
ATOM     25  C   UNL     1      -7.967  -3.279 129.493  0.00  0.00    +0.000 A 
ATOM     26  C   UNL     1      -8.850  -3.635 128.461  0.00  0.00    +0.000 A 
ATOM     27  C   UNL     1      -8.502  -3.222 127.179  0.00  0.00    +0.000 A 
ATOM     28  O   UNL     1      -9.234  -3.416 126.036  0.00  0.00    +0.000 OA
BRANCH  20  29
ATOM     29  C   UNL     1      -9.122  -2.852 123.644  0.00  0.00    +0.000 C 
BRANCH  29  30
ATOM     30  C   UNL     1      -8.600  -1.692 122.793  0.00  0.00    +0.000 C 
BRANCH  30  34
ATOM     31  C   UNL     1      -9.766   1.766 123.876  0.00  0.00    +0.000 C 
ATOM     32  C   UNL     1      -9.764   0.446 123.145  0.00  0.00    +0.000 C 
ATOM     33  O   UNL     1     -10.649   0.148 122.350  0.00  0.00    +0.000 OA
ATOM     34  N   UNL     1      -8.701  -0.386 123.436  0.00  0.00    +0.000 N 
ATOM     35  H   UNL     1      -7.991  -0.086 124.091  0.00  0.00    +0.000 HD
ENDBRANCH  30  34
ENDBRANCH  29  30
ENDBRANCH  20  29
ENDBRANCH   1  24
TORSDOF 5
ENDMDL
MODEL 7
REMARK VINA RESULT:      -8.8      4.703      9.630
REMARK  Name = CHEMBL30667
REMARK  6 active torsions:
REMARK  status: ('A' for Active; 'I' for Inactive)
REMARK    1  A    between atoms: C_1  and  C_2
REMARK    2  A    between atoms: N_4  and  C_5
REMARK    3  A    between atoms: C_5  and  C_6
REMARK    4  A    between atoms: C_6  and  C_7
REMARK    5  A    between atoms: C_11  and  C_12
REMARK    6  A    between atoms: C_17  and  N_18
REMARK                            x       y       z     vdW  Elec       q    Type
REMARK                         _______ _______ _______ _____ _____    ______ ____
ROOT
ATOM      1  C   UNL     1      -6.936  -2.657 130.417  0.00  0.00    +0.000 C 
ATOM      2  O   UNL     1      -6.558  -3.573 131.140  0.00  0.00    +0.000 OA
ATOM      3  N   UNL     1      -6.842  -1.328 130.800  0.00  0.00    +0.000 N 
ATOM      4  C   UNL     1      -5.599  -0.779 131.343  0.00  0.00    +0.000 C 
ATOM      5  C   UNL     1      -5.802  -0.193 132.724  0.00  0.00    +0.000 C 
ATOM      6  C   UNL     1      -6.993   0.782 132.747  0.00  0.00    +0.000 C 
ATOM      7  C   UNL     1      -8.256   0.111 132.206  0.00  0.00    +0.000 C 
ATOM      8  C   UNL     1      -8.033  -0.490 130.835  0.00  0.00    +0.000 C 
ENDROOT
BRANCH   6   9
ATOM      9  N   UNL     1      -6.682   2.139 132.181  0.00  0.00    +0.000 N 
ATOM     10  C   UNL     1      -6.068   2.371 130.945  0.00  0.00    +0.000 C 
ATOM     11  O   UNL     1      -6.210   1.744 129.900  0.00  0.00    +0.000 OA
ATOM     12  O   UNL     1      -5.137   3.358 130.969  0.00  0.00    +0.000 OA
ATOM     13  C   UNL     1      -5.702   4.619 131.259  0.00  0.00    +0.000 C 
ATOM     14  C   UNL     1      -6.609   4.549 132.444  0.00  0.00    +0.000 A 
ATOM     15  C   UNL     1      -7.008   5.734 133.069  0.00  0.00    +0.000 A 
ATOM     16  C   UNL     1      -7.876   5.689 134.152  0.00  0.00    +0.000 A 
ATOM     17  C   UNL     1      -8.359   4.467 134.603  0.00  0.00    +0.000 A 
ATOM     18  C   UNL     1      -7.968   3.284 133.979  0.00  0.00    +0.000 A 
ATOM     19  C   UNL     1      -7.078   3.308 132.899  0.00  0.00    +0.000 A 
ENDBRANCH   6   9
BRANCH   1  24
ATOM     20  C   UNL     1      -7.873  -2.706 124.455  0.00  0.00    +0.000 A 
ATOM     21  C   UNL     1      -6.930  -2.200 125.324  0.00  0.00    +0.000 A 
ATOM     22  C   UNL     1      -7.308  -2.597 126.630  0.00  0.00    +0.000 A 
ATOM     23  C   UNL     1      -6.785  -2.398 127.925  0.00  0.00    +0.000 A 
ATOM     24  C   UNL     1      -7.468  -2.933 129.032  0.00  0.00    +0.000 A 
ATOM     25  C   UNL     1      -8.669  -3.634 128.822  0.00  0.00    +0.000 A 
ATOM     26  C   UNL     1      -9.182  -3.883 127.539  0.00  0.00    +0.000 A 
ATOM     27  C   UNL     1      -8.477  -3.333 126.473  0.00  0.00    +0.000 A 
ATOM     28  O   UNL     1      -8.818  -3.409 125.148  0.00  0.00    +0.000 OA
BRANCH  20  29
ATOM     29  C   UNL     1      -8.007  -2.593 122.974  0.00  0.00    +0.000 C 
BRANCH  29  30
ATOM     30  C   UNL     1      -9.047  -1.538 122.587  0.00  0.00    +0.000 C 
BRANCH  30  34
ATOM     31  C   UNL     1      -9.597   1.971 123.954  0.00  0.00    +0.000 C 
ATOM     32  C   UNL     1      -9.883   0.688 123.215  0.00  0.00    +0.000 C 
ATOM     33  O   UNL     1     -10.940   0.510 122.618  0.00  0.00    +0.000 OA
ATOM     34  N   UNL     1      -8.877  -0.255 123.261  0.00  0.00    +0.000 N 
ATOM     35  H   UNL     1      -8.019  -0.053 123.758  0.00  0.00    +0.000 HD
ENDBRANCH  30  34
ENDBRANCH  29  30
ENDBRANCH  20  29
ENDBRANCH   1  24
TORSDOF 5
ENDMDL
MODEL 8
REMARK VINA RESULT:      -8.7      4.315      5.479
REMARK  Name = CHEMBL30667
REMARK  6 active torsions:
REMARK  status: ('A' for Active; 'I' for Inactive)
REMARK    1  A    between atoms: C_1  and  C_2
REMARK    2  A    between atoms: N_4  and  C_5
REMARK    3  A    between atoms: C_5  and  C_6
REMARK    4  A    between atoms: C_6  and  C_7
REMARK    5  A    between atoms: C_11  and  C_12
REMARK    6  A    between atoms: C_17  and  N_18
REMARK                            x       y       z     vdW  Elec       q    Type
REMARK                         _______ _______ _______ _____ _____    ______ ____
ROOT
ATOM      1  C   UNL     1      -7.118  -1.908 131.676  0.00  0.00    +0.000 C 
ATOM      2  O   UNL     1      -7.228  -2.993 132.240  0.00  0.00    +0.000 OA
ATOM      3  N   UNL     1      -7.164  -1.786 130.296  0.00  0.00    +0.000 N 
ATOM      4  C   UNL     1      -8.226  -2.417 129.512  0.00  0.00    +0.000 C 
ATOM      5  C   UNL     1      -7.666  -3.368 128.475  0.00  0.00    +0.000 C 
ATOM      6  C   UNL     1      -6.568  -2.693 127.634  0.00  0.00    +0.000 C 
ATOM      7  C   UNL     1      -5.480  -2.102 128.532  0.00  0.00    +0.000 C 
ATOM      8  C   UNL     1      -6.055  -1.172 129.578  0.00  0.00    +0.000 C 
ENDROOT
BRANCH   6   9
ATOM      9  N   UNL     1      -7.094  -1.780 126.562  0.00  0.00    +0.000 N 
ATOM     10  C   UNL     1      -7.938  -0.686 126.782  0.00  0.00    +0.000 C 
ATOM     11  O   UNL     1      -7.931   0.096 127.727  0.00  0.00    +0.000 OA
ATOM     12  O   UNL     1      -8.933  -0.564 125.868  0.00  0.00    +0.000 OA
ATOM     13  C   UNL     1      -8.440  -0.299 124.572  0.00  0.00    +0.000 C 
ATOM     14  C   UNL     1      -7.332  -1.235 124.211  0.00  0.00    +0.000 A 
ATOM     15  C   UNL     1      -6.933  -1.335 122.874  0.00  0.00    +0.000 A 
ATOM     16  C   UNL     1      -5.884  -2.175 122.525  0.00  0.00    +0.000 A 
ATOM     17  C   UNL     1      -5.222  -2.902 123.506  0.00  0.00    +0.000 A 
ATOM     18  C   UNL     1      -5.612  -2.799 124.840  0.00  0.00    +0.000 A 
ATOM     19  C   UNL     1      -6.681  -1.974 125.209  0.00  0.00    +0.000 A 
ENDBRANCH   6   9
BRANCH   1  24
ATOM     20  C   UNL     1      -7.944   3.606 133.988  0.00  0.00    +0.000 A 
ATOM     21  C   UNL     1      -8.630   2.747 133.155  0.00  0.00    +0.000 A 
ATOM     22  C   UNL     1      -7.863   1.561 133.051  0.00  0.00    +0.000 A 
ATOM     23  C   UNL     1      -8.002   0.338 132.361  0.00  0.00    +0.000 A 
ATOM     24  C   UNL     1      -6.990  -0.632 132.471  0.00  0.00    +0.000 A 
ATOM     25  C   UNL     1      -5.853  -0.351 133.250  0.00  0.00    +0.000 A 
ATOM     26  C   UNL     1      -5.717   0.840 133.981  0.00  0.00    +0.000 A 
ATOM     27  C   UNL     1      -6.738   1.774 133.841  0.00  0.00    +0.000 A 
ATOM     28  O   UNL     1      -6.790   3.014 134.420  0.00  0.00    +0.000 OA
BRANCH  20  29
ATOM     29  C   UNL     1      -8.254   4.992 134.442  0.00  0.00    +0.000 C 
BRANCH  29  30
ATOM     30  C   UNL     1      -8.580   5.906 133.258  0.00  0.00    +0.000 C 
BRANCH  30  34
ATOM     31  C   UNL     1     -11.923   6.472 131.527  0.00  0.00    +0.000 C 
ATOM     32  C   UNL     1     -10.428   6.391 131.707  0.00  0.00    +0.000 C 
ATOM     33  O   UNL     1      -9.653   6.638 130.789  0.00  0.00    +0.000 OA
ATOM     34  N   UNL     1     -10.006   6.024 132.970  0.00  0.00    +0.000 N 
ATOM     35  H   UNL     1     -10.687   5.843 133.695  0.00  0.00    +0.000 HD
ENDBRANCH  30  34
ENDBRANCH  29  30
ENDBRANCH  20  29
ENDBRANCH   1  24
TORSDOF 5
ENDMDL
MODEL 9
REMARK VINA RESULT:      -8.6      6.439      9.866
REMARK  Name = CHEMBL30667
REMARK  6 active torsions:
REMARK  status: ('A' for Active; 'I' for Inactive)
REMARK    1  A    between atoms: C_1  and  C_2
REMARK    2  A    between atoms: N_4  and  C_5
REMARK    3  A    between atoms: C_5  and  C_6
REMARK    4  A    between atoms: C_6  and  C_7
REMARK    5  A    between atoms: C_11  and  C_12
REMARK    6  A    between atoms: C_17  and  N_18
REMARK                            x       y       z     vdW  Elec       q    Type
REMARK                         _______ _______ _______ _____ _____    ______ ____
ROOT
ATOM      1  C   UNL     1      -3.864   5.795 132.959  0.00  0.00    +0.000 C 
ATOM      2  O   UNL     1      -3.207   4.846 132.541  0.00  0.00    +0.000 OA
ATOM      3  N   UNL     1      -3.282   7.013 133.275  0.00  0.00    +0.000 N 
ATOM      4  C   UNL     1      -2.359   7.677 132.355  0.00  0.00    +0.000 C 
ATOM      5  C   UNL     1      -1.009   7.924 132.995  0.00  0.00    +0.000 C 
ATOM      6  C   UNL     1      -1.158   8.618 134.361  0.00  0.00    +0.000 C 
ATOM      7  C   UNL     1      -2.102   7.832 135.272  0.00  0.00    +0.000 C 
ATOM      8  C   UNL     1      -3.438   7.573 134.611  0.00  0.00    +0.000 C 
ENDROOT
BRANCH   6   9
ATOM      9  N   UNL     1      -1.421  10.095 134.268  0.00  0.00    +0.000 N 
ATOM     10  C   UNL     1      -2.505  10.756 134.856  0.00  0.00    +0.000 C 
ATOM     11  O   UNL     1      -3.036  10.524 135.938  0.00  0.00    +0.000 OA
ATOM     12  O   UNL     1      -3.074  11.698 134.063  0.00  0.00    +0.000 OA
ATOM     13  C   UNL     1      -2.192  12.767 133.787  0.00  0.00    +0.000 C 
ATOM     14  C   UNL     1      -0.853  12.268 133.351  0.00  0.00    +0.000 A 
ATOM     15  C   UNL     1       0.040  13.154 132.742  0.00  0.00    +0.000 A 
ATOM     16  C   UNL     1       1.301  12.716 132.360  0.00  0.00    +0.000 A 
ATOM     17  C   UNL     1       1.679  11.400 132.599  0.00  0.00    +0.000 A 
ATOM     18  C   UNL     1       0.794  10.516 133.213  0.00  0.00    +0.000 A 
ATOM     19  C   UNL     1      -0.488  10.934 133.586  0.00  0.00    +0.000 A 
ENDBRANCH   6   9
BRANCH   1  24
ATOM     20  C   UNL     1      -9.814   6.249 132.051  0.00  0.00    +0.000 A 
ATOM     21  C   UNL     1      -8.661   6.518 131.343  0.00  0.00    +0.000 A 
ATOM     22  C   UNL     1      -7.569   6.130 132.157  0.00  0.00    +0.000 A 
ATOM     23  C   UNL     1      -6.165   6.155 132.023  0.00  0.00    +0.000 A 
ATOM     24  C   UNL     1      -5.364   5.702 133.087  0.00  0.00    +0.000 A 
ATOM     25  C   UNL     1      -5.984   5.254 134.267  0.00  0.00    +0.000 A 
ATOM     26  C   UNL     1      -7.379   5.178 134.404  0.00  0.00    +0.000 A 
ATOM     27  C   UNL     1      -8.133   5.640 133.330  0.00  0.00    +0.000 A 
ATOM     28  O   UNL     1      -9.500   5.702 133.264  0.00  0.00    +0.000 OA
BRANCH  20  29
ATOM     29  C   UNL     1     -11.249   6.466 131.711  0.00  0.00    +0.000 C 
BRANCH  29  30
ATOM     30  C   UNL     1     -11.430   6.767 130.221  0.00  0.00    +0.000 C 
BRANCH  30  34
ATOM     31  C   UNL     1     -13.365   9.697 128.751  0.00  0.00    +0.000 C 
ATOM     32  C   UNL     1     -12.232   8.725 128.966  0.00  0.00    +0.000 C 
ATOM     33  O   UNL     1     -11.191   8.795 128.320  0.00  0.00    +0.000 OA
ATOM     34  N   UNL     1     -12.455   7.766 129.933  0.00  0.00    +0.000 N 
ATOM     35  H   UNL     1     -13.327   7.760 130.445  0.00  0.00    +0.000 HD
ENDBRANCH  30  34
ENDBRANCH  29  30
ENDBRANCH  20  29
ENDBRANCH   1  24
TORSDOF 5
ENDMDL
