MODEL 1
REMARK VINA RESULT:      -7.5      0.000      0.000
REMARK  Name = CHEMBL1092458
REMARK  8 active torsions:
REMARK  status: ('A' for Active; 'I' for Inactive)
REMARK    1  A    between atoms: C_1  and  C_2
REMARK    2  A    between atoms: C_2  and  N_3
REMARK    3  A    between atoms: N_3  and  C_20
REMARK    4  A    between atoms: C_4  and  C_6
REMARK    5  A    between atoms: C_9  and  C_10
REMARK    6  A    between atoms: C_16  and  C_17
REMARK    7  A    between atoms: C_23  and  O_24
REMARK    8  A    between atoms: O_24  and  C_25
REMARK                            x       y       z     vdW  Elec       q    Type
REMARK                         _______ _______ _______ _____ _____    ______ ____
ROOT
ATOM      1  C   UNL     1      -9.209   3.105 130.954  0.00  0.00    +0.000 A 
ATOM      2  C   UNL     1     -10.534   3.139 130.571  0.00  0.00    +0.000 A 
ATOM      3  N   UNL     1     -11.092   4.238 129.996  0.00  0.00    +0.000 NA
ATOM      4  C   UNL     1     -10.349   5.375 129.986  0.00  0.00    +0.000 A 
ATOM      5  C   UNL     1      -9.079   5.371 130.553  0.00  0.00    +0.000 A 
ATOM      6  N   UNL     1      -8.462   4.243 131.000  0.00  0.00    +0.000 NA
ENDROOT
BRANCH   4   7
ATOM      7  C   UNL     1     -11.007   6.596 129.486  0.00  0.00    +0.000 A 
ATOM      8  C   UNL     1     -10.760   7.080 128.180  0.00  0.00    +0.000 A 
ATOM      9  C   UNL     1     -11.300   8.293 127.737  0.00  0.00    +0.000 A 
ATOM     10  C   UNL     1     -12.117   9.033 128.585  0.00  0.00    +0.000 A 
ATOM     11  C   UNL     1     -12.396   8.555 129.860  0.00  0.00    +0.000 A 
ATOM     12  F   UNL     1     -13.177   9.293 130.661  0.00  0.00    +0.000 F 
ATOM     13  C   UNL     1     -11.861   7.350 130.327  0.00  0.00    +0.000 A 
ATOM     14  C   UNL     1     -12.170   6.903 131.730  0.00  0.00    +0.000 C 
ENDBRANCH   4   7
BRANCH   1  16
ATOM     15  N   UNL     1      -7.771   1.109 130.244  0.00  0.00    +0.000 N 
ATOM     16  C   UNL     1      -8.526   1.810 131.241  0.00  0.00    +0.000 C 
ATOM     17  O   UNL     1      -8.629   1.419 132.399  0.00  0.00    +0.000 OA
BRANCH  15  18
ATOM     18  C   UNL     1      -7.217  -0.190 130.616  0.00  0.00    +0.000 A 
ATOM     19  C   UNL     1      -7.912  -1.382 130.392  0.00  0.00    +0.000 A 
ATOM     20  C   UNL     1      -7.346  -2.619 130.725  0.00  0.00    +0.000 A 
ATOM     21  C   UNL     1      -6.096  -2.660 131.317  0.00  0.00    +0.000 A 
ATOM     22  N   UNL     1      -5.411  -1.531 131.594  0.00  0.00    +0.000 NA
ATOM     23  C   UNL     1      -5.970  -0.341 131.226  0.00  0.00    +0.000 A 
BRANCH  21  24
ATOM     24  O   UNL     1      -5.438  -3.807 131.671  0.00  0.00    +0.000 OA
ATOM     25  C   UNL     1      -5.553  -4.910 130.778  0.00  0.00    +0.000 C 
ENDBRANCH  21  24
ENDBRANCH  15  18
BRANCH  15  27
ATOM     26  C   UNL     1      -8.461   1.282 127.743  0.00  0.00    +0.000 C 
ATOM     27  C   UNL     1      -7.452   1.523 128.841  0.00  0.00    +0.000 C 
ENDBRANCH  15  27
ENDBRANCH   1  16
TORSDOF 5
ENDMDL
MODEL 2
REMARK VINA RESULT:      -7.4      3.841      9.757
REMARK  Name = CHEMBL1092458
REMARK  8 active torsions:
REMARK  status: ('A' for Active; 'I' for Inactive)
REMARK    1  A    between atoms: C_1  and  C_2
REMARK    2  A    between atoms: C_2  and  N_3
REMARK    3  A    between atoms: N_3  and  C_20
REMARK    4  A    between atoms: C_4  and  C_6
REMARK    5  A    between atoms: C_9  and  C_10
REMARK    6  A    between atoms: C_16  and  C_17
REMARK    7  A    between atoms: C_23  and  O_24
REMARK    8  A    between atoms: O_24  and  C_25
REMARK                            x       y       z     vdW  Elec       q    Type
REMARK                         _______ _______ _______ _____ _____    ______ ____
ROOT
ATOM      1  C   UNL     1      -8.569   1.937 131.018  0.00  0.00    +0.000 A 
ATOM      2  C   UNL     1      -7.255   1.680 130.689  0.00  0.00    +0.000 A 
ATOM      3  N   UNL     1      -6.715   0.436 130.784  0.00  0.00    +0.000 NA
ATOM      4  C   UNL     1      -7.463  -0.516 131.400  0.00  0.00    +0.000 A 
ATOM      5  C   UNL     1      -8.719  -0.187 131.900  0.00  0.00    +0.000 A 
ATOM      6  N   UNL     1      -9.320   1.015 131.683  0.00  0.00    +0.000 NA
ENDROOT
BRANCH   4   7
ATOM      7  C   UNL     1      -6.824  -1.826 131.623  0.00  0.00    +0.000 A 
ATOM      8  C   UNL     1      -6.019  -2.064 132.762  0.00  0.00    +0.000 A 
ATOM      9  C   UNL     1      -5.326  -3.270 132.925  0.00  0.00    +0.000 A 
ATOM     10  C   UNL     1      -5.445  -4.269 131.964  0.00  0.00    +0.000 A 
ATOM     11  C   UNL     1      -6.258  -4.062 130.856  0.00  0.00    +0.000 A 
ATOM     12  F   UNL     1      -6.347  -5.036 129.939  0.00  0.00    +0.000 F 
ATOM     13  C   UNL     1      -6.953  -2.863 130.668  0.00  0.00    +0.000 A 
ATOM     14  C   UNL     1      -7.789  -2.684 129.429  0.00  0.00    +0.000 C 
ENDBRANCH   4   7
BRANCH   1  16
ATOM     15  N   UNL     1      -9.257   4.375 131.392  0.00  0.00    +0.000 N 
ATOM     16  C   UNL     1      -9.240   3.195 130.578  0.00  0.00    +0.000 C 
ATOM     17  O   UNL     1      -9.734   3.150 129.456  0.00  0.00    +0.000 OA
BRANCH  15  18
ATOM     18  C   UNL     1     -10.016   5.519 130.894  0.00  0.00    +0.000 A 
ATOM     19  C   UNL     1      -9.431   6.498 130.085  0.00  0.00    +0.000 A 
ATOM     20  C   UNL     1     -10.187   7.568 129.589  0.00  0.00    +0.000 A 
ATOM     21  C   UNL     1     -11.524   7.677 129.934  0.00  0.00    +0.000 A 
ATOM     22  N   UNL     1     -12.115   6.780 130.750  0.00  0.00    +0.000 NA
ATOM     23  C   UNL     1     -11.364   5.727 131.189  0.00  0.00    +0.000 A 
BRANCH  21  24
ATOM     24  O   UNL     1     -12.364   8.667 129.499  0.00  0.00    +0.000 OA
ATOM     25  C   UNL     1     -13.073   8.416 128.291  0.00  0.00    +0.000 C 
ENDBRANCH  21  24
ENDBRANCH  15  18
BRANCH  15  27
ATOM     26  C   UNL     1      -9.123   3.939 133.952  0.00  0.00    +0.000 C 
ATOM     27  C   UNL     1      -8.593   4.618 132.712  0.00  0.00    +0.000 C 
ENDBRANCH  15  27
ENDBRANCH   1  16
TORSDOF 5
ENDMDL
MODEL 3
REMARK VINA RESULT:      -7.1      6.214      7.607
REMARK  Name = CHEMBL1092458
REMARK  8 active torsions:
REMARK  status: ('A' for Active; 'I' for Inactive)
REMARK    1  A    between atoms: C_1  and  C_2
REMARK    2  A    between atoms: C_2  and  N_3
REMARK    3  A    between atoms: N_3  and  C_20
REMARK    4  A    between atoms: C_4  and  C_6
REMARK    5  A    between atoms: C_9  and  C_10
REMARK    6  A    between atoms: C_16  and  C_17
REMARK    7  A    between atoms: C_23  and  O_24
REMARK    8  A    between atoms: O_24  and  C_25
REMARK                            x       y       z     vdW  Elec       q    Type
REMARK                         _______ _______ _______ _____ _____    ______ ____
ROOT
ATOM      1  C   UNL     1      -6.596   1.295 125.030  0.00  0.00    +0.000 A 
ATOM      2  C   UNL     1      -6.904   0.638 123.857  0.00  0.00    +0.000 A 
ATOM      3  N   UNL     1      -7.091   1.301 122.684  0.00  0.00    +0.000 NA
ATOM      4  C   UNL     1      -7.154   2.657 122.745  0.00  0.00    +0.000 A 
ATOM      5  C   UNL     1      -7.032   3.297 123.973  0.00  0.00    +0.000 A 
ATOM      6  N   UNL     1      -6.704   2.650 125.126  0.00  0.00    +0.000 NA
ENDROOT
BRANCH   4   7
ATOM      7  C   UNL     1      -7.491   3.365 121.496  0.00  0.00    +0.000 A 
ATOM      8  C   UNL     1      -8.827   3.442 121.035  0.00  0.00    +0.000 A 
ATOM      9  C   UNL     1      -9.139   4.023 119.800  0.00  0.00    +0.000 A 
ATOM     10  C   UNL     1      -8.124   4.556 119.013  0.00  0.00    +0.000 A 
ATOM     11  C   UNL     1      -6.811   4.517 119.467  0.00  0.00    +0.000 A 
ATOM     12  F   UNL     1      -5.849   5.028 118.685  0.00  0.00    +0.000 F 
ATOM     13  C   UNL     1      -6.474   3.935 120.694  0.00  0.00    +0.000 A 
ATOM     14  C   UNL     1      -5.030   3.890 121.114  0.00  0.00    +0.000 C 
ENDBRANCH   4   7
BRANCH   1  16
ATOM     15  N   UNL     1      -6.829  -0.402 126.933  0.00  0.00    +0.000 N 
ATOM     16  C   UNL     1      -6.048   0.554 126.204  0.00  0.00    +0.000 C 
ATOM     17  O   UNL     1      -4.875   0.799 126.465  0.00  0.00    +0.000 OA
BRANCH  15  18
ATOM     18  C   UNL     1      -6.215  -1.002 128.115  0.00  0.00    +0.000 A 
ATOM     19  C   UNL     1      -5.400  -2.135 128.031  0.00  0.00    +0.000 A 
ATOM     20  C   UNL     1      -4.793  -2.672 129.173  0.00  0.00    +0.000 A 
ATOM     21  C   UNL     1      -5.032  -2.094 130.408  0.00  0.00    +0.000 A 
ATOM     22  N   UNL     1      -5.849  -1.029 130.540  0.00  0.00    +0.000 NA
ATOM     23  C   UNL     1      -6.398  -0.503 129.406  0.00  0.00    +0.000 A 
BRANCH  21  24
ATOM     24  O   UNL     1      -4.484  -2.521 131.588  0.00  0.00    +0.000 OA
ATOM     25  C   UNL     1      -5.261  -3.428 132.361  0.00  0.00    +0.000 C 
ENDBRANCH  21  24
ENDBRANCH  15  18
BRANCH  15  27
ATOM     26  C   UNL     1      -8.412  -2.188 125.901  0.00  0.00    +0.000 C 
ATOM     27  C   UNL     1      -8.215  -0.894 126.656  0.00  0.00    +0.000 C 
ENDBRANCH  15  27
ENDBRANCH   1  16
TORSDOF 5
ENDMDL
MODEL 4
REMARK VINA RESULT:      -7.1      1.551      2.363
REMARK  Name = CHEMBL1092458
REMARK  8 active torsions:
REMARK  status: ('A' for Active; 'I' for Inactive)
REMARK    1  A    between atoms: C_1  and  C_2
REMARK    2  A    between atoms: C_2  and  N_3
REMARK    3  A    between atoms: N_3  and  C_20
REMARK    4  A    between atoms: C_4  and  C_6
REMARK    5  A    between atoms: C_9  and  C_10
REMARK    6  A    between atoms: C_16  and  C_17
REMARK    7  A    between atoms: C_23  and  O_24
REMARK    8  A    between atoms: O_24  and  C_25
REMARK                            x       y       z     vdW  Elec       q    Type
REMARK                         _______ _______ _______ _____ _____    ______ ____
ROOT
ATOM      1  C   UNL     1      -9.065   3.062 130.073  0.00  0.00    +0.000 A 
ATOM      2  C   UNL     1     -10.440   3.035 130.180  0.00  0.00    +0.000 A 
ATOM      3  N   UNL     1     -11.188   4.170 130.170  0.00  0.00    +0.000 NA
ATOM      4  C   UNL     1     -10.521   5.351 130.244  0.00  0.00    +0.000 A 
ATOM      5  C   UNL     1      -9.133   5.351 130.329  0.00  0.00    +0.000 A 
ATOM      6  N   UNL     1      -8.374   4.229 130.197  0.00  0.00    +0.000 NA
ENDROOT
BRANCH   4   7
ATOM      7  C   UNL     1     -11.338   6.572 130.370  0.00  0.00    +0.000 A 
ATOM      8  C   UNL     1     -12.039   6.865 131.563  0.00  0.00    +0.000 A 
ATOM      9  C   UNL     1     -12.897   7.968 131.652  0.00  0.00    +0.000 A 
ATOM     10  C   UNL     1     -13.052   8.810 130.557  0.00  0.00    +0.000 A 
ATOM     11  C   UNL     1     -12.345   8.554 129.388  0.00  0.00    +0.000 A 
ATOM     12  F   UNL     1     -12.520   9.375 128.343  0.00  0.00    +0.000 F 
ATOM     13  C   UNL     1     -11.488   7.454 129.273  0.00  0.00    +0.000 A 
ATOM     14  C   UNL     1     -10.778   7.208 127.970  0.00  0.00    +0.000 C 
ENDBRANCH   4   7
BRANCH   1  16
ATOM     15  N   UNL     1      -7.855   0.902 130.727  0.00  0.00    +0.000 N 
ATOM     16  C   UNL     1      -8.297   1.830 129.727  0.00  0.00    +0.000 C 
ATOM     17  O   UNL     1      -8.113   1.658 128.527  0.00  0.00    +0.000 OA
BRANCH  15  18
ATOM     18  C   UNL     1      -7.040  -0.224 130.278  0.00  0.00    +0.000 A 
ATOM     19  C   UNL     1      -7.581  -1.498 130.085  0.00  0.00    +0.000 A 
ATOM     20  C   UNL     1      -6.787  -2.555 129.620  0.00  0.00    +0.000 A 
ATOM     21  C   UNL     1      -5.439  -2.342 129.382  0.00  0.00    +0.000 A 
ATOM     22  N   UNL     1      -4.868  -1.140 129.601  0.00  0.00    +0.000 NA
ATOM     23  C   UNL     1      -5.672  -0.119 130.019  0.00  0.00    +0.000 A 
BRANCH  21  24
ATOM     24  O   UNL     1      -4.571  -3.291 128.914  0.00  0.00    +0.000 OA
ATOM     25  C   UNL     1      -3.432  -3.567 129.721  0.00  0.00    +0.000 C 
ENDBRANCH  21  24
ENDBRANCH  15  18
BRANCH  15  27
ATOM     26  C   UNL     1      -7.261   1.770 133.105  0.00  0.00    +0.000 C 
ATOM     27  C   UNL     1      -8.114   0.911 132.201  0.00  0.00    +0.000 C 
ENDBRANCH  15  27
ENDBRANCH   1  16
TORSDOF 5
ENDMDL
MODEL 5
REMARK VINA RESULT:      -7.1      3.848      9.602
REMARK  Name = CHEMBL1092458
REMARK  8 active torsions:
REMARK  status: ('A' for Active; 'I' for Inactive)
REMARK    1  A    between atoms: C_1  and  C_2
REMARK    2  A    between atoms: C_2  and  N_3
REMARK    3  A    between atoms: N_3  and  C_20
REMARK    4  A    between atoms: C_4  and  C_6
REMARK    5  A    between atoms: C_9  and  C_10
REMARK    6  A    between atoms: C_16  and  C_17
REMARK    7  A    between atoms: C_23  and  O_24
REMARK    8  A    between atoms: O_24  and  C_25
REMARK                            x       y       z     vdW  Elec       q    Type
REMARK                         _______ _______ _______ _____ _____    ______ ____
ROOT
ATOM      1  C   UNL     1      -9.747   2.836 130.910  0.00  0.00    +0.000 A 
ATOM      2  C   UNL     1      -9.780   2.370 132.207  0.00  0.00    +0.000 A 
ATOM      3  N   UNL     1      -8.875   1.470 132.676  0.00  0.00    +0.000 NA
ATOM      4  C   UNL     1      -8.046   0.896 131.765  0.00  0.00    +0.000 A 
ATOM      5  C   UNL     1      -8.156   1.241 130.422  0.00  0.00    +0.000 A 
ATOM      6  N   UNL     1      -8.961   2.241 129.969  0.00  0.00    +0.000 NA
ENDROOT
BRANCH   4   7
ATOM      7  C   UNL     1      -7.159  -0.176 132.253  0.00  0.00    +0.000 A 
ATOM      8  C   UNL     1      -7.632  -1.499 132.420  0.00  0.00    +0.000 A 
ATOM      9  C   UNL     1      -6.824  -2.496 132.980  0.00  0.00    +0.000 A 
ATOM     10  C   UNL     1      -5.522  -2.194 133.362  0.00  0.00    +0.000 A 
ATOM     11  C   UNL     1      -5.033  -0.907 133.175  0.00  0.00    +0.000 A 
ATOM     12  F   UNL     1      -3.777  -0.639 133.562  0.00  0.00    +0.000 F 
ATOM     13  C   UNL     1      -5.823   0.107 132.625  0.00  0.00    +0.000 A 
ATOM     14  C   UNL     1      -5.249   1.491 132.481  0.00  0.00    +0.000 C 
ENDBRANCH   4   7
BRANCH   1  16
ATOM     15  N   UNL     1      -9.979   5.381 130.741  0.00  0.00    +0.000 N 
ATOM     16  C   UNL     1     -10.498   4.064 130.515  0.00  0.00    +0.000 C 
ATOM     17  O   UNL     1     -11.568   3.854 129.952  0.00  0.00    +0.000 OA
BRANCH  15  18
ATOM     18  C   UNL     1     -10.840   6.507 130.391  0.00  0.00    +0.000 A 
ATOM     19  C   UNL     1     -11.986   6.819 131.128  0.00  0.00    +0.000 A 
ATOM     20  C   UNL     1     -12.778   7.926 130.794  0.00  0.00    +0.000 A 
ATOM     21  C   UNL     1     -12.439   8.701 129.698  0.00  0.00    +0.000 A 
ATOM     22  N   UNL     1     -11.369   8.407 128.932  0.00  0.00    +0.000 NA
ATOM     23  C   UNL     1     -10.594   7.345 129.301  0.00  0.00    +0.000 A 
BRANCH  21  24
ATOM     24  O   UNL     1     -13.126   9.812 129.286  0.00  0.00    +0.000 OA
ATOM     25  C   UNL     1     -13.392  10.800 130.276  0.00  0.00    +0.000 C 
ENDBRANCH  21  24
ENDBRANCH  15  18
BRANCH  15  27
ATOM     26  C   UNL     1      -8.482   5.974 132.783  0.00  0.00    +0.000 C 
ATOM     27  C   UNL     1      -8.648   5.786 131.294  0.00  0.00    +0.000 C 
ENDBRANCH  15  27
ENDBRANCH   1  16
TORSDOF 5
ENDMDL
MODEL 6
REMARK VINA RESULT:      -7.1      6.775      9.252
REMARK  Name = CHEMBL1092458
REMARK  8 active torsions:
REMARK  status: ('A' for Active; 'I' for Inactive)
REMARK    1  A    between atoms: C_1  and  C_2
REMARK    2  A    between atoms: C_2  and  N_3
REMARK    3  A    between atoms: N_3  and  C_20
REMARK    4  A    between atoms: C_4  and  C_6
REMARK    5  A    between atoms: C_9  and  C_10
REMARK    6  A    between atoms: C_16  and  C_17
REMARK    7  A    between atoms: C_23  and  O_24
REMARK    8  A    between atoms: O_24  and  C_25
REMARK                            x       y       z     vdW  Elec       q    Type
REMARK                         _______ _______ _______ _____ _____    ______ ____
ROOT
ATOM      1  C   UNL     1      -5.880   3.064 126.769  0.00  0.00    +0.000 A 
ATOM      2  C   UNL     1      -6.750   2.119 127.272  0.00  0.00    +0.000 A 
ATOM      3  N   UNL     1      -7.176   1.062 126.532  0.00  0.00    +0.000 NA
ATOM      4  C   UNL     1      -6.867   1.069 125.209  0.00  0.00    +0.000 A 
ATOM      5  C   UNL     1      -6.147   2.133 124.678  0.00  0.00    +0.000 A 
ATOM      6  N   UNL     1      -5.598   3.120 125.437  0.00  0.00    +0.000 NA
ENDROOT
BRANCH   4   7
ATOM      7  C   UNL     1      -7.445  -0.008 124.384  0.00  0.00    +0.000 A 
ATOM      8  C   UNL     1      -8.641   0.190 123.654  0.00  0.00    +0.000 A 
ATOM      9  C   UNL     1      -9.248  -0.859 122.953  0.00  0.00    +0.000 A 
ATOM     10  C   UNL     1      -8.659  -2.118 122.950  0.00  0.00    +0.000 A 
ATOM     11  C   UNL     1      -7.467  -2.320 123.635  0.00  0.00    +0.000 A 
ATOM     12  F   UNL     1      -6.925  -3.546 123.626  0.00  0.00    +0.000 F 
ATOM     13  C   UNL     1      -6.846  -1.290 124.349  0.00  0.00    +0.000 A 
ATOM     14  C   UNL     1      -5.575  -1.579 125.102  0.00  0.00    +0.000 C 
ENDBRANCH   4   7
BRANCH   1  16
ATOM     15  N   UNL     1      -3.780   3.783 128.045  0.00  0.00    +0.000 N 
ATOM     16  C   UNL     1      -5.149   3.996 127.677  0.00  0.00    +0.000 C 
ATOM     17  O   UNL     1      -5.797   4.970 128.045  0.00  0.00    +0.000 OA
BRANCH  15  18
ATOM     18  C   UNL     1      -3.194   4.714 129.006  0.00  0.00    +0.000 A 
ATOM     19  C   UNL     1      -2.483   5.846 128.600  0.00  0.00    +0.000 A 
ATOM     20  C   UNL     1      -1.961   6.745 129.539  0.00  0.00    +0.000 A 
ATOM     21  C   UNL     1      -2.122   6.489 130.890  0.00  0.00    +0.000 A 
ATOM     22  N   UNL     1      -2.761   5.384 131.326  0.00  0.00    +0.000 NA
ATOM     23  C   UNL     1      -3.291   4.544 130.388  0.00  0.00    +0.000 A 
BRANCH  21  24
ATOM     24  O   UNL     1      -1.670   7.300 131.897  0.00  0.00    +0.000 OA
ATOM     25  C   UNL     1      -0.460   6.909 132.536  0.00  0.00    +0.000 C 
ENDBRANCH  21  24
ENDBRANCH  15  18
BRANCH  15  27
ATOM     26  C   UNL     1      -1.793   3.056 126.533  0.00  0.00    +0.000 C 
ATOM     27  C   UNL     1      -2.833   2.722 127.577  0.00  0.00    +0.000 C 
ENDBRANCH  15  27
ENDBRANCH   1  16
TORSDOF 5
ENDMDL
MODEL 7
REMARK VINA RESULT:      -7.0      6.765      8.844
REMARK  Name = CHEMBL1092458
REMARK  8 active torsions:
REMARK  status: ('A' for Active; 'I' for Inactive)
REMARK    1  A    between atoms: C_1  and  C_2
REMARK    2  A    between atoms: C_2  and  N_3
REMARK    3  A    between atoms: N_3  and  C_20
REMARK    4  A    between atoms: C_4  and  C_6
REMARK    5  A    between atoms: C_9  and  C_10
REMARK    6  A    between atoms: C_16  and  C_17
REMARK    7  A    between atoms: C_23  and  O_24
REMARK    8  A    between atoms: O_24  and  C_25
REMARK                            x       y       z     vdW  Elec       q    Type
REMARK                         _______ _______ _______ _____ _____    ______ ____
ROOT
ATOM      1  C   UNL     1      -4.529   4.520 127.220  0.00  0.00    +0.000 A 
ATOM      2  C   UNL     1      -4.559   3.270 126.637  0.00  0.00    +0.000 A 
ATOM      3  N   UNL     1      -5.132   3.053 125.423  0.00  0.00    +0.000 NA
ATOM      4  C   UNL     1      -5.847   4.075 124.885  0.00  0.00    +0.000 A 
ATOM      5  C   UNL     1      -5.965   5.273 125.582  0.00  0.00    +0.000 A 
ATOM      6  N   UNL     1      -5.279   5.544 126.727  0.00  0.00    +0.000 NA
ENDROOT
BRANCH   4   7
ATOM      7  C   UNL     1      -6.578   3.793 123.636  0.00  0.00    +0.000 A 
ATOM      8  C   UNL     1      -7.878   3.235 123.657  0.00  0.00    +0.000 A 
ATOM      9  C   UNL     1      -8.533   2.870 122.475  0.00  0.00    +0.000 A 
ATOM     10  C   UNL     1      -7.911   3.077 121.250  0.00  0.00    +0.000 A 
ATOM     11  C   UNL     1      -6.647   3.654 121.211  0.00  0.00    +0.000 A 
ATOM     12  F   UNL     1      -6.064   3.833 120.016  0.00  0.00    +0.000 F 
ATOM     13  C   UNL     1      -5.969   4.020 122.378  0.00  0.00    +0.000 A 
ATOM     14  C   UNL     1      -4.587   4.607 122.273  0.00  0.00    +0.000 C 
ENDBRANCH   4   7
BRANCH   1  16
ATOM     15  N   UNL     1      -4.074   4.976 129.698  0.00  0.00    +0.000 N 
ATOM     16  C   UNL     1      -3.604   4.815 128.354  0.00  0.00    +0.000 C 
ATOM     17  O   UNL     1      -2.417   4.869 128.050  0.00  0.00    +0.000 OA
BRANCH  15  18
ATOM     18  C   UNL     1      -3.088   5.347 130.710  0.00  0.00    +0.000 A 
ATOM     19  C   UNL     1      -2.556   4.411 131.602  0.00  0.00    +0.000 A 
ATOM     20  C   UNL     1      -1.586   4.783 132.541  0.00  0.00    +0.000 A 
ATOM     21  C   UNL     1      -1.173   6.103 132.610  0.00  0.00    +0.000 A 
ATOM     22  N   UNL     1      -1.695   7.046 131.800  0.00  0.00    +0.000 NA
ATOM     23  C   UNL     1      -2.613   6.650 130.870  0.00  0.00    +0.000 A 
BRANCH  21  24
ATOM     24  O   UNL     1      -0.223   6.579 133.474  0.00  0.00    +0.000 OA
ATOM     25  C   UNL     1       0.113   7.957 133.356  0.00  0.00    +0.000 C 
ENDBRANCH  21  24
ENDBRANCH  15  18
BRANCH  15  27
ATOM     26  C   UNL     1      -6.219   6.022 130.731  0.00  0.00    +0.000 C 
ATOM     27  C   UNL     1      -5.462   4.813 130.237  0.00  0.00    +0.000 C 
ENDBRANCH  15  27
ENDBRANCH   1  16
TORSDOF 5
ENDMDL
MODEL 8
REMARK VINA RESULT:      -7.0      7.029      9.478
REMARK  Name = CHEMBL1092458
REMARK  8 active torsions:
REMARK  status: ('A' for Active; 'I' for Inactive)
REMARK    1  A    between atoms: C_1  and  C_2
REMARK    2  A    between atoms: C_2  and  N_3
REMARK    3  A    between atoms: N_3  and  C_20
REMARK    4  A    between atoms: C_4  and  C_6
REMARK    5  A    between atoms: C_9  and  C_10
REMARK    6  A    between atoms: C_16  and  C_17
REMARK    7  A    between atoms: C_23  and  O_24
REMARK    8  A    between atoms: O_24  and  C_25
REMARK                            x       y       z     vdW  Elec       q    Type
REMARK                         _______ _______ _______ _____ _____    ______ ____
ROOT
ATOM      1  C   UNL     1      -3.646   5.234 127.840  0.00  0.00    +0.000 A 
ATOM      2  C   UNL     1      -3.059   4.239 127.086  0.00  0.00    +0.000 A 
ATOM      3  N   UNL     1      -3.602   3.800 125.920  0.00  0.00    +0.000 NA
ATOM      4  C   UNL     1      -4.850   4.240 125.615  0.00  0.00    +0.000 A 
ATOM      5  C   UNL     1      -5.508   5.100 126.488  0.00  0.00    +0.000 A 
ATOM      6  N   UNL     1      -4.917   5.653 127.583  0.00  0.00    +0.000 NA
ENDROOT
BRANCH   4   7
ATOM      7  C   UNL     1      -5.490   3.658 124.420  0.00  0.00    +0.000 A 
ATOM      8  C   UNL     1      -5.384   4.282 123.155  0.00  0.00    +0.000 A 
ATOM      9  C   UNL     1      -6.073   3.790 122.040  0.00  0.00    +0.000 A 
ATOM     10  C   UNL     1      -6.863   2.652 122.166  0.00  0.00    +0.000 A 
ATOM     11  C   UNL     1      -6.951   2.010 123.394  0.00  0.00    +0.000 A 
ATOM     12  F   UNL     1      -7.728   0.921 123.492  0.00  0.00    +0.000 F 
ATOM     13  C   UNL     1      -6.278   2.487 124.524  0.00  0.00    +0.000 A 
ATOM     14  C   UNL     1      -6.442   1.769 125.836  0.00  0.00    +0.000 C 
ENDBRANCH   4   7
BRANCH   1  16
ATOM     15  N   UNL     1      -3.154   5.761 130.297  0.00  0.00    +0.000 N 
ATOM     16  C   UNL     1      -2.878   5.947 128.903  0.00  0.00    +0.000 C 
ATOM     17  O   UNL     1      -1.975   6.667 128.490  0.00  0.00    +0.000 OA
BRANCH  15  18
ATOM     18  C   UNL     1      -2.394   6.575 131.242  0.00  0.00    +0.000 A 
ATOM     19  C   UNL     1      -1.151   6.170 131.736  0.00  0.00    +0.000 A 
ATOM     20  C   UNL     1      -0.425   6.984 132.614  0.00  0.00    +0.000 A 
ATOM     21  C   UNL     1      -0.962   8.192 133.026  0.00  0.00    +0.000 A 
ATOM     22  N   UNL     1      -2.178   8.599 132.610  0.00  0.00    +0.000 NA
ATOM     23  C   UNL     1      -2.849   7.803 131.726  0.00  0.00    +0.000 A 
BRANCH  21  24
ATOM     24  O   UNL     1      -0.339   9.076 133.867  0.00  0.00    +0.000 OA
ATOM     25  C   UNL     1      -0.974  10.336 134.050  0.00  0.00    +0.000 C 
ENDBRANCH  21  24
ENDBRANCH  15  18
BRANCH  15  27
ATOM     26  C   UNL     1      -3.677   3.446 131.362  0.00  0.00    +0.000 C 
ATOM     27  C   UNL     1      -4.127   4.828 130.948  0.00  0.00    +0.000 C 
ENDBRANCH  15  27
ENDBRANCH   1  16
TORSDOF 5
ENDMDL
MODEL 9
REMARK VINA RESULT:      -6.8      6.393      9.167
REMARK  Name = CHEMBL1092458
REMARK  8 active torsions:
REMARK  status: ('A' for Active; 'I' for Inactive)
REMARK    1  A    between atoms: C_1  and  C_2
REMARK    2  A    between atoms: C_2  and  N_3
REMARK    3  A    between atoms: N_3  and  C_20
REMARK    4  A    between atoms: C_4  and  C_6
REMARK    5  A    between atoms: C_9  and  C_10
REMARK    6  A    between atoms: C_16  and  C_17
REMARK    7  A    between atoms: C_23  and  O_24
REMARK    8  A    between atoms: O_24  and  C_25
REMARK                            x       y       z     vdW  Elec       q    Type
REMARK                         _______ _______ _______ _____ _____    ______ ____
ROOT
ATOM      1  C   UNL     1      -6.024   2.111 127.393  0.00  0.00    +0.000 A 
ATOM      2  C   UNL     1      -7.177   2.321 126.665  0.00  0.00    +0.000 A 
ATOM      3  N   UNL     1      -7.881   1.296 126.115  0.00  0.00    +0.000 NA
ATOM      4  C   UNL     1      -7.305   0.066 126.141  0.00  0.00    +0.000 A 
ATOM      5  C   UNL     1      -6.048  -0.092 126.714  0.00  0.00    +0.000 A 
ATOM      6  N   UNL     1      -5.403   0.899 127.390  0.00  0.00    +0.000 NA
ENDROOT
BRANCH   4   7
ATOM      7  C   UNL     1      -8.008  -1.015 125.425  0.00  0.00    +0.000 A 
ATOM      8  C   UNL     1      -8.811  -1.951 126.118  0.00  0.00    +0.000 A 
ATOM      9  C   UNL     1      -9.396  -3.039 125.458  0.00  0.00    +0.000 A 
ATOM     10  C   UNL     1      -9.208  -3.196 124.089  0.00  0.00    +0.000 A 
ATOM     11  C   UNL     1      -8.448  -2.266 123.389  0.00  0.00    +0.000 A 
ATOM     12  F   UNL     1      -8.273  -2.447 122.072  0.00  0.00    +0.000 F 
ATOM     13  C   UNL     1      -7.848  -1.177 124.028  0.00  0.00    +0.000 A 
ATOM     14  C   UNL     1      -7.007  -0.223 123.223  0.00  0.00    +0.000 C 
ENDBRANCH   4   7
BRANCH   1  16
ATOM     15  N   UNL     1      -4.258   3.874 127.964  0.00  0.00    +0.000 N 
ATOM     16  C   UNL     1      -5.470   3.177 128.278  0.00  0.00    +0.000 C 
ATOM     17  O   UNL     1      -6.152   3.432 129.266  0.00  0.00    +0.000 OA
BRANCH  15  18
ATOM     18  C   UNL     1      -3.768   4.837 128.947  0.00  0.00    +0.000 A 
ATOM     19  C   UNL     1      -3.115   4.434 130.116  0.00  0.00    +0.000 A 
ATOM     20  C   UNL     1      -2.622   5.377 131.027  0.00  0.00    +0.000 A 
ATOM     21  C   UNL     1      -2.815   6.726 130.784  0.00  0.00    +0.000 A 
ATOM     22  N   UNL     1      -3.481   7.156 129.693  0.00  0.00    +0.000 NA
ATOM     23  C   UNL     1      -3.919   6.217 128.803  0.00  0.00    +0.000 A 
BRANCH  21  24
ATOM     24  O   UNL     1      -2.367   7.736 131.593  0.00  0.00    +0.000 OA
ATOM     25  C   UNL     1      -2.570   7.571 132.992  0.00  0.00    +0.000 C 
ENDBRANCH  21  24
ENDBRANCH  15  18
BRANCH  15  27
ATOM     26  C   UNL     1      -2.022   3.146 126.853  0.00  0.00    +0.000 C 
ATOM     27  C   UNL     1      -3.396   3.764 126.745  0.00  0.00    +0.000 C 
ENDBRANCH  15  27
ENDBRANCH   1  16
TORSDOF 5
ENDMDL
