MODEL 1
REMARK VINA RESULT:      -9.2      0.000      0.000
REMARK  Name = CHEMBL4204210
REMARK  9 active torsions:
REMARK  status: ('A' for Active; 'I' for Inactive)
REMARK    1  A    between atoms: C_1  and  C_2
REMARK    2  A    between atoms: C_4  and  C_5
REMARK    3  A    between atoms: N_12  and  C_13
REMARK    4  A    between atoms: C_24  and  C_25
REMARK    5  A    between atoms: C_25  and  N_26
REMARK    6  A    between atoms: C_33  and  C_34
REMARK    7  A    between atoms: C_34  and  N_36
REMARK    8  A    between atoms: N_36  and  C_37
REMARK    9  A    between atoms: N_36  and  C_38
REMARK                            x       y       z     vdW  Elec       q    Type
REMARK                         _______ _______ _______ _____ _____    ______ ____
ROOT
ATOM      1  C   UNL     1      -8.231  -0.228 132.230  0.00  0.00    +0.000 C 
ATOM      2  C   UNL     1      -8.229   0.311 130.830  0.00  0.00    +0.000 A 
ATOM      3  C   UNL     1      -7.793  -0.575 129.815  0.00  0.00    +0.000 A 
ATOM      4  C   UNL     1      -7.721  -0.188 128.465  0.00  0.00    +0.000 A 
ATOM      5  C   UNL     1      -8.169   1.080 128.141  0.00  0.00    +0.000 A 
ATOM      6  C   UNL     1      -8.585   1.979 129.133  0.00  0.00    +0.000 A 
ATOM      7  C   UNL     1      -8.606   1.635 130.505  0.00  0.00    +0.000 A 
ENDROOT
BRANCH   4   8
ATOM      8  C   UNL     1      -7.280  -1.174 127.425  0.00  0.00    +0.000 C 
ATOM      9  O   UNL     1      -7.255  -2.347 127.804  0.00  0.00    +0.000 OA
ATOM     10  N   UNL     1      -7.099  -0.735 126.084  0.00  0.00    +0.000 N 
ATOM     11  C   UNL     1      -6.037   0.263 125.723  0.00  0.00    +0.000 C 
ATOM     12  C   UNL     1      -6.539   1.432 124.926  0.00  0.00    +0.000 A 
ATOM     13  C   UNL     1      -6.188   2.817 124.942  0.00  0.00    +0.000 A 
ATOM     14  N   UNL     1      -6.854   3.550 124.034  0.00  0.00    +0.000 NA
ATOM     15  N   UNL     1      -7.630   2.643 123.417  0.00  0.00    +0.000 N 
ATOM     16  C   UNL     1      -8.526   3.003 122.337  0.00  0.00    +0.000 C 
ATOM     17  C   UNL     1      -7.485   1.380 123.935  0.00  0.00    +0.000 A 
ATOM     18  N   UNL     1      -8.213   0.372 123.447  0.00  0.00    +0.000 N 
ATOM     19  C   UNL     1      -8.266  -0.967 123.860  0.00  0.00    +0.000 A 
ATOM     20  C   UNL     1      -9.060  -1.779 123.008  0.00  0.00    +0.000 A 
ATOM     21  C   UNL     1      -9.242  -3.134 123.229  0.00  0.00    +0.000 A 
ATOM     22  C   UNL     1      -8.606  -3.715 124.304  0.00  0.00    +0.000 A 
ATOM     23  C   UNL     1      -7.843  -2.928 125.174  0.00  0.00    +0.000 A 
ATOM     24  C   UNL     1      -7.677  -1.536 125.012  0.00  0.00    +0.000 A 
ATOM     25  H   UNL     1      -8.801   0.541 122.640  0.00  0.00    +0.000 HD
ENDBRANCH   4   8
BRANCH   7  26
ATOM     26  C   UNL     1      -9.057   2.733 131.488  0.00  0.00    +0.000 C 
BRANCH  26  27
ATOM     27  N   UNL     1      -8.210   3.923 131.600  0.00  0.00    +0.000 N 
ATOM     28  C   UNL     1      -6.912   3.932 132.014  0.00  0.00    +0.000 C 
ATOM     29  O   UNL     1      -6.361   2.925 132.460  0.00  0.00    +0.000 OA
ATOM     30  N   UNL     1      -6.263   5.139 131.740  0.00  0.00    +0.000 N 
ATOM     31  C   UNL     1      -6.811   6.498 131.728  0.00  0.00    +0.000 C 
ATOM     32  C   UNL     1      -5.911   7.229 130.751  0.00  0.00    +0.000 C 
ATOM     33  C   UNL     1      -4.539   6.649 131.070  0.00  0.00    +0.000 C 
ATOM     34  C   UNL     1      -4.798   5.215 131.628  0.00  0.00    +0.000 C 
ATOM     35  H   UNL     1      -8.236   4.567 130.849  0.00  0.00    +0.000 HD
BRANCH  34  36
ATOM     36  C   UNL     1      -3.995   5.023 132.964  0.00  0.00    +0.000 C 
ATOM     37  S   UNL     1      -4.471   5.862 134.369  0.00  0.00    +0.000 S 
BRANCH  36  38
ATOM     38  N   UNL     1      -2.841   4.214 132.925  0.00  0.00    +0.000 N 
ATOM     39  C   UNL     1      -1.487   4.692 132.629  0.00  0.00    +0.000 C 
ATOM     40  C   UNL     1      -2.903   2.784 133.239  0.00  0.00    +0.000 C 
ENDBRANCH  36  38
ENDBRANCH  34  36
ENDBRANCH  26  27
ENDBRANCH   7  26
TORSDOF 5
ENDMDL
MODEL 2
REMARK VINA RESULT:      -9.0      2.527      5.016
REMARK  Name = CHEMBL4204210
REMARK  9 active torsions:
REMARK  status: ('A' for Active; 'I' for Inactive)
REMARK    1  A    between atoms: C_1  and  C_2
REMARK    2  A    between atoms: C_4  and  C_5
REMARK    3  A    between atoms: N_12  and  C_13
REMARK    4  A    between atoms: C_24  and  C_25
REMARK    5  A    between atoms: C_25  and  N_26
REMARK    6  A    between atoms: C_33  and  C_34
REMARK    7  A    between atoms: C_34  and  N_36
REMARK    8  A    between atoms: N_36  and  C_37
REMARK    9  A    between atoms: N_36  and  C_38
REMARK                            x       y       z     vdW  Elec       q    Type
REMARK                         _______ _______ _______ _____ _____    ______ ____
ROOT
ATOM      1  C   UNL     1      -2.364   3.032 127.318  0.00  0.00    +0.000 C 
ATOM      2  C   UNL     1      -3.730   3.436 126.848  0.00  0.00    +0.000 A 
ATOM      3  C   UNL     1      -4.474   2.452 126.154  0.00  0.00    +0.000 A 
ATOM      4  C   UNL     1      -5.758   2.708 125.641  0.00  0.00    +0.000 A 
ATOM      5  C   UNL     1      -6.315   3.947 125.906  0.00  0.00    +0.000 A 
ATOM      6  C   UNL     1      -5.587   4.942 126.573  0.00  0.00    +0.000 A 
ATOM      7  C   UNL     1      -4.269   4.729 127.043  0.00  0.00    +0.000 A 
ENDROOT
BRANCH   4   8
ATOM      8  C   UNL     1      -6.516   1.621 124.938  0.00  0.00    +0.000 C 
ATOM      9  O   UNL     1      -6.823   1.877 123.772  0.00  0.00    +0.000 OA
ATOM     10  N   UNL     1      -6.668   0.358 125.574  0.00  0.00    +0.000 N 
ATOM     11  C   UNL     1      -7.450   0.210 126.846  0.00  0.00    +0.000 C 
ATOM     12  C   UNL     1      -6.715  -0.508 127.940  0.00  0.00    +0.000 A 
ATOM     13  C   UNL     1      -6.686  -0.313 129.356  0.00  0.00    +0.000 A 
ATOM     14  N   UNL     1      -5.915  -1.203 130.003  0.00  0.00    +0.000 NA
ATOM     15  N   UNL     1      -5.452  -1.986 129.014  0.00  0.00    +0.000 N 
ATOM     16  C   UNL     1      -4.570  -3.107 129.268  0.00  0.00    +0.000 C 
ATOM     17  C   UNL     1      -5.888  -1.589 127.775  0.00  0.00    +0.000 A 
ATOM     18  N   UNL     1      -5.488  -2.249 126.685  0.00  0.00    +0.000 N 
ATOM     19  C   UNL     1      -5.762  -1.984 125.335  0.00  0.00    +0.000 A 
ATOM     20  C   UNL     1      -5.272  -2.991 124.462  0.00  0.00    +0.000 A 
ATOM     21  C   UNL     1      -5.439  -2.930 123.089  0.00  0.00    +0.000 A 
ATOM     22  C   UNL     1      -6.129  -1.863 122.557  0.00  0.00    +0.000 A 
ATOM     23  C   UNL     1      -6.594  -0.844 123.396  0.00  0.00    +0.000 A 
ATOM     24  C   UNL     1      -6.398  -0.844 124.794  0.00  0.00    +0.000 A 
ATOM     25  H   UNL     1      -4.934  -3.089 126.799  0.00  0.00    +0.000 HD
ENDBRANCH   4   8
BRANCH   7  26
ATOM     26  C   UNL     1      -3.579   5.923 127.732  0.00  0.00    +0.000 C 
BRANCH  26  27
ATOM     27  N   UNL     1      -3.173   5.751 129.128  0.00  0.00    +0.000 N 
ATOM     28  C   UNL     1      -4.014   5.498 130.170  0.00  0.00    +0.000 C 
ATOM     29  O   UNL     1      -5.239   5.516 130.041  0.00  0.00    +0.000 OA
ATOM     30  N   UNL     1      -3.342   5.084 131.323  0.00  0.00    +0.000 N 
ATOM     31  C   UNL     1      -2.020   5.484 131.811  0.00  0.00    +0.000 C 
ATOM     32  C   UNL     1      -1.570   4.285 132.623  0.00  0.00    +0.000 C 
ATOM     33  C   UNL     1      -2.859   3.849 133.307  0.00  0.00    +0.000 C 
ATOM     34  C   UNL     1      -4.019   4.300 132.368  0.00  0.00    +0.000 C 
ATOM     35  H   UNL     1      -2.385   5.178 129.301  0.00  0.00    +0.000 HD
BRANCH  34  36
ATOM     36  C   UNL     1      -5.103   5.065 133.208  0.00  0.00    +0.000 C 
ATOM     37  S   UNL     1      -4.620   6.182 134.402  0.00  0.00    +0.000 S 
BRANCH  36  38
ATOM     38  N   UNL     1      -6.456   4.731 132.994  0.00  0.00    +0.000 N 
ATOM     39  C   UNL     1      -6.998   3.368 133.004  0.00  0.00    +0.000 C 
ATOM     40  C   UNL     1      -7.473   5.765 132.786  0.00  0.00    +0.000 C 
ENDBRANCH  36  38
ENDBRANCH  34  36
ENDBRANCH  26  27
ENDBRANCH   7  26
TORSDOF 5
ENDMDL
MODEL 3
REMARK VINA RESULT:      -9.0      1.301      1.906
REMARK  Name = CHEMBL4204210
REMARK  9 active torsions:
REMARK  status: ('A' for Active; 'I' for Inactive)
REMARK    1  A    between atoms: C_1  and  C_2
REMARK    2  A    between atoms: C_4  and  C_5
REMARK    3  A    between atoms: N_12  and  C_13
REMARK    4  A    between atoms: C_24  and  C_25
REMARK    5  A    between atoms: C_25  and  N_26
REMARK    6  A    between atoms: C_33  and  C_34
REMARK    7  A    between atoms: C_34  and  N_36
REMARK    8  A    between atoms: N_36  and  C_37
REMARK    9  A    between atoms: N_36  and  C_38
REMARK                            x       y       z     vdW  Elec       q    Type
REMARK                         _______ _______ _______ _____ _____    ______ ____
ROOT
ATOM      1  C   UNL     1      -8.325  -0.020 132.156  0.00  0.00    +0.000 C 
ATOM      2  C   UNL     1      -8.295   0.497 130.748  0.00  0.00    +0.000 A 
ATOM      3  C   UNL     1      -7.866  -0.414 129.752  0.00  0.00    +0.000 A 
ATOM      4  C   UNL     1      -7.770  -0.049 128.397  0.00  0.00    +0.000 A 
ATOM      5  C   UNL     1      -8.189   1.223 128.048  0.00  0.00    +0.000 A 
ATOM      6  C   UNL     1      -8.597   2.145 129.021  0.00  0.00    +0.000 A 
ATOM      7  C   UNL     1      -8.641   1.823 130.399  0.00  0.00    +0.000 A 
ENDROOT
BRANCH   4   8
ATOM      8  C   UNL     1      -7.338  -1.060 127.377  0.00  0.00    +0.000 C 
ATOM      9  O   UNL     1      -7.321  -2.226 127.781  0.00  0.00    +0.000 OA
ATOM     10  N   UNL     1      -7.155  -0.651 126.027  0.00  0.00    +0.000 N 
ATOM     11  C   UNL     1      -6.086   0.331 125.644  0.00  0.00    +0.000 C 
ATOM     12  C   UNL     1      -6.580   1.487 124.823  0.00  0.00    +0.000 A 
ATOM     13  C   UNL     1      -6.218   2.870 124.811  0.00  0.00    +0.000 A 
ATOM     14  N   UNL     1      -6.879   3.588 123.888  0.00  0.00    +0.000 NA
ATOM     15  N   UNL     1      -7.663   2.674 123.291  0.00  0.00    +0.000 N 
ATOM     16  C   UNL     1      -8.557   3.019 122.204  0.00  0.00    +0.000 C 
ATOM     17  C   UNL     1      -7.527   1.421 123.835  0.00  0.00    +0.000 A 
ATOM     18  N   UNL     1      -8.263   0.410 123.369  0.00  0.00    +0.000 N 
ATOM     19  C   UNL     1      -8.326  -0.920 123.810  0.00  0.00    +0.000 A 
ATOM     20  C   UNL     1      -9.127  -1.744 122.976  0.00  0.00    +0.000 A 
ATOM     21  C   UNL     1      -9.319  -3.092 123.225  0.00  0.00    +0.000 A 
ATOM     22  C   UNL     1      -8.687  -3.656 124.312  0.00  0.00    +0.000 A 
ATOM     23  C   UNL     1      -7.917  -2.857 125.165  0.00  0.00    +0.000 A 
ATOM     24  C   UNL     1      -7.740  -1.470 124.973  0.00  0.00    +0.000 A 
ATOM     25  H   UNL     1      -8.851   0.566 122.559  0.00  0.00    +0.000 HD
ENDBRANCH   4   8
BRANCH   7  26
ATOM     26  C   UNL     1      -9.080   2.946 131.358  0.00  0.00    +0.000 C 
BRANCH  26  27
ATOM     27  N   UNL     1      -8.141   3.334 132.412  0.00  0.00    +0.000 N 
ATOM     28  C   UNL     1      -7.069   4.158 132.251  0.00  0.00    +0.000 C 
ATOM     29  O   UNL     1      -6.715   4.562 131.142  0.00  0.00    +0.000 OA
ATOM     30  N   UNL     1      -6.530   4.595 133.464  0.00  0.00    +0.000 N 
ATOM     31  C   UNL     1      -6.448   3.885 134.743  0.00  0.00    +0.000 C 
ATOM     32  C   UNL     1      -6.436   5.005 135.765  0.00  0.00    +0.000 C 
ATOM     33  C   UNL     1      -5.571   6.060 135.087  0.00  0.00    +0.000 C 
ATOM     34  C   UNL     1      -5.735   5.830 133.553  0.00  0.00    +0.000 C 
ATOM     35  H   UNL     1      -8.527   3.597 133.285  0.00  0.00    +0.000 HD
BRANCH  34  36
ATOM     36  C   UNL     1      -4.319   5.787 132.877  0.00  0.00    +0.000 C 
ATOM     37  S   UNL     1      -3.279   4.467 133.167  0.00  0.00    +0.000 S 
BRANCH  36  38
ATOM     38  N   UNL     1      -3.923   6.901 132.110  0.00  0.00    +0.000 N 
ATOM     39  C   UNL     1      -4.509   7.289 130.823  0.00  0.00    +0.000 C 
ATOM     40  C   UNL     1      -2.887   7.823 132.583  0.00  0.00    +0.000 C 
ENDBRANCH  36  38
ENDBRANCH  34  36
ENDBRANCH  26  27
ENDBRANCH   7  26
TORSDOF 5
ENDMDL
MODEL 4
REMARK VINA RESULT:      -8.9      3.589      9.644
REMARK  Name = CHEMBL4204210
REMARK  9 active torsions:
REMARK  status: ('A' for Active; 'I' for Inactive)
REMARK    1  A    between atoms: C_1  and  C_2
REMARK    2  A    between atoms: C_4  and  C_5
REMARK    3  A    between atoms: N_12  and  C_13
REMARK    4  A    between atoms: C_24  and  C_25
REMARK    5  A    between atoms: C_25  and  N_26
REMARK    6  A    between atoms: C_33  and  C_34
REMARK    7  A    between atoms: C_34  and  N_36
REMARK    8  A    between atoms: N_36  and  C_37
REMARK    9  A    between atoms: N_36  and  C_38
REMARK                            x       y       z     vdW  Elec       q    Type
REMARK                         _______ _______ _______ _____ _____    ______ ____
ROOT
ATOM      1  C   UNL     1      -6.191   4.129 127.948  0.00  0.00    +0.000 C 
ATOM      2  C   UNL     1      -5.752   2.975 128.799  0.00  0.00    +0.000 A 
ATOM      3  C   UNL     1      -6.107   3.031 130.169  0.00  0.00    +0.000 A 
ATOM      4  C   UNL     1      -5.738   2.025 131.079  0.00  0.00    +0.000 A 
ATOM      5  C   UNL     1      -5.073   0.922 130.575  0.00  0.00    +0.000 A 
ATOM      6  C   UNL     1      -4.694   0.856 129.227  0.00  0.00    +0.000 A 
ATOM      7  C   UNL     1      -4.998   1.885 128.304  0.00  0.00    +0.000 A 
ENDROOT
BRANCH   4   8
ATOM      8  C   UNL     1      -6.165   2.119 132.514  0.00  0.00    +0.000 C 
ATOM      9  O   UNL     1      -5.323   1.734 133.329  0.00  0.00    +0.000 OA
ATOM     10  N   UNL     1      -7.383   2.780 132.835  0.00  0.00    +0.000 N 
ATOM     11  C   UNL     1      -8.708   2.244 132.378  0.00  0.00    +0.000 C 
ATOM     12  C   UNL     1      -9.570   3.253 131.675  0.00  0.00    +0.000 A 
ATOM     13  C   UNL     1     -10.459   3.137 130.562  0.00  0.00    +0.000 A 
ATOM     14  N   UNL     1     -11.082   4.286 130.252  0.00  0.00    +0.000 NA
ATOM     15  N   UNL     1     -10.610   5.149 131.168  0.00  0.00    +0.000 N 
ATOM     16  C   UNL     1     -11.034   6.534 131.211  0.00  0.00    +0.000 C 
ATOM     17  C   UNL     1      -9.695   4.575 132.015  0.00  0.00    +0.000 A 
ATOM     18  N   UNL     1      -9.112   5.313 132.963  0.00  0.00    +0.000 N 
ATOM     19  C   UNL     1      -8.120   4.951 133.886  0.00  0.00    +0.000 A 
ATOM     20  C   UNL     1      -7.844   5.972 134.833  0.00  0.00    +0.000 A 
ATOM     21  C   UNL     1      -6.904   5.821 135.838  0.00  0.00    +0.000 A 
ATOM     22  C   UNL     1      -6.231   4.623 135.932  0.00  0.00    +0.000 A 
ATOM     23  C   UNL     1      -6.464   3.613 134.991  0.00  0.00    +0.000 A 
ATOM     24  C   UNL     1      -7.376   3.750 133.923  0.00  0.00    +0.000 A 
ATOM     25  H   UNL     1      -9.420   6.269 133.097  0.00  0.00    +0.000 HD
ENDBRANCH   4   8
BRANCH   7  26
ATOM     26  C   UNL     1      -4.491   1.692 126.861  0.00  0.00    +0.000 C 
BRANCH  26  27
ATOM     27  N   UNL     1      -4.930   0.490 126.150  0.00  0.00    +0.000 N 
ATOM     28  C   UNL     1      -6.069   0.379 125.412  0.00  0.00    +0.000 C 
ATOM     29  O   UNL     1      -6.916   1.273 125.379  0.00  0.00    +0.000 OA
ATOM     30  N   UNL     1      -6.088  -0.763 124.608  0.00  0.00    +0.000 N 
ATOM     31  C   UNL     1      -5.514  -2.085 124.873  0.00  0.00    +0.000 C 
ATOM     32  C   UNL     1      -5.238  -2.632 123.486  0.00  0.00    +0.000 C 
ATOM     33  C   UNL     1      -6.446  -2.146 122.695  0.00  0.00    +0.000 C 
ATOM     34  C   UNL     1      -6.927  -0.842 123.402  0.00  0.00    +0.000 C 
ATOM     35  H   UNL     1      -4.246   0.002 125.627  0.00  0.00    +0.000 HD
BRANCH  34  36
ATOM     36  C   UNL     1      -8.476  -0.922 123.647  0.00  0.00    +0.000 C 
ATOM     37  S   UNL     1      -9.487   0.343 123.114  0.00  0.00    +0.000 S 
BRANCH  36  38
ATOM     38  N   UNL     1      -8.969  -2.018 124.384  0.00  0.00    +0.000 N 
ATOM     39  C   UNL     1      -9.108  -2.057 125.843  0.00  0.00    +0.000 C 
ATOM     40  C   UNL     1      -9.444  -3.233 123.717  0.00  0.00    +0.000 C 
ENDBRANCH  36  38
ENDBRANCH  34  36
ENDBRANCH  26  27
ENDBRANCH   7  26
TORSDOF 5
ENDMDL
MODEL 5
REMARK VINA RESULT:      -8.7      3.902      8.783
REMARK  Name = CHEMBL4204210
REMARK  9 active torsions:
REMARK  status: ('A' for Active; 'I' for Inactive)
REMARK    1  A    between atoms: C_1  and  C_2
REMARK    2  A    between atoms: C_4  and  C_5
REMARK    3  A    between atoms: N_12  and  C_13
REMARK    4  A    between atoms: C_24  and  C_25
REMARK    5  A    between atoms: C_25  and  N_26
REMARK    6  A    between atoms: C_33  and  C_34
REMARK    7  A    between atoms: C_34  and  N_36
REMARK    8  A    between atoms: N_36  and  C_37
REMARK    9  A    between atoms: N_36  and  C_38
REMARK                            x       y       z     vdW  Elec       q    Type
REMARK                         _______ _______ _______ _____ _____    ______ ____
ROOT
ATOM      1  C   UNL     1      -9.156  -2.966 126.571  0.00  0.00    +0.000 C 
ATOM      2  C   UNL     1      -7.818  -2.738 127.208  0.00  0.00    +0.000 A 
ATOM      3  C   UNL     1      -7.604  -3.357 128.463  0.00  0.00    +0.000 A 
ATOM      4  C   UNL     1      -6.402  -3.204 129.177  0.00  0.00    +0.000 A 
ATOM      5  C   UNL     1      -5.388  -2.483 128.571  0.00  0.00    +0.000 A 
ATOM      6  C   UNL     1      -5.587  -1.847 127.339  0.00  0.00    +0.000 A 
ATOM      7  C   UNL     1      -6.809  -1.932 126.630  0.00  0.00    +0.000 A 
ENDROOT
BRANCH   4   8
ATOM      8  C   UNL     1      -6.216  -3.905 130.490  0.00  0.00    +0.000 C 
ATOM      9  O   UNL     1      -5.813  -5.067 130.402  0.00  0.00    +0.000 OA
ATOM     10  N   UNL     1      -6.339  -3.162 131.697  0.00  0.00    +0.000 N 
ATOM     11  C   UNL     1      -7.644  -2.543 132.106  0.00  0.00    +0.000 C 
ATOM     12  C   UNL     1      -7.550  -1.086 132.455  0.00  0.00    +0.000 A 
ATOM     13  C   UNL     1      -8.443   0.007 132.229  0.00  0.00    +0.000 A 
ATOM     14  N   UNL     1      -8.001   1.172 132.733  0.00  0.00    +0.000 NA
ATOM     15  N   UNL     1      -6.829   0.838 133.298  0.00  0.00    +0.000 N 
ATOM     16  C   UNL     1      -6.000   1.809 133.982  0.00  0.00    +0.000 C 
ATOM     17  C   UNL     1      -6.519  -0.489 133.133  0.00  0.00    +0.000 A 
ATOM     18  N   UNL     1      -5.369  -0.969 133.613  0.00  0.00    +0.000 N 
ATOM     19  C   UNL     1      -4.833  -2.261 133.508  0.00  0.00    +0.000 A 
ATOM     20  C   UNL     1      -3.645  -2.431 134.266  0.00  0.00    +0.000 A 
ATOM     21  C   UNL     1      -2.956  -3.631 134.310  0.00  0.00    +0.000 A 
ATOM     22  C   UNL     1      -3.460  -4.704 133.608  0.00  0.00    +0.000 A 
ATOM     23  C   UNL     1      -4.612  -4.550 132.829  0.00  0.00    +0.000 A 
ATOM     24  C   UNL     1      -5.313  -3.330 132.718  0.00  0.00    +0.000 A 
ATOM     25  H   UNL     1      -4.780  -0.361 134.168  0.00  0.00    +0.000 HD
ENDBRANCH   4   8
BRANCH   7  26
ATOM     26  C   UNL     1      -6.895  -1.155 125.302  0.00  0.00    +0.000 C 
BRANCH  26  27
ATOM     27  N   UNL     1      -6.418   0.230 125.302  0.00  0.00    +0.000 N 
ATOM     28  C   UNL     1      -6.599   1.128 124.295  0.00  0.00    +0.000 C 
ATOM     29  O   UNL     1      -7.090   0.806 123.211  0.00  0.00    +0.000 OA
ATOM     30  N   UNL     1      -6.312   2.441 124.677  0.00  0.00    +0.000 N 
ATOM     31  C   UNL     1      -5.303   2.923 125.625  0.00  0.00    +0.000 C 
ATOM     32  C   UNL     1      -5.892   4.227 126.128  0.00  0.00    +0.000 C 
ATOM     33  C   UNL     1      -6.522   4.811 124.870  0.00  0.00    +0.000 C 
ATOM     34  C   UNL     1      -6.889   3.593 123.967  0.00  0.00    +0.000 C 
ATOM     35  H   UNL     1      -6.556   0.754 126.130  0.00  0.00    +0.000 HD
BRANCH  34  36
ATOM     36  C   UNL     1      -6.353   3.842 122.512  0.00  0.00    +0.000 C 
ATOM     37  S   UNL     1      -4.768   4.424 122.279  0.00  0.00    +0.000 S 
BRANCH  36  38
ATOM     38  N   UNL     1      -7.250   3.651 121.441  0.00  0.00    +0.000 N 
ATOM     39  C   UNL     1      -8.667   3.304 121.581  0.00  0.00    +0.000 C 
ATOM     40  C   UNL     1      -6.827   3.839 120.051  0.00  0.00    +0.000 C 
ENDBRANCH  36  38
ENDBRANCH  34  36
ENDBRANCH  26  27
ENDBRANCH   7  26
TORSDOF 5
ENDMDL
MODEL 6
REMARK VINA RESULT:      -8.5      3.245      8.509
REMARK  Name = CHEMBL4204210
REMARK  9 active torsions:
REMARK  status: ('A' for Active; 'I' for Inactive)
REMARK    1  A    between atoms: C_1  and  C_2
REMARK    2  A    between atoms: C_4  and  C_5
REMARK    3  A    between atoms: N_12  and  C_13
REMARK    4  A    between atoms: C_24  and  C_25
REMARK    5  A    between atoms: C_25  and  N_26
REMARK    6  A    between atoms: C_33  and  C_34
REMARK    7  A    between atoms: C_34  and  N_36
REMARK    8  A    between atoms: N_36  and  C_37
REMARK    9  A    between atoms: N_36  and  C_38
REMARK                            x       y       z     vdW  Elec       q    Type
REMARK                         _______ _______ _______ _____ _____    ______ ____
ROOT
ATOM      1  C   UNL     1      -9.232  -3.676 127.289  0.00  0.00    +0.000 C 
ATOM      2  C   UNL     1      -7.951  -3.157 127.871  0.00  0.00    +0.000 A 
ATOM      3  C   UNL     1      -7.798  -3.288 129.272  0.00  0.00    +0.000 A 
ATOM      4  C   UNL     1      -6.655  -2.821 129.946  0.00  0.00    +0.000 A 
ATOM      5  C   UNL     1      -5.633  -2.293 129.177  0.00  0.00    +0.000 A 
ATOM      6  C   UNL     1      -5.774  -2.137 127.792  0.00  0.00    +0.000 A 
ATOM      7  C   UNL     1      -6.940  -2.539 127.099  0.00  0.00    +0.000 A 
ENDROOT
BRANCH   4   8
ATOM      8  C   UNL     1      -6.530  -3.010 131.429  0.00  0.00    +0.000 C 
ATOM      9  O   UNL     1      -6.040  -4.088 131.772  0.00  0.00    +0.000 OA
ATOM     10  N   UNL     1      -6.806  -1.915 132.294  0.00  0.00    +0.000 N 
ATOM     11  C   UNL     1      -8.180  -1.321 132.391  0.00  0.00    +0.000 C 
ATOM     12  C   UNL     1      -8.219   0.170 132.216  0.00  0.00    +0.000 A 
ATOM     13  C   UNL     1      -9.165   1.030 131.577  0.00  0.00    +0.000 A 
ATOM     14  N   UNL     1      -8.851   2.333 131.668  0.00  0.00    +0.000 NA
ATOM     15  N   UNL     1      -7.709   2.326 132.376  0.00  0.00    +0.000 N 
ATOM     16  C   UNL     1      -7.010   3.547 132.724  0.00  0.00    +0.000 C 
ATOM     17  C   UNL     1      -7.293   1.058 132.699  0.00  0.00    +0.000 A 
ATOM     18  N   UNL     1      -6.156   0.883 133.377  0.00  0.00    +0.000 N 
ATOM     19  C   UNL     1      -5.523  -0.310 133.757  0.00  0.00    +0.000 A 
ATOM     20  C   UNL     1      -4.394  -0.097 134.590  0.00  0.00    +0.000 A 
ATOM     21  C   UNL     1      -3.627  -1.138 135.085  0.00  0.00    +0.000 A 
ATOM     22  C   UNL     1      -3.993  -2.429 134.773  0.00  0.00    +0.000 A 
ATOM     23  C   UNL     1      -5.085  -2.661 133.929  0.00  0.00    +0.000 A 
ATOM     24  C   UNL     1      -5.858  -1.625 133.363  0.00  0.00    +0.000 A 
ATOM     25  H   UNL     1      -5.660   1.698 133.717  0.00  0.00    +0.000 HD
ENDBRANCH   4   8
BRANCH   7  26
ATOM     26  C   UNL     1      -6.968  -2.278 125.580  0.00  0.00    +0.000 C 
BRANCH  26  27
ATOM     27  N   UNL     1      -7.731  -1.119 125.112  0.00  0.00    +0.000 N 
ATOM     28  C   UNL     1      -7.226   0.129 124.907  0.00  0.00    +0.000 C 
ATOM     29  O   UNL     1      -6.074   0.429 125.226  0.00  0.00    +0.000 OA
ATOM     30  N   UNL     1      -8.089   0.954 124.181  0.00  0.00    +0.000 N 
ATOM     31  C   UNL     1      -9.554   0.984 124.188  0.00  0.00    +0.000 C 
ATOM     32  C   UNL     1      -9.899   1.515 122.810  0.00  0.00    +0.000 C 
ATOM     33  C   UNL     1      -8.824   2.570 122.585  0.00  0.00    +0.000 C 
ATOM     34  C   UNL     1      -7.592   2.115 123.428  0.00  0.00    +0.000 C 
ATOM     35  H   UNL     1      -8.350  -1.263 124.353  0.00  0.00    +0.000 HD
BRANCH  34  36
ATOM     36  C   UNL     1      -7.074   3.323 124.287  0.00  0.00    +0.000 C 
ATOM     37  S   UNL     1      -8.117   4.081 125.402  0.00  0.00    +0.000 S 
BRANCH  36  38
ATOM     38  N   UNL     1      -5.768   3.793 124.039  0.00  0.00    +0.000 N 
ATOM     39  C   UNL     1      -5.260   4.214 122.730  0.00  0.00    +0.000 C 
ATOM     40  C   UNL     1      -4.795   3.949 125.123  0.00  0.00    +0.000 C 
ENDBRANCH  36  38
ENDBRANCH  34  36
ENDBRANCH  26  27
ENDBRANCH   7  26
TORSDOF 5
ENDMDL
MODEL 7
REMARK VINA RESULT:      -8.5      5.070      8.486
REMARK  Name = CHEMBL4204210
REMARK  9 active torsions:
REMARK  status: ('A' for Active; 'I' for Inactive)
REMARK    1  A    between atoms: C_1  and  C_2
REMARK    2  A    between atoms: C_4  and  C_5
REMARK    3  A    between atoms: N_12  and  C_13
REMARK    4  A    between atoms: C_24  and  C_25
REMARK    5  A    between atoms: C_25  and  N_26
REMARK    6  A    between atoms: C_33  and  C_34
REMARK    7  A    between atoms: C_34  and  N_36
REMARK    8  A    between atoms: N_36  and  C_37
REMARK    9  A    between atoms: N_36  and  C_38
REMARK                            x       y       z     vdW  Elec       q    Type
REMARK                         _______ _______ _______ _____ _____    ______ ____
ROOT
ATOM      1  C   UNL     1      -3.826   7.550 130.135  0.00  0.00    +0.000 C 
ATOM      2  C   UNL     1      -4.251   7.029 131.476  0.00  0.00    +0.000 A 
ATOM      3  C   UNL     1      -5.593   6.590 131.584  0.00  0.00    +0.000 A 
ATOM      4  C   UNL     1      -6.124   6.102 132.791  0.00  0.00    +0.000 A 
ATOM      5  C   UNL     1      -5.262   5.987 133.868  0.00  0.00    +0.000 A 
ATOM      6  C   UNL     1      -3.937   6.435 133.786  0.00  0.00    +0.000 A 
ATOM      7  C   UNL     1      -3.396   6.990 132.602  0.00  0.00    +0.000 A 
ENDROOT
BRANCH   4   8
ATOM      8  C   UNL     1      -7.544   5.622 132.845  0.00  0.00    +0.000 C 
ATOM      9  O   UNL     1      -8.161   5.948 133.862  0.00  0.00    +0.000 OA
ATOM     10  N   UNL     1      -8.113   5.004 131.697  0.00  0.00    +0.000 N 
ATOM     11  C   UNL     1      -7.593   3.698 131.172  0.00  0.00    +0.000 C 
ATOM     12  C   UNL     1      -7.269   3.710 129.706  0.00  0.00    +0.000 A 
ATOM     13  C   UNL     1      -6.223   3.089 128.957  0.00  0.00    +0.000 A 
ATOM     14  N   UNL     1      -6.301   3.320 127.635  0.00  0.00    +0.000 NA
ATOM     15  N   UNL     1      -7.403   4.080 127.520  0.00  0.00    +0.000 N 
ATOM     16  C   UNL     1      -7.877   4.561 126.238  0.00  0.00    +0.000 C 
ATOM     17  C   UNL     1      -7.990   4.349 128.731  0.00  0.00    +0.000 A 
ATOM     18  N   UNL     1      -9.080   5.120 128.786  0.00  0.00    +0.000 N 
ATOM     19  C   UNL     1      -9.798   5.564 129.906  0.00  0.00    +0.000 A 
ATOM     20  C   UNL     1     -10.987   6.259 129.562  0.00  0.00    +0.000 A 
ATOM     21  C   UNL     1     -11.849   6.777 130.514  0.00  0.00    +0.000 A 
ATOM     22  C   UNL     1     -11.547   6.587 131.845  0.00  0.00    +0.000 A 
ATOM     23  C   UNL     1     -10.365   5.931 132.207  0.00  0.00    +0.000 A 
ATOM     24  C   UNL     1      -9.437   5.436 131.266  0.00  0.00    +0.000 A 
ATOM     25  H   UNL     1      -9.507   5.424 127.920  0.00  0.00    +0.000 HD
ENDBRANCH   4   8
BRANCH   7  26
ATOM     26  C   UNL     1      -1.933   7.469 132.667  0.00  0.00    +0.000 C 
BRANCH  26  27
ATOM     27  N   UNL     1      -1.699   8.915 132.669  0.00  0.00    +0.000 N 
ATOM     28  C   UNL     1      -0.801   9.569 133.457  0.00  0.00    +0.000 C 
ATOM     29  O   UNL     1      -0.177   8.996 134.352  0.00  0.00    +0.000 OA
ATOM     30  N   UNL     1      -0.572  10.884 133.045  0.00  0.00    +0.000 N 
ATOM     31  C   UNL     1      -1.505  11.831 132.429  0.00  0.00    +0.000 C 
ATOM     32  C   UNL     1      -0.598  12.739 131.621  0.00  0.00    +0.000 C 
ATOM     33  C   UNL     1       0.612  12.893 132.534  0.00  0.00    +0.000 C 
ATOM     34  C   UNL     1       0.666  11.596 133.398  0.00  0.00    +0.000 C 
ATOM     35  H   UNL     1      -1.627   9.360 131.788  0.00  0.00    +0.000 HD
BRANCH  34  36
ATOM     36  C   UNL     1       0.829  11.984 134.911  0.00  0.00    +0.000 C 
ATOM     37  S   UNL     1       2.219  11.496 135.768  0.00  0.00    +0.000 S 
BRANCH  36  38
ATOM     38  N   UNL     1      -0.239  12.662 135.534  0.00  0.00    +0.000 N 
ATOM     39  C   UNL     1      -1.365  12.015 136.214  0.00  0.00    +0.000 C 
ATOM     40  C   UNL     1      -0.280  14.125 135.593  0.00  0.00    +0.000 C 
ENDBRANCH  36  38
ENDBRANCH  34  36
ENDBRANCH  26  27
ENDBRANCH   7  26
TORSDOF 5
ENDMDL
MODEL 8
REMARK VINA RESULT:      -8.3      4.381      6.566
REMARK  Name = CHEMBL4204210
REMARK  9 active torsions:
REMARK  status: ('A' for Active; 'I' for Inactive)
REMARK    1  A    between atoms: C_1  and  C_2
REMARK    2  A    between atoms: C_4  and  C_5
REMARK    3  A    between atoms: N_12  and  C_13
REMARK    4  A    between atoms: C_24  and  C_25
REMARK    5  A    between atoms: C_25  and  N_26
REMARK    6  A    between atoms: C_33  and  C_34
REMARK    7  A    between atoms: C_34  and  N_36
REMARK    8  A    between atoms: N_36  and  C_37
REMARK    9  A    between atoms: N_36  and  C_38
REMARK                            x       y       z     vdW  Elec       q    Type
REMARK                         _______ _______ _______ _____ _____    ______ ____
ROOT
ATOM      1  C   UNL     1      -7.951   1.446 130.168  0.00  0.00    +0.000 C 
ATOM      2  C   UNL     1      -7.900   0.031 129.674  0.00  0.00    +0.000 A 
ATOM      3  C   UNL     1      -7.917  -0.147 128.270  0.00  0.00    +0.000 A 
ATOM      4  C   UNL     1      -7.896  -1.422 127.677  0.00  0.00    +0.000 A 
ATOM      5  C   UNL     1      -7.778  -2.514 128.519  0.00  0.00    +0.000 A 
ATOM      6  C   UNL     1      -7.780  -2.360 129.912  0.00  0.00    +0.000 A 
ATOM      7  C   UNL     1      -7.865  -1.092 130.534  0.00  0.00    +0.000 A 
ENDROOT
BRANCH   4   8
ATOM      8  C   UNL     1      -7.887  -1.555 126.183  0.00  0.00    +0.000 C 
ATOM      9  O   UNL     1      -8.509  -2.526 125.748  0.00  0.00    +0.000 OA
ATOM     10  N   UNL     1      -7.338  -0.505 125.396  0.00  0.00    +0.000 N 
ATOM     11  C   UNL     1      -5.881  -0.152 125.468  0.00  0.00    +0.000 C 
ATOM     12  C   UNL     1      -5.613   1.307 125.705  0.00  0.00    +0.000 A 
ATOM     13  C   UNL     1      -4.613   1.979 126.474  0.00  0.00    +0.000 A 
ATOM     14  N   UNL     1      -4.693   3.318 126.403  0.00  0.00    +0.000 NA
ATOM     15  N   UNL     1      -5.735   3.520 125.578  0.00  0.00    +0.000 N 
ATOM     16  C   UNL     1      -6.177   4.850 125.208  0.00  0.00    +0.000 C 
ATOM     17  C   UNL     1      -6.318   2.349 125.163  0.00  0.00    +0.000 A 
ATOM     18  N   UNL     1      -7.387   2.385 124.363  0.00  0.00    +0.000 N 
ATOM     19  C   UNL     1      -8.164   1.326 123.871  0.00  0.00    +0.000 A 
ATOM     20  C   UNL     1      -9.143   1.746 122.933  0.00  0.00    +0.000 A 
ATOM     21  C   UNL     1     -10.013   0.861 122.319  0.00  0.00    +0.000 A 
ATOM     22  C   UNL     1      -9.904  -0.479 122.616  0.00  0.00    +0.000 A 
ATOM     23  C   UNL     1      -8.967  -0.912 123.561  0.00  0.00    +0.000 A 
ATOM     24  C   UNL     1      -8.099  -0.035 124.245  0.00  0.00    +0.000 A 
ATOM     25  H   UNL     1      -7.699   3.279 124.004  0.00  0.00    +0.000 HD
ENDBRANCH   4   8
BRANCH   7  26
ATOM     26  C   UNL     1      -7.888  -1.076 132.075  0.00  0.00    +0.000 C 
BRANCH  26  27
ATOM     27  N   UNL     1      -7.006  -2.016 132.770  0.00  0.00    +0.000 N 
ATOM     28  C   UNL     1      -7.335  -2.737 133.877  0.00  0.00    +0.000 C 
ATOM     29  O   UNL     1      -8.395  -2.563 134.480  0.00  0.00    +0.000 OA
ATOM     30  N   UNL     1      -6.426  -3.764 134.147  0.00  0.00    +0.000 N 
ATOM     31  C   UNL     1      -4.979  -3.795 133.922  0.00  0.00    +0.000 C 
ATOM     32  C   UNL     1      -4.685  -5.272 133.743  0.00  0.00    +0.000 C 
ATOM     33  C   UNL     1      -5.606  -5.918 134.770  0.00  0.00    +0.000 C 
ATOM     34  C   UNL     1      -6.810  -4.941 134.942  0.00  0.00    +0.000 C 
ATOM     35  H   UNL     1      -6.487  -2.645 132.209  0.00  0.00    +0.000 HD
BRANCH  34  36
ATOM     36  C   UNL     1      -7.062  -4.687 136.471  0.00  0.00    +0.000 C 
ATOM     37  S   UNL     1      -5.908  -3.835 137.392  0.00  0.00    +0.000 S 
BRANCH  36  38
ATOM     38  N   UNL     1      -8.215  -5.256 137.050  0.00  0.00    +0.000 N 
ATOM     39  C   UNL     1      -9.485  -4.555 137.260  0.00  0.00    +0.000 C 
ATOM     40  C   UNL     1      -8.247  -6.662 137.458  0.00  0.00    +0.000 C 
ENDBRANCH  36  38
ENDBRANCH  34  36
ENDBRANCH  26  27
ENDBRANCH   7  26
TORSDOF 5
ENDMDL
MODEL 9
REMARK VINA RESULT:      -8.2      3.131      9.283
REMARK  Name = CHEMBL4204210
REMARK  9 active torsions:
REMARK  status: ('A' for Active; 'I' for Inactive)
REMARK    1  A    between atoms: C_1  and  C_2
REMARK    2  A    between atoms: C_4  and  C_5
REMARK    3  A    between atoms: N_12  and  C_13
REMARK    4  A    between atoms: C_24  and  C_25
REMARK    5  A    between atoms: C_25  and  N_26
REMARK    6  A    between atoms: C_33  and  C_34
REMARK    7  A    between atoms: C_34  and  N_36
REMARK    8  A    between atoms: N_36  and  C_37
REMARK    9  A    between atoms: N_36  and  C_38
REMARK                            x       y       z     vdW  Elec       q    Type
REMARK                         _______ _______ _______ _____ _____    ______ ____
ROOT
ATOM      1  C   UNL     1      -4.276   1.518 128.871  0.00  0.00    +0.000 C 
ATOM      2  C   UNL     1      -5.298   0.749 129.653  0.00  0.00    +0.000 A 
ATOM      3  C   UNL     1      -5.653   1.280 130.917  0.00  0.00    +0.000 A 
ATOM      4  C   UNL     1      -6.582   0.644 131.760  0.00  0.00    +0.000 A 
ATOM      5  C   UNL     1      -7.207  -0.492 131.278  0.00  0.00    +0.000 A 
ATOM      6  C   UNL     1      -6.855  -1.044 130.040  0.00  0.00    +0.000 A 
ATOM      7  C   UNL     1      -5.877  -0.459 129.200  0.00  0.00    +0.000 A 
ENDROOT
BRANCH   4   8
ATOM      8  C   UNL     1      -6.945   1.263 133.078  0.00  0.00    +0.000 C 
ATOM      9  O   UNL     1      -6.362   0.782 134.052  0.00  0.00    +0.000 OA
ATOM     10  N   UNL     1      -7.764   2.426 133.096  0.00  0.00    +0.000 N 
ATOM     11  C   UNL     1      -9.184   2.392 132.614  0.00  0.00    +0.000 C 
ATOM     12  C   UNL     1      -9.518   3.456 131.608  0.00  0.00    +0.000 A 
ATOM     13  C   UNL     1     -10.355   3.443 130.450  0.00  0.00    +0.000 A 
ATOM     14  N   UNL     1     -10.418   4.629 129.821  0.00  0.00    +0.000 NA
ATOM     15  N   UNL     1      -9.633   5.418 130.574  0.00  0.00    +0.000 N 
ATOM     16  C   UNL     1      -9.418   6.816 130.259  0.00  0.00    +0.000 C 
ATOM     17  C   UNL     1      -9.064   4.749 131.630  0.00  0.00    +0.000 A 
ATOM     18  N   UNL     1      -8.232   5.391 132.454  0.00  0.00    +0.000 N 
ATOM     19  C   UNL     1      -7.506   4.895 133.546  0.00  0.00    +0.000 A 
ATOM     20  C   UNL     1      -6.829   5.911 134.270  0.00  0.00    +0.000 A 
ATOM     21  C   UNL     1      -6.059   5.641 135.389  0.00  0.00    +0.000 A 
ATOM     22  C   UNL     1      -5.969   4.338 135.825  0.00  0.00    +0.000 A 
ATOM     23  C   UNL     1      -6.603   3.316 135.109  0.00  0.00    +0.000 A 
ATOM     24  C   UNL     1      -7.353   3.545 133.936  0.00  0.00    +0.000 A 
ATOM     25  H   UNL     1      -8.100   6.388 132.336  0.00  0.00    +0.000 HD
ENDBRANCH   4   8
BRANCH   7  26
ATOM     26  C   UNL     1      -5.569  -1.193 127.880  0.00  0.00    +0.000 C 
BRANCH  26  27
ATOM     27  N   UNL     1      -6.656  -1.306 126.905  0.00  0.00    +0.000 N 
ATOM     28  C   UNL     1      -6.998  -0.359 125.989  0.00  0.00    +0.000 C 
ATOM     29  O   UNL     1      -6.485   0.762 125.984  0.00  0.00    +0.000 OA
ATOM     30  N   UNL     1      -7.859  -0.843 125.001  0.00  0.00    +0.000 N 
ATOM     31  C   UNL     1      -8.910  -1.857 125.112  0.00  0.00    +0.000 C 
ATOM     32  C   UNL     1      -8.994  -2.429 123.710  0.00  0.00    +0.000 C 
ATOM     33  C   UNL     1      -8.809  -1.193 122.839  0.00  0.00    +0.000 C 
ATOM     34  C   UNL     1      -7.959  -0.194 123.684  0.00  0.00    +0.000 C 
ATOM     35  H   UNL     1      -6.735  -2.164 126.417  0.00  0.00    +0.000 HD
BRANCH  34  36
ATOM     36  C   UNL     1      -8.643   1.219 123.663  0.00  0.00    +0.000 C 
ATOM     37  S   UNL     1     -10.146   1.447 124.434  0.00  0.00    +0.000 S 
BRANCH  36  38
ATOM     38  N   UNL     1      -8.014   2.242 122.924  0.00  0.00    +0.000 N 
ATOM     39  C   UNL     1      -8.661   3.050 121.886  0.00  0.00    +0.000 C 
ATOM     40  C   UNL     1      -6.623   2.622 123.181  0.00  0.00    +0.000 C 
ENDBRANCH  36  38
ENDBRANCH  34  36
ENDBRANCH  26  27
ENDBRANCH   7  26
TORSDOF 5
ENDMDL
