MODEL 1
REMARK VINA RESULT:      -9.0      0.000      0.000
REMARK  Name = CHEMBL210029
REMARK  12 active torsions:
REMARK  status: ('A' for Active; 'I' for Inactive)
REMARK    1  A    between atoms: CD1_1  and  CG_2
REMARK    2  A    between atoms: CG_2  and  CD2_3
REMARK    3  A    between atoms: CG_2  and  CB_4
REMARK    4  A    between atoms: CB_4  and  CA_5
REMARK    5  A    between atoms: C_9  and  C_10
REMARK    6  A    between atoms: N_21  and  C_22
REMARK    7  A    between atoms: C_22  and  C_23
REMARK    8  A    between atoms: C_22  and  C_30
REMARK    9  A    between atoms: N_25  and  C_26
REMARK   10  A    between atoms: N_25  and  C_27
REMARK   11  A    between atoms: C_27  and  C_28
REMARK   12  A    between atoms: C_28  and  O_29
REMARK                            x       y       z     vdW  Elec       q    Type
REMARK                         _______ _______ _______ _____ _____    ______ ____
ROOT
ATOM      1  CA  LEU A   2      -7.907   3.139 129.578  0.00  0.00    +0.000 C 
ATOM      2  C   LEU A   2      -8.285   4.181 128.536  0.00  0.00    +0.000 C 
ATOM      3  O   LEU A   2      -8.097   4.152 127.353  0.00  0.00    +0.000 OA
ATOM      4  N   UNK A   1      -8.858   5.223 129.160  0.00  0.00    +0.000 N 
ATOM      5  C   UNK A   1      -9.579   4.939 130.372  0.00  0.00    +0.000 C 
ATOM      6  C   UNK A   1      -8.701   4.294 131.490  0.00  0.00    +0.000 C 
ATOM      7  O   UNK A   1      -8.992   4.504 132.649  0.00  0.00    +0.000 OA
ATOM      8  N   LEU A   2      -7.674   3.475 131.013  0.00  0.00    +0.000 N 
ATOM      9  H   UNK A   1      -9.022   5.996 128.531  0.00  0.00    +0.000 HD
ENDROOT
BRANCH   5  10
ATOM     10  C   UNK A   1     -10.106   6.223 130.977  0.00  0.00    +0.000 C 
ATOM     11  C   UNK A   1     -11.634   6.240 131.017  0.00  0.00    +0.000 C 
ATOM     12  C   UNK A   1     -11.955   6.895 129.708  0.00  0.00    +0.000 A 
ATOM     13  C   UNK A   1     -13.134   6.802 128.995  0.00  0.00    +0.000 A 
ATOM     14  C   UNK A   1     -13.179   7.375 127.724  0.00  0.00    +0.000 A 
ATOM     15  C   UNK A   1     -12.049   8.001 127.172  0.00  0.00    +0.000 A 
ATOM     16  C   UNK A   1     -10.854   8.073 127.887  0.00  0.00    +0.000 A 
ATOM     17  C   UNK A   1     -10.830   7.538 129.164  0.00  0.00    +0.000 A 
ATOM     18  C   UNK A   1      -9.652   7.409 130.080  0.00  0.00    +0.000 C 
ENDBRANCH   5  10
BRANCH   1  19
ATOM     19  CB  LEU A   2      -6.630   2.816 128.986  0.00  0.00    +0.000 C 
BRANCH  19  21
ATOM     20  CD1 LEU A   2      -7.732   0.747 128.496  0.00  0.00    +0.000 C 
ATOM     21  CG  LEU A   2      -6.431   1.430 128.368  0.00  0.00    +0.000 C 
ATOM     22  CD2 LEU A   2      -6.270   1.094 126.916  0.00  0.00    +0.000 C 
ENDBRANCH  19  21
ENDBRANCH   1  19
BRANCH   8  23
ATOM     23  C   UNK A   0      -6.555   2.709 131.925  0.00  0.00    +0.000 C 
BRANCH  23  24
ATOM     24  C   UNK A   0      -6.889   1.170 132.006  0.00  0.00    +0.000 A 
ATOM     25  C   UNK A   0      -5.849   0.243 131.733  0.00  0.00    +0.000 A 
ATOM     26  C   UNK A   0      -6.106  -1.133 131.597  0.00  0.00    +0.000 A 
ATOM     27  C   UNK A   0      -7.376  -1.627 131.848  0.00  0.00    +0.000 A 
ATOM     28  F   UNK A   0      -7.625  -2.939 131.767  0.00  0.00    +0.000 F 
ATOM     29  C   UNK A   0      -8.399  -0.772 132.173  0.00  0.00    +0.000 A 
ATOM     30  C   UNK A   0      -8.162   0.595 132.211  0.00  0.00    +0.000 A 
ATOM     31  F   UNK A   0      -9.281   1.277 132.440  0.00  0.00    +0.000 F 
ENDBRANCH  23  24
BRANCH  23  32
ATOM     32  C   UNK A   0      -6.147   3.332 133.469  0.00  0.00    +0.000 C 
ATOM     33  O   UNK A   0      -6.657   2.774 134.453  0.00  0.00    +0.000 OA
ATOM     34  N   UNK A   0      -5.468   4.598 133.809  0.00  0.00    +0.000 N 
ATOM     35  C   UNK A   0      -5.003   5.757 132.740  0.00  0.00    +0.000 C 
BRANCH  34  36
ATOM     36  C   UNK A   0      -5.769   4.964 135.469  0.00  0.00    +0.000 C 
BRANCH  36  37
ATOM     37  C   UNK A   0      -7.196   5.709 136.052  0.00  0.00    +0.000 C 
BRANCH  37  38
ATOM     38  O   UNK A   0      -8.406   5.238 135.450  0.00  0.00    +0.000 OA
ATOM     39  H   UNK A   0      -8.675   5.914 134.786  0.00  0.00    +0.000 HD
ENDBRANCH  37  38
ENDBRANCH  36  37
ENDBRANCH  34  36
ENDBRANCH  23  32
ENDBRANCH   8  23
TORSDOF 9
ENDMDL
MODEL 2
REMARK VINA RESULT:      -9.0      3.100      6.902
REMARK  Name = CHEMBL210029
REMARK  12 active torsions:
REMARK  status: ('A' for Active; 'I' for Inactive)
REMARK    1  A    between atoms: CD1_1  and  CG_2
REMARK    2  A    between atoms: CG_2  and  CD2_3
REMARK    3  A    between atoms: CG_2  and  CB_4
REMARK    4  A    between atoms: CB_4  and  CA_5
REMARK    5  A    between atoms: C_9  and  C_10
REMARK    6  A    between atoms: N_21  and  C_22
REMARK    7  A    between atoms: C_22  and  C_23
REMARK    8  A    between atoms: C_22  and  C_30
REMARK    9  A    between atoms: N_25  and  C_26
REMARK   10  A    between atoms: N_25  and  C_27
REMARK   11  A    between atoms: C_27  and  C_28
REMARK   12  A    between atoms: C_28  and  O_29
REMARK                            x       y       z     vdW  Elec       q    Type
REMARK                         _______ _______ _______ _____ _____    ______ ____
ROOT
ATOM      1  CA  LEU A   2      -7.780   2.353 130.237  0.00  0.00    +0.000 C 
ATOM      2  C   LEU A   2      -7.080   1.095 129.745  0.00  0.00    +0.000 C 
ATOM      3  O   LEU A   2      -7.129  -0.011 130.204  0.00  0.00    +0.000 OA
ATOM      4  N   UNK A   1      -6.320   1.414 128.685  0.00  0.00    +0.000 N 
ATOM      5  C   UNK A   1      -6.773   2.505 127.864  0.00  0.00    +0.000 C 
ATOM      6  C   UNK A   1      -6.900   3.859 128.631  0.00  0.00    +0.000 C 
ATOM      7  O   UNK A   1      -6.732   4.891 128.017  0.00  0.00    +0.000 OA
ATOM      8  N   LEU A   2      -7.258   3.726 129.976  0.00  0.00    +0.000 N 
ATOM      9  H   UNK A   1      -5.740   0.641 128.390  0.00  0.00    +0.000 HD
ENDROOT
BRANCH   5  10
ATOM     10  C   UNK A   1      -5.776   2.772 126.757  0.00  0.00    +0.000 C 
ATOM     11  C   UNK A   1      -6.456   2.825 125.389  0.00  0.00    +0.000 C 
ATOM     12  C   UNK A   1      -6.342   1.397 124.949  0.00  0.00    +0.000 A 
ATOM     13  C   UNK A   1      -7.128   0.744 124.021  0.00  0.00    +0.000 A 
ATOM     14  C   UNK A   1      -6.950  -0.630 123.858  0.00  0.00    +0.000 A 
ATOM     15  C   UNK A   1      -6.020  -1.335 124.639  0.00  0.00    +0.000 A 
ATOM     16  C   UNK A   1      -5.243  -0.676 125.592  0.00  0.00    +0.000 A 
ATOM     17  C   UNK A   1      -5.398   0.694 125.717  0.00  0.00    +0.000 A 
ATOM     18  C   UNK A   1      -4.756   1.599 126.723  0.00  0.00    +0.000 C 
ENDBRANCH   5  10
BRANCH   1  19
ATOM     19  CB  LEU A   2      -7.596   2.068 131.640  0.00  0.00    +0.000 C 
BRANCH  19  21
ATOM     20  CD1 LEU A   2      -8.813   2.835 133.553  0.00  0.00    +0.000 C 
ATOM     21  CG  LEU A   2      -8.826   1.795 132.508  0.00  0.00    +0.000 C 
ATOM     22  CD2 LEU A   2     -10.264   2.016 132.146  0.00  0.00    +0.000 C 
ENDBRANCH  19  21
ENDBRANCH   1  19
BRANCH   8  23
ATOM     23  C   UNK A   0      -7.412   4.945 131.053  0.00  0.00    +0.000 C 
BRANCH  23  24
ATOM     24  C   UNK A   0      -8.920   5.400 131.138  0.00  0.00    +0.000 A 
ATOM     25  C   UNK A   0      -9.706   5.341 129.957  0.00  0.00    +0.000 A 
ATOM     26  C   UNK A   0     -10.994   5.904 129.901  0.00  0.00    +0.000 A 
ATOM     27  C   UNK A   0     -11.570   6.427 131.048  0.00  0.00    +0.000 A 
ATOM     28  F   UNK A   0     -12.811   6.924 131.020  0.00  0.00    +0.000 F 
ATOM     29  C   UNK A   0     -10.867   6.450 132.226  0.00  0.00    +0.000 A 
ATOM     30  C   UNK A   0      -9.561   5.983 132.254  0.00  0.00    +0.000 A 
ATOM     31  F   UNK A   0      -9.000   6.175 133.444  0.00  0.00    +0.000 F 
ENDBRANCH  23  24
BRANCH  23  32
ATOM     32  C   UNK A   0      -6.366   6.299 130.958  0.00  0.00    +0.000 C 
ATOM     33  O   UNK A   0      -6.809   7.314 130.397  0.00  0.00    +0.000 OA
ATOM     34  N   UNK A   0      -4.916   6.372 131.225  0.00  0.00    +0.000 N 
ATOM     35  C   UNK A   0      -3.945   5.104 131.617  0.00  0.00    +0.000 C 
BRANCH  34  36
ATOM     36  C   UNK A   0      -4.286   7.804 130.496  0.00  0.00    +0.000 C 
BRANCH  36  37
ATOM     37  C   UNK A   0      -3.639   7.879 128.912  0.00  0.00    +0.000 C 
BRANCH  37  38
ATOM     38  O   UNK A   0      -4.128   6.875 128.017  0.00  0.00    +0.000 OA
ATOM     39  H   UNK A   0      -4.766   7.320 127.412  0.00  0.00    +0.000 HD
ENDBRANCH  37  38
ENDBRANCH  36  37
ENDBRANCH  34  36
ENDBRANCH  23  32
ENDBRANCH   8  23
TORSDOF 9
ENDMDL
MODEL 3
REMARK VINA RESULT:      -8.9      3.107      7.655
REMARK  Name = CHEMBL210029
REMARK  12 active torsions:
REMARK  status: ('A' for Active; 'I' for Inactive)
REMARK    1  A    between atoms: CD1_1  and  CG_2
REMARK    2  A    between atoms: CG_2  and  CD2_3
REMARK    3  A    between atoms: CG_2  and  CB_4
REMARK    4  A    between atoms: CB_4  and  CA_5
REMARK    5  A    between atoms: C_9  and  C_10
REMARK    6  A    between atoms: N_21  and  C_22
REMARK    7  A    between atoms: C_22  and  C_23
REMARK    8  A    between atoms: C_22  and  C_30
REMARK    9  A    between atoms: N_25  and  C_26
REMARK   10  A    between atoms: N_25  and  C_27
REMARK   11  A    between atoms: C_27  and  C_28
REMARK   12  A    between atoms: C_28  and  O_29
REMARK                            x       y       z     vdW  Elec       q    Type
REMARK                         _______ _______ _______ _____ _____    ______ ____
ROOT
ATOM      1  CA  LEU A   2      -7.394   2.007 131.562  0.00  0.00    +0.000 C 
ATOM      2  C   LEU A   2      -7.182   0.594 132.085  0.00  0.00    +0.000 C 
ATOM      3  O   LEU A   2      -7.499   0.140 133.148  0.00  0.00    +0.000 OA
ATOM      4  N   UNK A   1      -6.516  -0.112 131.158  0.00  0.00    +0.000 N 
ATOM      5  C   UNK A   1      -6.728   0.257 129.784  0.00  0.00    +0.000 C 
ATOM      6  C   UNK A   1      -6.332   1.732 129.460  0.00  0.00    +0.000 C 
ATOM      7  O   UNK A   1      -5.947   1.997 128.341  0.00  0.00    +0.000 OA
ATOM      8  N   LEU A   2      -6.523   2.623 130.520  0.00  0.00    +0.000 N 
ATOM      9  H   UNK A   1      -6.244  -1.023 131.500  0.00  0.00    +0.000 HD
ENDROOT
BRANCH   5  10
ATOM     10  C   UNK A   1      -5.861  -0.590 128.878  0.00  0.00    +0.000 C 
ATOM     11  C   UNK A   1      -6.405  -0.625 127.450  0.00  0.00    +0.000 C 
ATOM     12  C   UNK A   1      -7.286  -1.836 127.499  0.00  0.00    +0.000 A 
ATOM     13  C   UNK A   1      -8.353  -2.128 126.674  0.00  0.00    +0.000 A 
ATOM     14  C   UNK A   1      -9.135  -3.242 126.979  0.00  0.00    +0.000 A 
ATOM     15  C   UNK A   1      -8.864  -4.027 128.111  0.00  0.00    +0.000 A 
ATOM     16  C   UNK A   1      -7.798  -3.717 128.956  0.00  0.00    +0.000 A 
ATOM     17  C   UNK A   1      -7.003  -2.634 128.622  0.00  0.00    +0.000 A 
ATOM     18  C   UNK A   1      -5.873  -2.051 129.414  0.00  0.00    +0.000 C 
ENDBRANCH   5  10
BRANCH   1  19
ATOM     19  CB  LEU A   2      -7.111   2.658 132.819  0.00  0.00    +0.000 C 
BRANCH  19  21
ATOM     20  CD1 LEU A   2      -7.797   4.270 134.451  0.00  0.00    +0.000 C 
ATOM     21  CG  LEU A   2      -8.279   3.091 133.707  0.00  0.00    +0.000 C 
ATOM     22  CD2 LEU A   2      -9.558   3.743 133.278  0.00  0.00    +0.000 C 
ENDBRANCH  19  21
ENDBRANCH   1  19
BRANCH   8  23
ATOM     23  C   UNK A   0      -6.150   4.215 130.514  0.00  0.00    +0.000 C 
BRANCH  23  24
ATOM     24  C   UNK A   0      -7.464   5.075 130.367  0.00  0.00    +0.000 A 
ATOM     25  C   UNK A   0      -7.658   6.161 131.260  0.00  0.00    +0.000 A 
ATOM     26  C   UNK A   0      -8.880   6.854 131.322  0.00  0.00    +0.000 A 
ATOM     27  C   UNK A   0      -9.887   6.561 130.417  0.00  0.00    +0.000 A 
ATOM     28  F   UNK A   0     -11.038   7.243 130.434  0.00  0.00    +0.000 F 
ATOM     29  C   UNK A   0      -9.719   5.557 129.496  0.00  0.00    +0.000 A 
ATOM     30  C   UNK A   0      -8.549   4.811 129.503  0.00  0.00    +0.000 A 
ATOM     31  F   UNK A   0      -8.599   3.820 128.617  0.00  0.00    +0.000 F 
ENDBRANCH  23  24
BRANCH  23  32
ATOM     32  C   UNK A   0      -4.917   4.794 129.475  0.00  0.00    +0.000 C 
ATOM     33  O   UNK A   0      -5.202   4.908 128.272  0.00  0.00    +0.000 OA
ATOM     34  N   UNK A   0      -3.474   4.951 129.743  0.00  0.00    +0.000 N 
ATOM     35  C   UNK A   0      -2.702   4.520 131.130  0.00  0.00    +0.000 C 
BRANCH  34  36
ATOM     36  C   UNK A   0      -2.636   5.072 128.240  0.00  0.00    +0.000 C 
BRANCH  36  37
ATOM     37  C   UNK A   0      -2.203   3.734 127.263  0.00  0.00    +0.000 C 
BRANCH  37  38
ATOM     38  O   UNK A   0      -3.132   2.646 127.291  0.00  0.00    +0.000 OA
ATOM     39  H   UNK A   0      -3.643   2.730 128.129  0.00  0.00    +0.000 HD
ENDBRANCH  37  38
ENDBRANCH  36  37
ENDBRANCH  34  36
ENDBRANCH  23  32
ENDBRANCH   8  23
TORSDOF 9
ENDMDL
MODEL 4
REMARK VINA RESULT:      -8.9      3.229      6.754
REMARK  Name = CHEMBL210029
REMARK  12 active torsions:
REMARK  status: ('A' for Active; 'I' for Inactive)
REMARK    1  A    between atoms: CD1_1  and  CG_2
REMARK    2  A    between atoms: CG_2  and  CD2_3
REMARK    3  A    between atoms: CG_2  and  CB_4
REMARK    4  A    between atoms: CB_4  and  CA_5
REMARK    5  A    between atoms: C_9  and  C_10
REMARK    6  A    between atoms: N_21  and  C_22
REMARK    7  A    between atoms: C_22  and  C_23
REMARK    8  A    between atoms: C_22  and  C_30
REMARK    9  A    between atoms: N_25  and  C_26
REMARK   10  A    between atoms: N_25  and  C_27
REMARK   11  A    between atoms: C_27  and  C_28
REMARK   12  A    between atoms: C_28  and  O_29
REMARK                            x       y       z     vdW  Elec       q    Type
REMARK                         _______ _______ _______ _____ _____    ______ ____
ROOT
ATOM      1  CA  LEU A   2      -8.446   1.724 129.105  0.00  0.00    +0.000 C 
ATOM      2  C   LEU A   2      -7.841   0.560 128.334  0.00  0.00    +0.000 C 
ATOM      3  O   LEU A   2      -7.685  -0.571 128.698  0.00  0.00    +0.000 OA
ATOM      4  N   UNK A   1      -7.443   1.003 127.131  0.00  0.00    +0.000 N 
ATOM      5  C   UNK A   1      -8.184   2.098 126.564  0.00  0.00    +0.000 C 
ATOM      6  C   UNK A   1      -8.167   3.389 127.441  0.00  0.00    +0.000 C 
ATOM      7  O   UNK A   1      -8.250   4.466 126.889  0.00  0.00    +0.000 OA
ATOM      8  N   LEU A   2      -8.109   3.149 128.817  0.00  0.00    +0.000 N 
ATOM      9  H   UNK A   1      -6.927   0.299 126.622  0.00  0.00    +0.000 HD
ENDROOT
BRANCH   5  10
ATOM     10  C   UNK A   1      -7.570   2.512 125.243  0.00  0.00    +0.000 C 
ATOM     11  C   UNK A   1      -8.642   2.843 124.205  0.00  0.00    +0.000 C 
ATOM     12  C   UNK A   1      -8.826   1.514 123.538  0.00  0.00    +0.000 A 
ATOM     13  C   UNK A   1      -9.931   1.078 122.835  0.00  0.00    +0.000 A 
ATOM     14  C   UNK A   1      -9.959  -0.252 122.413  0.00  0.00    +0.000 A 
ATOM     15  C   UNK A   1      -8.907  -1.130 122.721  0.00  0.00    +0.000 A 
ATOM     16  C   UNK A   1      -7.803  -0.691 123.450  0.00  0.00    +0.000 A 
ATOM     17  C   UNK A   1      -7.765   0.640 123.829  0.00  0.00    +0.000 A 
ATOM     18  C   UNK A   1      -6.743   1.316 124.691  0.00  0.00    +0.000 C 
ENDBRANCH   5  10
BRANCH   1  19
ATOM     19  CB  LEU A   2      -7.844   1.374 130.370  0.00  0.00    +0.000 C 
BRANCH  19  21
ATOM     20  CD1 LEU A   2      -8.312  -0.032 132.250  0.00  0.00    +0.000 C 
ATOM     21  CG  LEU A   2      -8.741   1.219 131.599  0.00  0.00    +0.000 C 
ATOM     22  CD2 LEU A   2      -8.703   2.024 132.863  0.00  0.00    +0.000 C 
ENDBRANCH  19  21
ENDBRANCH   1  19
BRANCH   8  23
ATOM     23  C   UNK A   0      -8.020   4.286 129.987  0.00  0.00    +0.000 C 
BRANCH  23  24
ATOM     24  C   UNK A   0      -9.343   5.146 130.004  0.00  0.00    +0.000 A 
ATOM     25  C   UNK A   0      -9.238   6.541 129.766  0.00  0.00    +0.000 A 
ATOM     26  C   UNK A   0     -10.334   7.404 129.952  0.00  0.00    +0.000 A 
ATOM     27  C   UNK A   0     -11.579   6.882 130.259  0.00  0.00    +0.000 A 
ATOM     28  F   UNK A   0     -12.640   7.686 130.394  0.00  0.00    +0.000 F 
ATOM     29  C   UNK A   0     -11.738   5.531 130.440  0.00  0.00    +0.000 A 
ATOM     30  C   UNK A   0     -10.635   4.694 130.352  0.00  0.00    +0.000 A 
ATOM     31  F   UNK A   0     -10.950   3.438 130.655  0.00  0.00    +0.000 F 
ENDBRANCH  23  24
BRANCH  23  32
ATOM     32  C   UNK A   0      -6.634   5.288 130.093  0.00  0.00    +0.000 C 
ATOM     33  O   UNK A   0      -5.887   5.322 129.102  0.00  0.00    +0.000 OA
ATOM     34  N   UNK A   0      -6.048   5.939 131.281  0.00  0.00    +0.000 N 
ATOM     35  C   UNK A   0      -6.582   5.777 132.828  0.00  0.00    +0.000 C 
BRANCH  34  36
ATOM     36  C   UNK A   0      -4.419   6.384 130.927  0.00  0.00    +0.000 C 
BRANCH  36  37
ATOM     37  C   UNK A   0      -3.953   7.880 130.237  0.00  0.00    +0.000 C 
BRANCH  37  38
ATOM     38  O   UNK A   0      -4.176   7.984 128.827  0.00  0.00    +0.000 OA
ATOM     39  H   UNK A   0      -3.734   8.813 128.530  0.00  0.00    +0.000 HD
ENDBRANCH  37  38
ENDBRANCH  36  37
ENDBRANCH  34  36
ENDBRANCH  23  32
ENDBRANCH   8  23
TORSDOF 9
ENDMDL
MODEL 5
REMARK VINA RESULT:      -8.8      2.970      6.682
REMARK  Name = CHEMBL210029
REMARK  12 active torsions:
REMARK  status: ('A' for Active; 'I' for Inactive)
REMARK    1  A    between atoms: CD1_1  and  CG_2
REMARK    2  A    between atoms: CG_2  and  CD2_3
REMARK    3  A    between atoms: CG_2  and  CB_4
REMARK    4  A    between atoms: CB_4  and  CA_5
REMARK    5  A    between atoms: C_9  and  C_10
REMARK    6  A    between atoms: N_21  and  C_22
REMARK    7  A    between atoms: C_22  and  C_23
REMARK    8  A    between atoms: C_22  and  C_30
REMARK    9  A    between atoms: N_25  and  C_26
REMARK   10  A    between atoms: N_25  and  C_27
REMARK   11  A    between atoms: C_27  and  C_28
REMARK   12  A    between atoms: C_28  and  O_29
REMARK                            x       y       z     vdW  Elec       q    Type
REMARK                         _______ _______ _______ _____ _____    ______ ____
ROOT
ATOM      1  CA  LEU A   2      -5.725   3.281 127.629  0.00  0.00    +0.000 C 
ATOM      2  C   LEU A   2      -5.429   3.042 126.156  0.00  0.00    +0.000 C 
ATOM      3  O   LEU A   2      -4.443   3.331 125.540  0.00  0.00    +0.000 OA
ATOM      4  N   UNK A   1      -6.502   2.466 125.591  0.00  0.00    +0.000 N 
ATOM      5  C   UNK A   1      -7.311   1.629 126.437  0.00  0.00    +0.000 C 
ATOM      6  C   UNK A   1      -7.916   2.377 127.667  0.00  0.00    +0.000 C 
ATOM      7  O   UNK A   1      -8.978   1.997 128.112  0.00  0.00    +0.000 OA
ATOM      8  N   LEU A   2      -7.111   3.404 128.167  0.00  0.00    +0.000 N 
ATOM      9  H   UNK A   1      -6.406   2.392 124.588  0.00  0.00    +0.000 HD
ENDROOT
BRANCH   5  10
ATOM     10  C   UNK A   1      -8.506   1.111 125.666  0.00  0.00    +0.000 C 
ATOM     11  C   UNK A   1      -8.835  -0.333 126.043  0.00  0.00    +0.000 C 
ATOM     12  C   UNK A   1      -8.034  -1.092 125.030  0.00  0.00    +0.000 A 
ATOM     13  C   UNK A   1      -7.588  -2.395 125.124  0.00  0.00    +0.000 A 
ATOM     14  C   UNK A   1      -6.732  -2.870 124.129  0.00  0.00    +0.000 A 
ATOM     15  C   UNK A   1      -6.310  -2.037 123.080  0.00  0.00    +0.000 A 
ATOM     16  C   UNK A   1      -6.746  -0.715 123.001  0.00  0.00    +0.000 A 
ATOM     17  C   UNK A   1      -7.628  -0.265 123.968  0.00  0.00    +0.000 A 
ATOM     18  C   UNK A   1      -8.155   1.126 124.150  0.00  0.00    +0.000 C 
ENDBRANCH   5  10
BRANCH   1  19
ATOM     19  CB  LEU A   2      -5.113   4.589 127.677  0.00  0.00    +0.000 C 
BRANCH  19  21
ATOM     20  CD1 LEU A   2      -3.476   3.474 129.022  0.00  0.00    +0.000 C 
ATOM     21  CG  LEU A   2      -3.932   4.818 128.622  0.00  0.00    +0.000 C 
ATOM     22  CD2 LEU A   2      -2.559   5.301 128.264  0.00  0.00    +0.000 C 
ENDBRANCH  19  21
ENDBRANCH   1  19
BRANCH   8  23
ATOM     23  C   UNK A   0      -7.489   4.404 129.404  0.00  0.00    +0.000 C 
BRANCH  23  24
ATOM     24  C   UNK A   0      -7.402   3.624 130.772  0.00  0.00    +0.000 A 
ATOM     25  C   UNK A   0      -6.166   3.629 131.470  0.00  0.00    +0.000 A 
ATOM     26  C   UNK A   0      -5.950   2.808 132.591  0.00  0.00    +0.000 A 
ATOM     27  C   UNK A   0      -6.993   2.058 133.110  0.00  0.00    +0.000 A 
ATOM     28  F   UNK A   0      -6.815   1.307 134.202  0.00  0.00    +0.000 F 
ATOM     29  C   UNK A   0      -8.223   2.069 132.501  0.00  0.00    +0.000 A 
ATOM     30  C   UNK A   0      -8.404   2.805 131.338  0.00  0.00    +0.000 A 
ATOM     31  F   UNK A   0      -9.619   2.621 130.829  0.00  0.00    +0.000 F 
ENDBRANCH  23  24
BRANCH  23  32
ATOM     32  C   UNK A   0      -8.915   5.350 129.325  0.00  0.00    +0.000 C 
ATOM     33  O   UNK A   0      -9.362   5.601 128.194  0.00  0.00    +0.000 OA
ATOM     34  N   UNK A   0      -9.572   6.130 130.392  0.00  0.00    +0.000 N 
ATOM     35  C   UNK A   0      -9.013   6.321 131.926  0.00  0.00    +0.000 C 
BRANCH  34  36
ATOM     36  C   UNK A   0     -10.642   7.275 129.668  0.00  0.00    +0.000 C 
BRANCH  36  37
ATOM     37  C   UNK A   0     -12.236   6.919 129.155  0.00  0.00    +0.000 C 
BRANCH  37  38
ATOM     38  O   UNK A   0     -12.342   6.456 127.805  0.00  0.00    +0.000 OA
ATOM     39  H   UNK A   0     -11.510   6.720 127.348  0.00  0.00    +0.000 HD
ENDBRANCH  37  38
ENDBRANCH  36  37
ENDBRANCH  34  36
ENDBRANCH  23  32
ENDBRANCH   8  23
TORSDOF 9
ENDMDL
MODEL 6
REMARK VINA RESULT:      -8.8      3.292      7.589
REMARK  Name = CHEMBL210029
REMARK  12 active torsions:
REMARK  status: ('A' for Active; 'I' for Inactive)
REMARK    1  A    between atoms: CD1_1  and  CG_2
REMARK    2  A    between atoms: CG_2  and  CD2_3
REMARK    3  A    between atoms: CG_2  and  CB_4
REMARK    4  A    between atoms: CB_4  and  CA_5
REMARK    5  A    between atoms: C_9  and  C_10
REMARK    6  A    between atoms: N_21  and  C_22
REMARK    7  A    between atoms: C_22  and  C_23
REMARK    8  A    between atoms: C_22  and  C_30
REMARK    9  A    between atoms: N_25  and  C_26
REMARK   10  A    between atoms: N_25  and  C_27
REMARK   11  A    between atoms: C_27  and  C_28
REMARK   12  A    between atoms: C_28  and  O_29
REMARK                            x       y       z     vdW  Elec       q    Type
REMARK                         _______ _______ _______ _____ _____    ______ ____
ROOT
ATOM      1  CA  LEU A   2      -5.172   1.688 128.409  0.00  0.00    +0.000 C 
ATOM      2  C   LEU A   2      -5.508   0.299 127.885  0.00  0.00    +0.000 C 
ATOM      3  O   LEU A   2      -5.120  -0.231 126.883  0.00  0.00    +0.000 OA
ATOM      4  N   UNK A   1      -6.382  -0.277 128.726  0.00  0.00    +0.000 N 
ATOM      5  C   UNK A   1      -6.304   0.108 130.110  0.00  0.00    +0.000 C 
ATOM      6  C   UNK A   1      -6.531   1.634 130.351  0.00  0.00    +0.000 C 
ATOM      7  O   UNK A   1      -7.019   1.988 131.403  0.00  0.00    +0.000 OA
ATOM      8  N   LEU A   2      -6.079   2.453 129.313  0.00  0.00    +0.000 N 
ATOM      9  H   UNK A   1      -6.731  -1.154 128.365  0.00  0.00    +0.000 HD
ENDROOT
BRANCH   5  10
ATOM     10  C   UNK A   1      -7.393  -0.581 130.904  0.00  0.00    +0.000 C 
ATOM     11  C   UNK A   1      -6.867  -1.111 132.237  0.00  0.00    +0.000 C 
ATOM     12  C   UNK A   1      -6.460  -2.503 131.860  0.00  0.00    +0.000 A 
ATOM     13  C   UNK A   1      -5.543  -3.309 132.505  0.00  0.00    +0.000 A 
ATOM     14  C   UNK A   1      -5.201  -4.523 131.908  0.00  0.00    +0.000 A 
ATOM     15  C   UNK A   1      -5.749  -4.900 130.671  0.00  0.00    +0.000 A 
ATOM     16  C   UNK A   1      -6.658  -4.073 130.012  0.00  0.00    +0.000 A 
ATOM     17  C   UNK A   1      -7.023  -2.890 130.632  0.00  0.00    +0.000 A 
ATOM     18  C   UNK A   1      -7.897  -1.804 130.085  0.00  0.00    +0.000 C 
ENDBRANCH   5  10
BRANCH   1  19
ATOM     19  CB  LEU A   2      -5.193   2.327 127.114  0.00  0.00    +0.000 C 
BRANCH  19  21
ATOM     20  CD1 LEU A   2      -4.124   4.031 125.817  0.00  0.00    +0.000 C 
ATOM     21  CG  LEU A   2      -3.868   2.733 126.469  0.00  0.00    +0.000 C 
ATOM     22  CD2 LEU A   2      -2.621   3.197 127.160  0.00  0.00    +0.000 C 
ENDBRANCH  19  21
ENDBRANCH   1  19
BRANCH   8  23
ATOM     23  C   UNK A   0      -6.224   4.080 129.241  0.00  0.00    +0.000 C 
BRANCH  23  24
ATOM     24  C   UNK A   0      -4.861   4.760 129.650  0.00  0.00    +0.000 A 
ATOM     25  C   UNK A   0      -4.454   5.922 128.944  0.00  0.00    +0.000 A 
ATOM     26  C   UNK A   0      -3.172   6.476 129.114  0.00  0.00    +0.000 A 
ATOM     27  C   UNK A   0      -2.318   5.957 130.074  0.00  0.00    +0.000 A 
ATOM     28  F   UNK A   0      -1.113   6.502 130.278  0.00  0.00    +0.000 F 
ATOM     29  C   UNK A   0      -2.695   4.870 130.821  0.00  0.00    +0.000 A 
ATOM     30  C   UNK A   0      -3.922   4.267 130.582  0.00  0.00    +0.000 A 
ATOM     31  F   UNK A   0      -4.079   3.172 131.320  0.00  0.00    +0.000 F 
ENDBRANCH  23  24
BRANCH  23  32
ATOM     32  C   UNK A   0      -7.550   4.848 130.009  0.00  0.00    +0.000 C 
ATOM     33  O   UNK A   0      -8.431   5.319 129.272  0.00  0.00    +0.000 OA
ATOM     34  N   UNK A   0      -7.694   5.261 131.419  0.00  0.00    +0.000 N 
ATOM     35  C   UNK A   0      -6.540   5.128 132.583  0.00  0.00    +0.000 C 
BRANCH  34  36
ATOM     36  C   UNK A   0      -8.967   6.420 131.534  0.00  0.00    +0.000 C 
BRANCH  36  37
ATOM     37  C   UNK A   0     -10.597   6.035 131.887  0.00  0.00    +0.000 C 
BRANCH  37  38
ATOM     38  O   UNK A   0     -11.160   5.003 131.070  0.00  0.00    +0.000 OA
ATOM     39  H   UNK A   0     -11.411   5.423 130.215  0.00  0.00    +0.000 HD
ENDBRANCH  37  38
ENDBRANCH  36  37
ENDBRANCH  34  36
ENDBRANCH  23  32
ENDBRANCH   8  23
TORSDOF 9
ENDMDL
MODEL 7
REMARK VINA RESULT:      -8.6      3.834      6.254
REMARK  Name = CHEMBL210029
REMARK  12 active torsions:
REMARK  status: ('A' for Active; 'I' for Inactive)
REMARK    1  A    between atoms: CD1_1  and  CG_2
REMARK    2  A    between atoms: CG_2  and  CD2_3
REMARK    3  A    between atoms: CG_2  and  CB_4
REMARK    4  A    between atoms: CB_4  and  CA_5
REMARK    5  A    between atoms: C_9  and  C_10
REMARK    6  A    between atoms: N_21  and  C_22
REMARK    7  A    between atoms: C_22  and  C_23
REMARK    8  A    between atoms: C_22  and  C_30
REMARK    9  A    between atoms: N_25  and  C_26
REMARK   10  A    between atoms: N_25  and  C_27
REMARK   11  A    between atoms: C_27  and  C_28
REMARK   12  A    between atoms: C_28  and  O_29
REMARK                            x       y       z     vdW  Elec       q    Type
REMARK                         _______ _______ _______ _____ _____    ______ ____
ROOT
ATOM      1  CA  LEU A   2      -7.561   1.674 126.702  0.00  0.00    +0.000 C 
ATOM      2  C   LEU A   2      -7.549   3.151 127.067  0.00  0.00    +0.000 C 
ATOM      3  O   LEU A   2      -7.367   4.092 126.348  0.00  0.00    +0.000 OA
ATOM      4  N   UNK A   1      -7.741   3.268 128.390  0.00  0.00    +0.000 N 
ATOM      5  C   UNK A   1      -8.531   2.247 129.025  0.00  0.00    +0.000 C 
ATOM      6  C   UNK A   1      -7.939   0.810 128.877  0.00  0.00    +0.000 C 
ATOM      7  O   UNK A   1      -8.156   0.001 129.754  0.00  0.00    +0.000 OA
ATOM      8  N   LEU A   2      -7.246   0.595 127.683  0.00  0.00    +0.000 N 
ATOM      9  H   UNK A   1      -7.624   4.220 128.706  0.00  0.00    +0.000 HD
ENDROOT
BRANCH   5  10
ATOM     10  C   UNK A   1      -8.597   2.493 130.517  0.00  0.00    +0.000 C 
ATOM     11  C   UNK A   1     -10.017   2.836 130.968  0.00  0.00    +0.000 C 
ATOM     12  C   UNK A   1     -10.004   4.331 130.868  0.00  0.00    +0.000 A 
ATOM     13  C   UNK A   1     -11.094   5.168 130.729  0.00  0.00    +0.000 A 
ATOM     14  C   UNK A   1     -10.855   6.525 130.509  0.00  0.00    +0.000 A 
ATOM     15  C   UNK A   1      -9.546   7.021 130.400  0.00  0.00    +0.000 A 
ATOM     16  C   UNK A   1      -8.449   6.169 130.520  0.00  0.00    +0.000 A 
ATOM     17  C   UNK A   1      -8.694   4.831 130.780  0.00  0.00    +0.000 A 
ATOM     18  C   UNK A   1      -7.696   3.716 130.852  0.00  0.00    +0.000 C 
ENDBRANCH   5  10
BRANCH   1  19
ATOM     19  CB  LEU A   2      -6.463   1.758 125.768  0.00  0.00    +0.000 C 
BRANCH  19  21
ATOM     20  CD1 LEU A   2      -8.182   1.246 124.183  0.00  0.00    +0.000 C 
ATOM     21  CG  LEU A   2      -6.737   1.519 124.282  0.00  0.00    +0.000 C 
ATOM     22  CD2 LEU A   2      -6.738   2.536 123.180  0.00  0.00    +0.000 C 
ENDBRANCH  19  21
ENDBRANCH   1  19
BRANCH   8  23
ATOM     23  C   UNK A   0      -6.466  -0.778 127.260  0.00  0.00    +0.000 C 
BRANCH  23  24
ATOM     24  C   UNK A   0      -7.318  -1.576 126.200  0.00  0.00    +0.000 A 
ATOM     25  C   UNK A   0      -8.724  -1.640 126.381  0.00  0.00    +0.000 A 
ATOM     26  C   UNK A   0      -9.530  -2.484 125.595  0.00  0.00    +0.000 A 
ATOM     27  C   UNK A   0      -8.971  -3.187 124.540  0.00  0.00    +0.000 A 
ATOM     28  F   UNK A   0      -9.733  -3.958 123.756  0.00  0.00    +0.000 F 
ATOM     29  C   UNK A   0      -7.624  -3.107 124.292  0.00  0.00    +0.000 A 
ATOM     30  C   UNK A   0      -6.817  -2.350 125.130  0.00  0.00    +0.000 A 
ATOM     31  F   UNK A   0      -5.532  -2.468 124.807  0.00  0.00    +0.000 F 
ENDBRANCH  23  24
BRANCH  23  32
ATOM     32  C   UNK A   0      -5.865  -1.823 128.479  0.00  0.00    +0.000 C 
ATOM     33  O   UNK A   0      -4.632  -1.924 128.576  0.00  0.00    +0.000 OA
ATOM     34  N   UNK A   0      -6.592  -2.823 129.285  0.00  0.00    +0.000 N 
ATOM     35  C   UNK A   0      -8.183  -3.212 129.129  0.00  0.00    +0.000 C 
BRANCH  34  36
ATOM     36  C   UNK A   0      -5.453  -3.925 129.967  0.00  0.00    +0.000 C 
BRANCH  36  37
ATOM     37  C   UNK A   0      -5.559  -4.570 131.549  0.00  0.00    +0.000 C 
BRANCH  37  38
ATOM     38  O   UNK A   0      -4.540  -4.120 132.448  0.00  0.00    +0.000 OA
ATOM     39  H   UNK A   0      -4.282  -4.897 132.998  0.00  0.00    +0.000 HD
ENDBRANCH  37  38
ENDBRANCH  36  37
ENDBRANCH  34  36
ENDBRANCH  23  32
ENDBRANCH   8  23
TORSDOF 9
ENDMDL
MODEL 8
REMARK VINA RESULT:      -8.3      3.171      4.942
REMARK  Name = CHEMBL210029
REMARK  12 active torsions:
REMARK  status: ('A' for Active; 'I' for Inactive)
REMARK    1  A    between atoms: CD1_1  and  CG_2
REMARK    2  A    between atoms: CG_2  and  CD2_3
REMARK    3  A    between atoms: CG_2  and  CB_4
REMARK    4  A    between atoms: CB_4  and  CA_5
REMARK    5  A    between atoms: C_9  and  C_10
REMARK    6  A    between atoms: N_21  and  C_22
REMARK    7  A    between atoms: C_22  and  C_23
REMARK    8  A    between atoms: C_22  and  C_30
REMARK    9  A    between atoms: N_25  and  C_26
REMARK   10  A    between atoms: N_25  and  C_27
REMARK   11  A    between atoms: C_27  and  C_28
REMARK   12  A    between atoms: C_28  and  O_29
REMARK                            x       y       z     vdW  Elec       q    Type
REMARK                         _______ _______ _______ _____ _____    ______ ____
ROOT
ATOM      1  CA  LEU A   2      -7.166   2.698 126.918  0.00  0.00    +0.000 C 
ATOM      2  C   LEU A   2      -7.550   4.156 127.125  0.00  0.00    +0.000 C 
ATOM      3  O   LEU A   2      -7.458   5.065 126.351  0.00  0.00    +0.000 OA
ATOM      4  N   UNK A   1      -7.998   4.307 128.381  0.00  0.00    +0.000 N 
ATOM      5  C   UNK A   1      -8.640   3.170 128.984  0.00  0.00    +0.000 C 
ATOM      6  C   UNK A   1      -7.725   1.909 129.082  0.00  0.00    +0.000 C 
ATOM      7  O   UNK A   1      -7.909   1.129 129.993  0.00  0.00    +0.000 OA
ATOM      8  N   LEU A   2      -6.798   1.790 128.043  0.00  0.00    +0.000 N 
ATOM      9  H   UNK A   1      -8.156   5.278 128.611  0.00  0.00    +0.000 HD
ENDROOT
BRANCH   5  10
ATOM     10  C   UNK A   1      -9.026   3.487 130.413  0.00  0.00    +0.000 C 
ATOM     11  C   UNK A   1     -10.544   3.545 130.586  0.00  0.00    +0.000 C 
ATOM     12  C   UNK A   1     -10.813   4.999 130.342  0.00  0.00    +0.000 A 
ATOM     13  C   UNK A   1     -12.003   5.573 129.942  0.00  0.00    +0.000 A 
ATOM     14  C   UNK A   1     -12.005   6.933 129.632  0.00  0.00    +0.000 A 
ATOM     15  C   UNK A   1     -10.824   7.691 129.695  0.00  0.00    +0.000 A 
ATOM     16  C   UNK A   1      -9.620   7.102 130.078  0.00  0.00    +0.000 A 
ATOM     17  C   UNK A   1      -9.635   5.762 130.424  0.00  0.00    +0.000 A 
ATOM     18  C   UNK A   1      -8.465   4.893 130.771  0.00  0.00    +0.000 C 
ENDBRANCH   5  10
BRANCH   1  19
ATOM     19  CB  LEU A   2      -5.965   2.982 126.167  0.00  0.00    +0.000 C 
BRANCH  19  21
ATOM     20  CD1 LEU A   2      -7.230   2.022 124.376  0.00  0.00    +0.000 C 
ATOM     21  CG  LEU A   2      -5.934   2.660 124.672  0.00  0.00    +0.000 C 
ATOM     22  CD2 LEU A   2      -6.019   3.626 123.529  0.00  0.00    +0.000 C 
ENDBRANCH  19  21
ENDBRANCH   1  19
BRANCH   8  23
ATOM     23  C   UNK A   0      -5.668   0.619 127.895  0.00  0.00    +0.000 C 
BRANCH  23  24
ATOM     24  C   UNK A   0      -6.145  -0.460 126.848  0.00  0.00    +0.000 A 
ATOM     25  C   UNK A   0      -5.284  -0.768 125.763  0.00  0.00    +0.000 A 
ATOM     26  C   UNK A   0      -5.710  -1.571 124.689  0.00  0.00    +0.000 A 
ATOM     27  C   UNK A   0      -6.954  -2.179 124.733  0.00  0.00    +0.000 A 
ATOM     28  F   UNK A   0      -7.355  -2.981 123.740  0.00  0.00    +0.000 F 
ATOM     29  C   UNK A   0      -7.796  -1.956 125.793  0.00  0.00    +0.000 A 
ATOM     30  C   UNK A   0      -7.410  -1.086 126.803  0.00  0.00    +0.000 A 
ATOM     31  F   UNK A   0      -8.384  -0.908 127.691  0.00  0.00    +0.000 F 
ENDBRANCH  23  24
BRANCH  23  32
ATOM     32  C   UNK A   0      -5.029  -0.127 129.299  0.00  0.00    +0.000 C 
ATOM     33  O   UNK A   0      -5.305  -1.325 129.475  0.00  0.00    +0.000 OA
ATOM     34  N   UNK A   0      -4.396   0.499 130.477  0.00  0.00    +0.000 N 
ATOM     35  C   UNK A   0      -4.225   2.114 130.731  0.00  0.00    +0.000 C 
BRANCH  34  36
ATOM     36  C   UNK A   0      -4.411  -0.628 131.783  0.00  0.00    +0.000 C 
BRANCH  36  37
ATOM     37  C   UNK A   0      -3.081  -1.610 132.230  0.00  0.00    +0.000 C 
BRANCH  37  38
ATOM     38  O   UNK A   0      -3.141  -2.955 131.747  0.00  0.00    +0.000 OA
ATOM     39  H   UNK A   0      -3.463  -2.910 130.817  0.00  0.00    +0.000 HD
ENDBRANCH  37  38
ENDBRANCH  36  37
ENDBRANCH  34  36
ENDBRANCH  23  32
ENDBRANCH   8  23
TORSDOF 9
ENDMDL
MODEL 9
REMARK VINA RESULT:      -8.2      2.657      4.517
REMARK  Name = CHEMBL210029
REMARK  12 active torsions:
REMARK  status: ('A' for Active; 'I' for Inactive)
REMARK    1  A    between atoms: CD1_1  and  CG_2
REMARK    2  A    between atoms: CG_2  and  CD2_3
REMARK    3  A    between atoms: CG_2  and  CB_4
REMARK    4  A    between atoms: CB_4  and  CA_5
REMARK    5  A    between atoms: C_9  and  C_10
REMARK    6  A    between atoms: N_21  and  C_22
REMARK    7  A    between atoms: C_22  and  C_23
REMARK    8  A    between atoms: C_22  and  C_30
REMARK    9  A    between atoms: N_25  and  C_26
REMARK   10  A    between atoms: N_25  and  C_27
REMARK   11  A    between atoms: C_27  and  C_28
REMARK   12  A    between atoms: C_28  and  O_29
REMARK                            x       y       z     vdW  Elec       q    Type
REMARK                         _______ _______ _______ _____ _____    ______ ____
ROOT
ATOM      1  CA  LEU A   2      -7.384   5.248 129.938  0.00  0.00    +0.000 C 
ATOM      2  C   LEU A   2      -7.803   6.525 130.652  0.00  0.00    +0.000 C 
ATOM      3  O   LEU A   2      -7.138   7.492 130.896  0.00  0.00    +0.000 OA
ATOM      4  N   UNK A   1      -9.084   6.403 131.032  0.00  0.00    +0.000 N 
ATOM      5  C   UNK A   1      -9.930   5.578 130.212  0.00  0.00    +0.000 C 
ATOM      6  C   UNK A   1      -9.449   4.096 130.105  0.00  0.00    +0.000 C 
ATOM      7  O   UNK A   1     -10.280   3.227 129.941  0.00  0.00    +0.000 OA
ATOM      8  N   LEU A   2      -8.062   3.937 130.158  0.00  0.00    +0.000 N 
ATOM      9  H   UNK A   1      -9.380   7.174 131.615  0.00  0.00    +0.000 HD
ENDROOT
BRANCH   5  10
ATOM     10  C   UNK A   1     -11.318   5.497 130.812  0.00  0.00    +0.000 C 
ATOM     11  C   UNK A   1     -12.371   5.175 129.751  0.00  0.00    +0.000 C 
ATOM     12  C   UNK A   1     -12.790   6.550 129.327  0.00  0.00    +0.000 A 
ATOM     13  C   UNK A   1     -13.378   6.912 128.131  0.00  0.00    +0.000 A 
ATOM     14  C   UNK A   1     -13.560   8.271 127.873  0.00  0.00    +0.000 A 
ATOM     15  C   UNK A   1     -13.130   9.245 128.790  0.00  0.00    +0.000 A 
ATOM     16  C   UNK A   1     -12.517   8.876 129.986  0.00  0.00    +0.000 A 
ATOM     17  C   UNK A   1     -12.378   7.524 130.252  0.00  0.00    +0.000 A 
ATOM     18  C   UNK A   1     -11.674   6.888 131.411  0.00  0.00    +0.000 C 
ENDBRANCH   5  10
BRANCH   1  19
ATOM     19  CB  LEU A   2      -6.076   5.179 130.545  0.00  0.00    +0.000 C 
BRANCH  19  21
ATOM     20  CD1 LEU A   2      -4.097   6.473 130.173  0.00  0.00    +0.000 C 
ATOM     21  CG  LEU A   2      -4.839   5.309 129.654  0.00  0.00    +0.000 C 
ATOM     22  CD2 LEU A   2      -3.638   4.413 129.624  0.00  0.00    +0.000 C 
ENDBRANCH  19  21
ENDBRANCH   1  19
BRANCH   8  23
ATOM     23  C   UNK A   0      -7.256   2.516 130.130  0.00  0.00    +0.000 C 
BRANCH  23  24
ATOM     24  C   UNK A   0      -7.016   2.062 128.639  0.00  0.00    +0.000 A 
ATOM     25  C   UNK A   0      -5.704   2.176 128.107  0.00  0.00    +0.000 A 
ATOM     26  C   UNK A   0      -5.444   1.976 126.739  0.00  0.00    +0.000 A 
ATOM     27  C   UNK A   0      -6.458   1.543 125.900  0.00  0.00    +0.000 A 
ATOM     28  F   UNK A   0      -6.215   1.306 124.606  0.00  0.00    +0.000 F 
ATOM     29  C   UNK A   0      -7.729   1.364 126.385  0.00  0.00    +0.000 A 
ATOM     30  C   UNK A   0      -8.002   1.656 127.714  0.00  0.00    +0.000 A 
ATOM     31  F   UNK A   0      -9.298   1.524 127.985  0.00  0.00    +0.000 F 
ENDBRANCH  23  24
BRANCH  23  32
ATOM     32  C   UNK A   0      -7.811   1.207 131.088  0.00  0.00    +0.000 C 
ATOM     33  O   UNK A   0      -8.658   1.466 131.958  0.00  0.00    +0.000 OA
ATOM     34  N   UNK A   0      -7.256  -0.155 131.210  0.00  0.00    +0.000 N 
ATOM     35  C   UNK A   0      -5.892  -0.706 130.475  0.00  0.00    +0.000 C 
BRANCH  34  36
ATOM     36  C   UNK A   0      -7.863  -0.878 132.654  0.00  0.00    +0.000 C 
BRANCH  36  37
ATOM     37  C   UNK A   0      -7.751  -2.547 133.021  0.00  0.00    +0.000 C 
BRANCH  37  38
ATOM     38  O   UNK A   0      -8.633  -2.993 134.056  0.00  0.00    +0.000 OA
ATOM     39  H   UNK A   0      -8.165  -3.714 134.537  0.00  0.00    +0.000 HD
ENDBRANCH  37  38
ENDBRANCH  36  37
ENDBRANCH  34  36
ENDBRANCH  23  32
ENDBRANCH   8  23
TORSDOF 9
ENDMDL
