MODEL 1
REMARK VINA RESULT:     -11.2      0.000      0.000
REMARK  Name = CHEMBL2369840
REMARK  19 active torsions:
REMARK  status: ('A' for Active; 'I' for Inactive)
REMARK    1  A    between atoms: C_2  and  C_4
REMARK    2  A    between atoms: C_4  and  N_5
REMARK    3  A    between atoms: C_6  and  C_8
REMARK    4  A    between atoms: C_8  and  C_9
REMARK    5  A    between atoms: C_8  and  N_16
REMARK    6  A    between atoms: C_9  and  C_10
REMARK    7  A    between atoms: C_10  and  C_11
REMARK    8  A    between atoms: C_11  and  N_12
REMARK    9  A    between atoms: C_17  and  C_19
REMARK   10  A    between atoms: C_24  and  C_26
REMARK   11  A    between atoms: C_35  and  C_36
REMARK   12  A    between atoms: C_36  and  C_37
REMARK   13  A    between atoms: C_40  and  O_41
REMARK   14  A    between atoms: C_47  and  C_48
REMARK   15  A    between atoms: C_48  and  C_49
REMARK   16  A    between atoms: C_58  and  C_59
REMARK   17  A    between atoms: C_59  and  C_60
REMARK   18  A    between atoms: C_72  and  C_73
REMARK   19  A    between atoms: C_73  and  C_74
REMARK                            x       y       z     vdW  Elec       q    Type
REMARK                         _______ _______ _______ _____ _____    ______ ____
ROOT
ATOM      1  C   UNL     1      -3.809   0.904 131.607  0.00  0.00    +0.000 C 
ATOM      2  C   UNL     1      -3.876  -1.682 132.132  0.00  0.00    +0.000 C 
ATOM      3  S   UNL     1      -4.474  -4.109 133.293  0.00  0.00    +0.000 S 
ATOM      4  S   UNL     1      -4.754  -6.427 134.973  0.00  0.00    +0.000 S 
ATOM      5  C   UNL     1      -5.703  -6.199 136.732  0.00  0.00    +0.000 C 
ATOM      6  C   UNL     1      -5.662  -6.552 138.204  0.00  0.00    +0.000 C 
ATOM      7  C   UNL     1      -6.225  -5.509 139.191  0.00  0.00    +0.000 C 
ATOM      8  O   UNL     1      -6.379  -5.798 140.382  0.00  0.00    +0.000 OA
ATOM      9  N   UNL     1      -6.491  -4.240 138.731  0.00  0.00    +0.000 N 
ATOM     10  C   UNL     1      -6.397  -3.792 137.353  0.00  0.00    +0.000 C 
ATOM     11  C   UNL     1      -4.755  -3.799 137.016  0.00  0.00    +0.000 C 
ATOM     12  O   UNL     1      -3.932  -4.749 137.206  0.00  0.00    +0.000 OA
ATOM     13  N   UNL     1      -4.257  -2.795 136.356  0.00  0.00    +0.000 N 
ATOM     14  C   UNL     1      -4.874  -1.558 136.235  0.00  0.00    +0.000 C 
ATOM     15  C   UNL     1      -6.022  -1.848 135.151  0.00  0.00    +0.000 C 
ATOM     16  O   UNL     1      -7.019  -2.592 135.054  0.00  0.00    +0.000 OA
ATOM     17  N   UNL     1      -6.038  -0.978 134.316  0.00  0.00    +0.000 N 
ATOM     18  C   UNL     1      -4.925  -0.154 133.990  0.00  0.00    +0.000 C 
ATOM     19  C   UNL     1      -5.002   1.378 135.532  0.00  0.00    +0.000 C 
ATOM     20  O   UNL     1      -4.973   1.120 136.695  0.00  0.00    +0.000 OA
ATOM     21  N   UNL     1      -5.744   2.581 135.139  0.00  0.00    +0.000 N 
ATOM     22  C   UNL     1      -5.936   3.147 133.295  0.00  0.00    +0.000 C 
ATOM     23  C   UNL     1      -4.804   2.511 132.982  0.00  0.00    +0.000 C 
ATOM     24  O   UNL     1      -4.143   1.026 133.273  0.00  0.00    +0.000 OA
ATOM     25  N   UNL     1      -3.644   3.073 131.489  0.00  0.00    +0.000 N 
ATOM     26  H   UNL     1      -6.910  -3.540 139.366  0.00  0.00    +0.000 HD
ATOM     27  H   UNL     1      -3.272  -2.887 136.159  0.00  0.00    +0.000 HD
ATOM     28  H   UNL     1      -6.944  -0.567 133.984  0.00  0.00    +0.000 HD
ATOM     29  H   UNL     1      -4.986   3.148 135.654  0.00  0.00    +0.000 HD
ATOM     30  H   UNL     1      -2.651   3.527 131.112  0.00  0.00    +0.000 HD
ENDROOT
BRANCH   1  36
ATOM     31  C   UNL     1      -4.672   6.072 129.682  0.00  0.00    +0.000 C 
ATOM     32  C   UNL     1      -3.642   6.676 128.584  0.00  0.00    +0.000 C 
ATOM     33  C   UNL     1      -3.515   8.094 128.936  0.00  0.00    +0.000 C 
ATOM     34  C   UNL     1      -3.740   7.560 130.793  0.00  0.00    +0.000 C 
ATOM     35  N   UNL     1      -4.273   5.541 131.376  0.00  0.00    +0.000 N 
ATOM     36  C   UNL     1      -4.040   3.414 131.895  0.00  0.00    +0.000 C 
ATOM     37  O   UNL     1      -3.851   4.800 132.702  0.00  0.00    +0.000 OA
BRANCH  31  39
ATOM     38  N   UNL     1      -6.240   4.606 129.712  0.00  0.00    +0.000 N 
ATOM     39  C   UNL     1      -4.984   4.742 129.689  0.00  0.00    +0.000 C 
ATOM     40  O   UNL     1      -4.333   3.780 129.401  0.00  0.00    +0.000 OA
ATOM     41  H   UNL     1      -7.075   5.504 129.319  0.00  0.00    +0.000 HD
BRANCH  38  42
ATOM     42  C   UNL     1      -6.843   3.369 129.662  0.00  0.00    +0.000 C 
BRANCH  42  44
ATOM     43  N   UNL     1      -6.624   2.988 126.642  0.00  0.00    +0.000 N 
ATOM     44  C   UNL     1      -7.273   2.970 127.770  0.00  0.00    +0.000 C 
ATOM     45  O   UNL     1      -8.856   1.945 127.705  0.00  0.00    +0.000 OA
ATOM     46  H   UNL     1      -5.789   2.978 127.104  0.00  0.00    +0.000 HD
BRANCH  43  47
ATOM     47  C   UNL     1      -7.308   2.583 125.408  0.00  0.00    +0.000 C 
BRANCH  47  49
ATOM     48  N   UNL     1      -6.629   4.687 124.637  0.00  0.00    +0.000 N 
ATOM     49  C   UNL     1      -7.666   3.901 125.043  0.00  0.00    +0.000 C 
ATOM     50  O   UNL     1      -8.836   4.278 125.120  0.00  0.00    +0.000 OA
ATOM     51  H   UNL     1      -6.811   5.650 124.382  0.00  0.00    +0.000 HD
ATOM     52  H   UNL     1      -5.663   4.385 124.567  0.00  0.00    +0.000 HD
ENDBRANCH  47  49
ENDBRANCH  43  47
ENDBRANCH  42  44
BRANCH  42  53
ATOM     53  C   UNL     1      -8.995   3.615 130.387  0.00  0.00    +0.000 C 
BRANCH  53  54
ATOM     54  C   UNL     1      -9.913   5.581 129.879  0.00  0.00    +0.000 C 
BRANCH  54  55
ATOM     55  C   UNL     1     -11.111   5.579 130.465  0.00  0.00    +0.000 C 
BRANCH  55  56
ATOM     56  N   UNL     1     -11.792   5.761 129.322  0.00  0.00    +0.000 NA
ATOM     57  C   UNL     1     -12.671   6.599 129.638  0.00  0.00    +0.000 C 
ATOM     58  N   UNL     1     -12.838   7.138 130.890  0.00  0.00    +0.000 N 
ATOM     59  N   UNL     1     -13.432   6.946 128.583  0.00  0.00    +0.000 N 
ATOM     60  H   UNL     1     -12.275   6.868 131.716  0.00  0.00    +0.000 HD
ATOM     61  H   UNL     1     -13.555   7.800 131.097  0.00  0.00    +0.000 HD
ATOM     62  H   UNL     1     -13.298   6.546 127.644  0.00  0.00    +0.000 HD
ATOM     63  H   UNL     1     -14.173   7.611 128.651  0.00  0.00    +0.000 HD
ENDBRANCH  55  56
ENDBRANCH  54  55
ENDBRANCH  53  54
ENDBRANCH  42  53
ENDBRANCH  38  42
ENDBRANCH  31  39
ENDBRANCH   1  36
BRANCH  10  64
ATOM     64  C   UNL     1      -6.991  -2.470 137.343  0.00  0.00    +0.000 C 
BRANCH  64  65
ATOM     65  C   UNL     1      -8.170  -2.172 138.090  0.00  0.00    +0.000 A 
ATOM     66  C   UNL     1      -9.249  -2.866 137.647  0.00  0.00    +0.000 A 
ATOM     67  C   UNL     1     -10.417  -2.903 138.328  0.00  0.00    +0.000 A 
ATOM     68  C   UNL     1     -10.509  -2.187 139.490  0.00  0.00    +0.000 A 
ATOM     69  C   UNL     1      -9.442  -1.423 139.928  0.00  0.00    +0.000 A 
ATOM     70  C   UNL     1      -8.259  -1.411 139.227  0.00  0.00    +0.000 A 
BRANCH  68  71
ATOM     71  O   UNL     1     -11.620  -2.157 140.267  0.00  0.00    +0.000 OA
ATOM     72  H   UNL     1     -11.612  -2.764 141.024  0.00  0.00    +0.000 HD
ENDBRANCH  68  71
ENDBRANCH  64  65
ENDBRANCH  10  64
BRANCH  14  73
ATOM     73  C   UNL     1      -3.756  -0.722 135.860  0.00  0.00    +0.000 C 
BRANCH  73  74
ATOM     74  C   UNL     1      -2.405  -1.078 136.001  0.00  0.00    +0.000 A 
ATOM     75  C   UNL     1      -1.586  -1.566 135.034  0.00  0.00    +0.000 A 
ATOM     76  C   UNL     1      -0.506  -2.273 135.480  0.00  0.00    +0.000 A 
ATOM     77  C   UNL     1      -0.085  -2.213 136.778  0.00  0.00    +0.000 A 
ATOM     78  C   UNL     1      -0.907  -1.640 137.689  0.00  0.00    +0.000 A 
ATOM     79  C   UNL     1      -2.033  -1.037 137.291  0.00  0.00    +0.000 A 
ENDBRANCH  73  74
ENDBRANCH  14  73
BRANCH  18  80
ATOM     80  C   UNL     1      -5.801   0.937 132.112  0.00  0.00    +0.000 C 
BRANCH  80  81
ATOM     81  C   UNL     1      -7.444  -0.029 131.031  0.00  0.00    +0.000 A 
ATOM     82  C   UNL     1      -6.661  -0.475 130.124  0.00  0.00    +0.000 A 
ATOM     83  N   UNL     1      -7.767  -0.183 129.352  0.00  0.00    +0.000 N 
ATOM     84  C   UNL     1      -7.897  -1.323 128.768  0.00  0.00    +0.000 A 
ATOM     85  C   UNL     1      -7.874  -1.622 127.384  0.00  0.00    +0.000 A 
ATOM     86  C   UNL     1      -8.323  -2.810 126.851  0.00  0.00    +0.000 A 
ATOM     87  C   UNL     1      -8.548  -3.827 127.684  0.00  0.00    +0.000 A 
ATOM     88  C   UNL     1      -8.471  -3.277 129.194  0.00  0.00    +0.000 A 
ATOM     89  C   UNL     1      -8.114  -1.741 130.143  0.00  0.00    +0.000 A 
ATOM     90  H   UNL     1      -8.193   0.660 129.022  0.00  0.00    +0.000 HD
ENDBRANCH  80  81
ENDBRANCH  18  80
BRANCH  22  91
ATOM     91  C   UNL     1      -5.987   4.500 133.175  0.00  0.00    +0.000 C 
BRANCH  91  92
ATOM     92  C   UNL     1      -7.295   4.877 133.325  0.00  0.00    +0.000 C 
ATOM     93  N   UNL     1      -7.615   6.031 132.688  0.00  0.00    +0.000 N 
ATOM     94  O   UNL     1      -8.081   4.201 133.927  0.00  0.00    +0.000 OA
ATOM     95  H   UNL     1      -6.996   6.578 132.085  0.00  0.00    +0.000 HD
ATOM     96  H   UNL     1      -8.521   6.417 132.794  0.00  0.00    +0.000 HD
ENDBRANCH  91  92
ENDBRANCH  22  91
TORSDOF 19
ENDMDL
MODEL 2
REMARK VINA RESULT:     -10.0      6.776     12.012
REMARK  Name = CHEMBL2369840
REMARK  19 active torsions:
REMARK  status: ('A' for Active; 'I' for Inactive)
REMARK    1  A    between atoms: C_2  and  C_4
REMARK    2  A    between atoms: C_4  and  N_5
REMARK    3  A    between atoms: C_6  and  C_8
REMARK    4  A    between atoms: C_8  and  C_9
REMARK    5  A    between atoms: C_8  and  N_16
REMARK    6  A    between atoms: C_9  and  C_10
REMARK    7  A    between atoms: C_10  and  C_11
REMARK    8  A    between atoms: C_11  and  N_12
REMARK    9  A    between atoms: C_17  and  C_19
REMARK   10  A    between atoms: C_24  and  C_26
REMARK   11  A    between atoms: C_35  and  C_36
REMARK   12  A    between atoms: C_36  and  C_37
REMARK   13  A    between atoms: C_40  and  O_41
REMARK   14  A    between atoms: C_47  and  C_48
REMARK   15  A    between atoms: C_48  and  C_49
REMARK   16  A    between atoms: C_58  and  C_59
REMARK   17  A    between atoms: C_59  and  C_60
REMARK   18  A    between atoms: C_72  and  C_73
REMARK   19  A    between atoms: C_73  and  C_74
REMARK                            x       y       z     vdW  Elec       q    Type
REMARK                         _______ _______ _______ _____ _____    ______ ____
ROOT
ATOM      1  C   UNL     1      -1.029   7.014 135.938  0.00  0.00    +0.000 C 
ATOM      2  C   UNL     1      -0.977   6.275 133.405  0.00  0.00    +0.000 C 
ATOM      3  S   UNL     1      -1.743   5.738 130.813  0.00  0.00    +0.000 S 
ATOM      4  S   UNL     1      -2.859   4.712 128.368  0.00  0.00    +0.000 S 
ATOM      5  C   UNL     1      -4.858   4.777 128.151  0.00  0.00    +0.000 C 
ATOM      6  C   UNL     1      -6.069   3.993 127.691  0.00  0.00    +0.000 C 
ATOM      7  C   UNL     1      -7.396   4.253 128.434  0.00  0.00    +0.000 C 
ATOM      8  O   UNL     1      -8.452   3.780 128.005  0.00  0.00    +0.000 OA
ATOM      9  N   UNL     1      -7.366   4.966 129.610  0.00  0.00    +0.000 N 
ATOM     10  C   UNL     1      -6.201   5.611 130.191  0.00  0.00    +0.000 C 
ATOM     11  C   UNL     1      -5.219   4.347 130.685  0.00  0.00    +0.000 C 
ATOM     12  O   UNL     1      -4.846   3.345 129.998  0.00  0.00    +0.000 OA
ATOM     13  N   UNL     1      -4.640   4.434 131.847  0.00  0.00    +0.000 N 
ATOM     14  C   UNL     1      -5.048   5.289 132.861  0.00  0.00    +0.000 C 
ATOM     15  C   UNL     1      -4.506   6.712 132.354  0.00  0.00    +0.000 C 
ATOM     16  O   UNL     1      -4.678   7.457 131.368  0.00  0.00    +0.000 OA
ATOM     17  N   UNL     1      -3.957   7.295 133.256  0.00  0.00    +0.000 N 
ATOM     18  C   UNL     1      -3.379   6.661 134.390  0.00  0.00    +0.000 C 
ATOM     19  C   UNL     1      -5.097   6.353 135.688  0.00  0.00    +0.000 C 
ATOM     20  O   UNL     1      -6.059   5.741 135.344  0.00  0.00    +0.000 OA
ATOM     21  N   UNL     1      -5.310   7.433 136.658  0.00  0.00    +0.000 N 
ATOM     22  C   UNL     1      -3.878   8.562 137.312  0.00  0.00    +0.000 C 
ATOM     23  C   UNL     1      -2.996   7.591 137.059  0.00  0.00    +0.000 C 
ATOM     24  O   UNL     1      -2.667   6.568 135.806  0.00  0.00    +0.000 OA
ATOM     25  N   UNL     1      -1.311   7.393 138.065  0.00  0.00    +0.000 N 
ATOM     26  H   UNL     1      -8.249   5.189 130.100  0.00  0.00    +0.000 HD
ATOM     27  H   UNL     1      -4.036   3.654 132.060  0.00  0.00    +0.000 HD
ATOM     28  H   UNL     1      -4.125   8.317 133.419  0.00  0.00    +0.000 HD
ATOM     29  H   UNL     1      -5.570   6.665 137.369  0.00  0.00    +0.000 HD
ATOM     30  H   UNL     1      -0.660   6.806 138.818  0.00  0.00    +0.000 HD
ENDROOT
BRANCH   1  36
ATOM     31  C   UNL     1      -0.787   9.777 140.783  0.00  0.00    +0.000 C 
ATOM     32  C   UNL     1       0.492   9.539 141.752  0.00  0.00    +0.000 C 
ATOM     33  C   UNL     1      -0.061   9.574 143.110  0.00  0.00    +0.000 C 
ATOM     34  C   UNL     1      -1.679   8.782 142.374  0.00  0.00    +0.000 C 
ATOM     35  N   UNL     1      -1.995   8.527 140.245  0.00  0.00    +0.000 N 
ATOM     36  C   UNL     1      -1.907   7.622 138.239  0.00  0.00    +0.000 C 
ATOM     37  O   UNL     1      -2.826   7.385 139.544  0.00  0.00    +0.000 OA
BRANCH  31  39
ATOM     38  N   UNL     1      -1.112  10.820 138.936  0.00  0.00    +0.000 N 
ATOM     39  C   UNL     1      -0.647   9.752 139.425  0.00  0.00    +0.000 C 
ATOM     40  O   UNL     1       0.048   9.082 138.718  0.00  0.00    +0.000 OA
ATOM     41  H   UNL     1      -1.247  11.920 139.590  0.00  0.00    +0.000 HD
BRANCH  38  42
ATOM     42  C   UNL     1      -1.049  11.096 137.588  0.00  0.00    +0.000 C 
BRANCH  42  44
ATOM     43  N   UNL     1       1.414  12.884 137.826  0.00  0.00    +0.000 N 
ATOM     44  C   UNL     1       0.680  11.993 137.224  0.00  0.00    +0.000 C 
ATOM     45  O   UNL     1       1.625  10.999 135.928  0.00  0.00    +0.000 OA
ATOM     46  H   UNL     1       0.957  12.727 138.650  0.00  0.00    +0.000 HD
BRANCH  43  47
ATOM     47  C   UNL     1       2.693  13.288 137.231  0.00  0.00    +0.000 C 
BRANCH  47  49
ATOM     48  N   UNL     1       2.196  14.694 135.426  0.00  0.00    +0.000 N 
ATOM     49  C   UNL     1       2.214  14.539 136.780  0.00  0.00    +0.000 C 
ATOM     50  O   UNL     1       1.868  15.405 137.584  0.00  0.00    +0.000 OA
ATOM     51  H   UNL     1       1.885  15.575 135.034  0.00  0.00    +0.000 HD
ATOM     52  H   UNL     1       2.476  13.985 134.755  0.00  0.00    +0.000 HD
ENDBRANCH  47  49
ENDBRANCH  43  47
ENDBRANCH  42  44
BRANCH  42  53
ATOM     53  C   UNL     1      -2.385  12.903 137.184  0.00  0.00    +0.000 C 
BRANCH  53  54
ATOM     54  C   UNL     1      -1.422  14.500 135.964  0.00  0.00    +0.000 C 
BRANCH  54  55
ATOM     55  C   UNL     1      -2.423  15.156 135.376  0.00  0.00    +0.000 C 
BRANCH  55  56
ATOM     56  N   UNL     1      -2.287  14.530 134.196  0.00  0.00    +0.000 NA
ATOM     57  C   UNL     1      -2.876  15.294 133.393  0.00  0.00    +0.000 C 
ATOM     58  N   UNL     1      -3.506  16.467 133.731  0.00  0.00    +0.000 N 
ATOM     59  N   UNL     1      -2.796  14.844 132.126  0.00  0.00    +0.000 N 
ATOM     60  H   UNL     1      -3.593  16.817 134.702  0.00  0.00    +0.000 HD
ATOM     61  H   UNL     1      -3.966  17.041 133.059  0.00  0.00    +0.000 HD
ATOM     62  H   UNL     1      -2.316  13.968 131.876  0.00  0.00    +0.000 HD
ATOM     63  H   UNL     1      -3.201  15.333 131.356  0.00  0.00    +0.000 HD
ENDBRANCH  55  56
ENDBRANCH  54  55
ENDBRANCH  53  54
ENDBRANCH  42  53
ENDBRANCH  38  42
ENDBRANCH  31  39
ENDBRANCH   1  36
BRANCH  10  64
ATOM     64  C   UNL     1      -6.718   6.414 131.282  0.00  0.00    +0.000 C 
BRANCH  64  65
ATOM     65  C   UNL     1      -8.106   6.428 131.610  0.00  0.00    +0.000 A 
ATOM     66  C   UNL     1      -8.853   7.043 130.658  0.00  0.00    +0.000 A 
ATOM     67  C   UNL     1     -10.205   6.993 130.654  0.00  0.00    +0.000 A 
ATOM     68  C   UNL     1     -10.829   6.319 131.668  0.00  0.00    +0.000 A 
ATOM     69  C   UNL     1     -10.089   5.739 132.682  0.00  0.00    +0.000 A 
ATOM     70  C   UNL     1      -8.715   5.790 132.659  0.00  0.00    +0.000 A 
BRANCH  68  71
ATOM     71  O   UNL     1     -12.176   6.188 131.763  0.00  0.00    +0.000 OA
ATOM     72  H   UNL     1     -12.485   5.605 132.474  0.00  0.00    +0.000 HD
ENDBRANCH  68  71
ENDBRANCH  64  65
ENDBRANCH  10  64
BRANCH  14  73
ATOM     73  C   UNL     1      -4.427   4.675 134.013  0.00  0.00    +0.000 C 
BRANCH  73  74
ATOM     74  C   UNL     1      -4.051   3.326 134.098  0.00  0.00    +0.000 A 
ATOM     75  C   UNL     1      -2.923   2.761 133.594  0.00  0.00    +0.000 A 
ATOM     76  C   UNL     1      -2.987   1.416 133.372  0.00  0.00    +0.000 A 
ATOM     77  C   UNL     1      -3.967   0.636 133.918  0.00  0.00    +0.000 A 
ATOM     78  C   UNL     1      -5.033   1.252 134.482  0.00  0.00    +0.000 A 
ATOM     79  C   UNL     1      -5.046   2.584 134.612  0.00  0.00    +0.000 A 
ENDBRANCH  73  74
ENDBRANCH  14  73
BRANCH  18  80
ATOM     80  C   UNL     1      -2.311   8.510 135.353  0.00  0.00    +0.000 C 
BRANCH  80  81
ATOM     81  C   UNL     1      -2.257  10.379 134.210  0.00  0.00    +0.000 A 
ATOM     82  C   UNL     1      -1.011  10.252 133.951  0.00  0.00    +0.000 A 
ATOM     83  N   UNL     1      -1.075  11.620 134.114  0.00  0.00    +0.000 N 
ATOM     84  C   UNL     1      -0.517  11.969 133.007  0.00  0.00    +0.000 A 
ATOM     85  C   UNL     1       0.650  12.746 132.804  0.00  0.00    +0.000 A 
ATOM     86  C   UNL     1       0.988  13.315 131.595  0.00  0.00    +0.000 A 
ATOM     87  C   UNL     1       0.337  12.909 130.506  0.00  0.00    +0.000 A 
ATOM     88  C   UNL     1      -0.909  12.000 130.964  0.00  0.00    +0.000 A 
ATOM     89  C   UNL     1      -1.685  11.288 132.474  0.00  0.00    +0.000 A 
ATOM     90  H   UNL     1      -1.178  12.233 134.899  0.00  0.00    +0.000 HD
ENDBRANCH  80  81
ENDBRANCH  18  80
BRANCH  22  91
ATOM     91  C   UNL     1      -4.077   8.952 138.599  0.00  0.00    +0.000 C 
BRANCH  91  92
ATOM     92  C   UNL     1      -4.802  10.115 138.569  0.00  0.00    +0.000 C 
ATOM     93  N   UNL     1      -4.493  10.986 139.561  0.00  0.00    +0.000 N 
ATOM     94  O   UNL     1      -5.596  10.340 137.699  0.00  0.00    +0.000 OA
ATOM     95  H   UNL     1      -3.753  10.868 140.258  0.00  0.00    +0.000 HD
ATOM     96  H   UNL     1      -5.011  11.824 139.660  0.00  0.00    +0.000 HD
ENDBRANCH  91  92
ENDBRANCH  22  91
TORSDOF 19
ENDMDL
MODEL 3
REMARK VINA RESULT:     -10.0      6.157     11.762
REMARK  Name = CHEMBL2369840
REMARK  19 active torsions:
REMARK  status: ('A' for Active; 'I' for Inactive)
REMARK    1  A    between atoms: C_2  and  C_4
REMARK    2  A    between atoms: C_4  and  N_5
REMARK    3  A    between atoms: C_6  and  C_8
REMARK    4  A    between atoms: C_8  and  C_9
REMARK    5  A    between atoms: C_8  and  N_16
REMARK    6  A    between atoms: C_9  and  C_10
REMARK    7  A    between atoms: C_10  and  C_11
REMARK    8  A    between atoms: C_11  and  N_12
REMARK    9  A    between atoms: C_17  and  C_19
REMARK   10  A    between atoms: C_24  and  C_26
REMARK   11  A    between atoms: C_35  and  C_36
REMARK   12  A    between atoms: C_36  and  C_37
REMARK   13  A    between atoms: C_40  and  O_41
REMARK   14  A    between atoms: C_47  and  C_48
REMARK   15  A    between atoms: C_48  and  C_49
REMARK   16  A    between atoms: C_58  and  C_59
REMARK   17  A    between atoms: C_59  and  C_60
REMARK   18  A    between atoms: C_72  and  C_73
REMARK   19  A    between atoms: C_73  and  C_74
REMARK                            x       y       z     vdW  Elec       q    Type
REMARK                         _______ _______ _______ _____ _____    ______ ____
ROOT
ATOM      1  C   UNL     1      -4.056   5.094 136.838  0.00  0.00    +0.000 C 
ATOM      2  C   UNL     1      -3.202   4.624 134.385  0.00  0.00    +0.000 C 
ATOM      3  S   UNL     1      -3.074   4.468 131.637  0.00  0.00    +0.000 S 
ATOM      4  S   UNL     1      -3.366   3.861 128.840  0.00  0.00    +0.000 S 
ATOM      5  C   UNL     1      -5.154   4.213 127.988  0.00  0.00    +0.000 C 
ATOM      6  C   UNL     1      -6.198   3.650 127.047  0.00  0.00    +0.000 C 
ATOM      7  C   UNL     1      -7.671   4.005 127.339  0.00  0.00    +0.000 C 
ATOM      8  O   UNL     1      -8.553   3.723 126.523  0.00  0.00    +0.000 OA
ATOM      9  N   UNL     1      -7.984   4.580 128.549  0.00  0.00    +0.000 N 
ATOM     10  C   UNL     1      -7.037   5.001 129.567  0.00  0.00    +0.000 C 
ATOM     11  C   UNL     1      -6.403   3.572 130.172  0.00  0.00    +0.000 C 
ATOM     12  O   UNL     1      -5.908   2.607 129.510  0.00  0.00    +0.000 OA
ATOM     13  N   UNL     1      -6.254   3.460 131.459  0.00  0.00    +0.000 N 
ATOM     14  C   UNL     1      -6.908   4.251 132.393  0.00  0.00    +0.000 C 
ATOM     15  C   UNL     1      -6.100   5.634 132.303  0.00  0.00    +0.000 C 
ATOM     16  O   UNL     1      -5.854   6.494 131.434  0.00  0.00    +0.000 OA
ATOM     17  N   UNL     1      -5.845   6.041 133.410  0.00  0.00    +0.000 N 
ATOM     18  C   UNL     1      -5.752   5.221 134.568  0.00  0.00    +0.000 C 
ATOM     19  C   UNL     1      -7.832   5.011 135.168  0.00  0.00    +0.000 C 
ATOM     20  O   UNL     1      -8.667   4.571 134.441  0.00  0.00    +0.000 OA
ATOM     21  N   UNL     1      -8.269   6.001 136.157  0.00  0.00    +0.000 N 
ATOM     22  C   UNL     1      -7.054   6.856 137.402  0.00  0.00    +0.000 C 
ATOM     23  C   UNL     1      -6.230   5.808 137.317  0.00  0.00    +0.000 C 
ATOM     24  O   UNL     1      -5.582   4.887 136.110  0.00  0.00    +0.000 OA
ATOM     25  N   UNL     1      -5.019   5.283 138.784  0.00  0.00    +0.000 N 
ATOM     26  H   UNL     1      -8.958   4.866 128.746  0.00  0.00    +0.000 HD
ATOM     27  H   UNL     1      -5.832   2.589 131.745  0.00  0.00    +0.000 HD
ATOM     28  H   UNL     1      -5.966   7.054 133.653  0.00  0.00    +0.000 HD
ATOM     29  H   UNL     1      -8.825   5.205 136.625  0.00  0.00    +0.000 HD
ATOM     30  H   UNL     1      -4.722   4.539 139.616  0.00  0.00    +0.000 HD
ENDROOT
BRANCH   1  36
ATOM     31  C   UNL     1      -5.246   7.263 141.843  0.00  0.00    +0.000 C 
ATOM     32  C   UNL     1      -4.410   6.746 143.134  0.00  0.00    +0.000 C 
ATOM     33  C   UNL     1      -5.393   6.712 144.222  0.00  0.00    +0.000 C 
ATOM     34  C   UNL     1      -6.724   6.238 142.884  0.00  0.00    +0.000 C 
ATOM     35  N   UNL     1      -6.306   6.259 140.757  0.00  0.00    +0.000 N 
ATOM     36  C   UNL     1      -5.615   5.570 138.782  0.00  0.00    +0.000 C 
ATOM     37  O   UNL     1      -6.948   5.326 139.660  0.00  0.00    +0.000 OA
BRANCH  31  39
ATOM     38  N   UNL     1      -4.877   8.507 140.134  0.00  0.00    +0.000 N 
ATOM     39  C   UNL     1      -4.647   7.363 140.620  0.00  0.00    +0.000 C 
ATOM     40  O   UNL     1      -3.775   6.718 140.115  0.00  0.00    +0.000 OA
ATOM     41  H   UNL     1      -5.191   9.543 140.830  0.00  0.00    +0.000 HD
BRANCH  38  42
ATOM     42  C   UNL     1      -4.344   8.911 138.930  0.00  0.00    +0.000 C 
BRANCH  42  44
ATOM     43  N   UNL     1      -2.507  11.071 140.060  0.00  0.00    +0.000 N 
ATOM     44  C   UNL     1      -2.759  10.039 139.307  0.00  0.00    +0.000 C 
ATOM     45  O   UNL     1      -1.207   9.120 138.754  0.00  0.00    +0.000 OA
ATOM     46  H   UNL     1      -3.286  10.900 140.584  0.00  0.00    +0.000 HD
BRANCH  43  47
ATOM     47  C   UNL     1      -1.149  11.628 140.089  0.00  0.00    +0.000 C 
BRANCH  47  49
ATOM     48  N   UNL     1      -2.478  13.416 140.811  0.00  0.00    +0.000 N 
ATOM     49  C   UNL     1      -1.574  12.963 139.897  0.00  0.00    +0.000 C 
ATOM     50  O   UNL     1      -1.150  13.626 138.950  0.00  0.00    +0.000 OA
ATOM     51  H   UNL     1      -2.841  14.357 140.720  0.00  0.00    +0.000 HD
ATOM     52  H   UNL     1      -2.830  12.879 141.597  0.00  0.00    +0.000 HD
ENDBRANCH  47  49
ENDBRANCH  43  47
ENDBRANCH  42  44
BRANCH  42  53
ATOM     53  C   UNL     1      -5.673  10.574 138.103  0.00  0.00    +0.000 C 
BRANCH  53  54
ATOM     54  C   UNL     1      -5.740  12.407 139.369  0.00  0.00    +0.000 C 
BRANCH  54  55
ATOM     55  C   UNL     1      -6.350  12.041 140.498  0.00  0.00    +0.000 C 
BRANCH  55  56
ATOM     56  N   UNL     1      -5.228  12.052 141.236  0.00  0.00    +0.000 NA
ATOM     57  C   UNL     1      -5.496  11.273 142.183  0.00  0.00    +0.000 C 
ATOM     58  N   UNL     1      -6.691  10.618 142.356  0.00  0.00    +0.000 N 
ATOM     59  N   UNL     1      -4.448  11.117 143.014  0.00  0.00    +0.000 N 
ATOM     60  H   UNL     1      -7.513  10.741 141.738  0.00  0.00    +0.000 HD
ATOM     61  H   UNL     1      -6.861  10.010 143.128  0.00  0.00    +0.000 HD
ATOM     62  H   UNL     1      -3.551  11.604 142.875  0.00  0.00    +0.000 HD
ATOM     63  H   UNL     1      -4.481  10.524 143.815  0.00  0.00    +0.000 HD
ENDBRANCH  55  56
ENDBRANCH  54  55
ENDBRANCH  53  54
ENDBRANCH  42  53
ENDBRANCH  38  42
ENDBRANCH  31  39
ENDBRANCH   1  36
BRANCH  10  64
ATOM     64  C   UNL     1      -7.824   5.746 130.531  0.00  0.00    +0.000 C 
BRANCH  64  65
ATOM     65  C   UNL     1      -9.167   6.143 130.255  0.00  0.00    +0.000 A 
ATOM     66  C   UNL     1     -10.075   5.282 130.781  0.00  0.00    +0.000 A 
ATOM     67  C   UNL     1     -11.397   5.562 130.825  0.00  0.00    +0.000 A 
ATOM     68  C   UNL     1     -11.824   6.747 130.291  0.00  0.00    +0.000 A 
ATOM     69  C   UNL     1     -10.924   7.611 129.695  0.00  0.00    +0.000 A 
ATOM     70  C   UNL     1      -9.582   7.312 129.673  0.00  0.00    +0.000 A 
BRANCH  68  71
ATOM     71  O   UNL     1     -13.121   7.145 130.290  0.00  0.00    +0.000 OA
ATOM     72  H   UNL     1     -13.649   6.828 129.540  0.00  0.00    +0.000 HD
ENDBRANCH  68  71
ENDBRANCH  64  65
ENDBRANCH  10  64
BRANCH  14  73
ATOM     73  C   UNL     1      -6.779   3.443 133.585  0.00  0.00    +0.000 C 
BRANCH  73  74
ATOM     74  C   UNL     1      -6.819   2.040 133.611  0.00  0.00    +0.000 A 
ATOM     75  C   UNL     1      -5.882   1.208 134.133  0.00  0.00    +0.000 A 
ATOM     76  C   UNL     1      -5.884  -0.065 133.640  0.00  0.00    +0.000 A 
ATOM     77  C   UNL     1      -6.941  -0.569 132.936  0.00  0.00    +0.000 A 
ATOM     78  C   UNL     1      -7.892   0.295 132.509  0.00  0.00    +0.000 A 
ATOM     79  C   UNL     1      -7.852   1.578 132.887  0.00  0.00    +0.000 A 
ENDBRANCH  73  74
ENDBRANCH  14  73
BRANCH  18  80
ATOM     80  C   UNL     1      -4.919   6.801 136.083  0.00  0.00    +0.000 C 
BRANCH  80  81
ATOM     81  C   UNL     1      -3.871   8.549 135.278  0.00  0.00    +0.000 A 
ATOM     82  C   UNL     1      -2.726   8.086 135.607  0.00  0.00    +0.000 A 
ATOM     83  N   UNL     1      -2.513   9.426 135.854  0.00  0.00    +0.000 N 
ATOM     84  C   UNL     1      -1.436   9.577 135.164  0.00  0.00    +0.000 A 
ATOM     85  C   UNL     1      -0.157  10.007 135.593  0.00  0.00    +0.000 A 
ATOM     86  C   UNL     1       0.836  10.425 134.735  0.00  0.00    +0.000 A 
ATOM     87  C   UNL     1       0.690  10.173 133.434  0.00  0.00    +0.000 A 
ATOM     88  C   UNL     1      -0.808   9.645 133.181  0.00  0.00    +0.000 A 
ATOM     89  C   UNL     1      -2.349   9.216 134.093  0.00  0.00    +0.000 A 
ATOM     90  H   UNL     1      -2.813  10.069 136.560  0.00  0.00    +0.000 HD
ENDBRANCH  80  81
ENDBRANCH  18  80
BRANCH  22  91
ATOM     91  C   UNL     1      -7.648   7.132 138.593  0.00  0.00    +0.000 C 
BRANCH  91  92
ATOM     92  C   UNL     1      -8.369   8.286 138.434  0.00  0.00    +0.000 C 
ATOM     93  N   UNL     1      -8.371   9.092 139.525  0.00  0.00    +0.000 N 
ATOM     94  O   UNL     1      -8.899   8.561 137.395  0.00  0.00    +0.000 OA
ATOM     95  H   UNL     1      -7.849   8.936 140.391  0.00  0.00    +0.000 HD
ATOM     96  H   UNL     1      -8.920   9.917 139.527  0.00  0.00    +0.000 HD
ENDBRANCH  91  92
ENDBRANCH  22  91
TORSDOF 19
ENDMDL
MODEL 4
REMARK VINA RESULT:      -9.6      2.833     10.805
REMARK  Name = CHEMBL2369840
REMARK  19 active torsions:
REMARK  status: ('A' for Active; 'I' for Inactive)
REMARK    1  A    between atoms: C_2  and  C_4
REMARK    2  A    between atoms: C_4  and  N_5
REMARK    3  A    between atoms: C_6  and  C_8
REMARK    4  A    between atoms: C_8  and  C_9
REMARK    5  A    between atoms: C_8  and  N_16
REMARK    6  A    between atoms: C_9  and  C_10
REMARK    7  A    between atoms: C_10  and  C_11
REMARK    8  A    between atoms: C_11  and  N_12
REMARK    9  A    between atoms: C_17  and  C_19
REMARK   10  A    between atoms: C_24  and  C_26
REMARK   11  A    between atoms: C_35  and  C_36
REMARK   12  A    between atoms: C_36  and  C_37
REMARK   13  A    between atoms: C_40  and  O_41
REMARK   14  A    between atoms: C_47  and  C_48
REMARK   15  A    between atoms: C_48  and  C_49
REMARK   16  A    between atoms: C_58  and  C_59
REMARK   17  A    between atoms: C_59  and  C_60
REMARK   18  A    between atoms: C_72  and  C_73
REMARK   19  A    between atoms: C_73  and  C_74
REMARK                            x       y       z     vdW  Elec       q    Type
REMARK                         _______ _______ _______ _____ _____    ______ ____
ROOT
ATOM      1  C   UNL     1      -5.273   1.683 134.647  0.00  0.00    +0.000 C 
ATOM      2  C   UNL     1      -7.368   3.259 134.339  0.00  0.00    +0.000 C 
ATOM      3  S   UNL     1      -9.441   4.674 133.202  0.00  0.00    +0.000 S 
ATOM      4  S   UNL     1     -11.150   6.501 131.781  0.00  0.00    +0.000 S 
ATOM      5  C   UNL     1     -11.017   6.538 129.774  0.00  0.00    +0.000 C 
ATOM      6  C   UNL     1     -10.959   7.446 128.564  0.00  0.00    +0.000 C 
ATOM      7  C   UNL     1     -10.126   6.958 127.360  0.00  0.00    +0.000 C 
ATOM      8  O   UNL     1     -10.173   7.563 126.285  0.00  0.00    +0.000 OA
ATOM      9  N   UNL     1      -9.289   5.879 127.529  0.00  0.00    +0.000 N 
ATOM     10  C   UNL     1      -9.181   5.059 128.723  0.00  0.00    +0.000 C 
ATOM     11  C   UNL     1      -8.466   6.061 129.862  0.00  0.00    +0.000 C 
ATOM     12  O   UNL     1      -8.825   7.235 130.189  0.00  0.00    +0.000 OA
ATOM     13  N   UNL     1      -7.527   5.567 130.614  0.00  0.00    +0.000 N 
ATOM     14  C   UNL     1      -6.811   4.417 130.315  0.00  0.00    +0.000 C 
ATOM     15  C   UNL     1      -7.861   3.254 130.664  0.00  0.00    +0.000 C 
ATOM     16  O   UNL     1      -8.995   2.902 130.280  0.00  0.00    +0.000 OA
ATOM     17  N   UNL     1      -7.325   2.387 131.309  0.00  0.00    +0.000 N 
ATOM     18  C   UNL     1      -6.164   2.579 132.107  0.00  0.00    +0.000 C 
ATOM     19  C   UNL     1      -4.556   2.433 130.650  0.00  0.00    +0.000 C 
ATOM     20  O   UNL     1      -4.494   3.137 129.691  0.00  0.00    +0.000 OA
ATOM     21  N   UNL     1      -3.992   1.086 130.520  0.00  0.00    +0.000 N 
ATOM     22  C   UNL     1      -4.028  -0.217 131.954  0.00  0.00    +0.000 C 
ATOM     23  C   UNL     1      -4.087   0.772 132.851  0.00  0.00    +0.000 C 
ATOM     24  O   UNL     1      -4.952   2.165 133.045  0.00  0.00    +0.000 OA
ATOM     25  N   UNL     1      -3.389   0.588 134.687  0.00  0.00    +0.000 N 
ATOM     26  H   UNL     1      -8.757   5.509 126.724  0.00  0.00    +0.000 HD
ATOM     27  H   UNL     1      -7.172   6.217 131.299  0.00  0.00    +0.000 HD
ATOM     28  H   UNL     1      -7.494   1.374 131.096  0.00  0.00    +0.000 HD
ATOM     29  H   UNL     1      -3.027   1.559 130.435  0.00  0.00    +0.000 HD
ATOM     30  H   UNL     1      -2.610   0.869 135.492  0.00  0.00    +0.000 HD
ENDROOT
BRANCH   1  36
ATOM     31  C   UNL     1      -1.669  -2.471 135.607  0.00  0.00    +0.000 C 
ATOM     32  C   UNL     1      -0.852  -2.485 137.009  0.00  0.00    +0.000 C 
ATOM     33  C   UNL     1       0.481  -2.985 136.656  0.00  0.00    +0.000 C 
ATOM     34  C   UNL     1       0.262  -2.092 134.941  0.00  0.00    +0.000 C 
ATOM     35  N   UNL     1      -1.607  -1.186 134.321  0.00  0.00    +0.000 N 
ATOM     36  C   UNL     1      -3.202   0.319 134.112  0.00  0.00    +0.000 C 
ATOM     37  O   UNL     1      -1.781   0.072 133.386  0.00  0.00    +0.000 OA
BRANCH  31  39
ATOM     38  N   UNL     1      -3.688  -2.865 134.994  0.00  0.00    +0.000 N 
ATOM     39  C   UNL     1      -2.951  -2.003 135.552  0.00  0.00    +0.000 C 
ATOM     40  O   UNL     1      -3.495  -1.125 136.155  0.00  0.00    +0.000 OA
ATOM     41  H   UNL     1      -3.413  -4.121 134.926  0.00  0.00    +0.000 HD
BRANCH  38  42
ATOM     42  C   UNL     1      -5.046  -2.688 134.856  0.00  0.00    +0.000 C 
BRANCH  42  44
ATOM     43  N   UNL     1      -7.001  -2.487 137.191  0.00  0.00    +0.000 N 
ATOM     44  C   UNL     1      -5.872  -2.845 136.650  0.00  0.00    +0.000 C 
ATOM     45  O   UNL     1      -4.962  -4.175 137.630  0.00  0.00    +0.000 OA
ATOM     46  H   UNL     1      -7.401  -2.386 136.330  0.00  0.00    +0.000 HD
BRANCH  43  47
ATOM     47  C   UNL     1      -7.265  -2.819 138.597  0.00  0.00    +0.000 C 
BRANCH  47  49
ATOM     48  N   UNL     1      -7.978  -0.848 139.641  0.00  0.00    +0.000 N 
ATOM     49  C   UNL     1      -8.273  -1.840 138.754  0.00  0.00    +0.000 C 
ATOM     50  O   UNL     1      -9.332  -1.925 138.131  0.00  0.00    +0.000 OA
ATOM     51  H   UNL     1      -8.665  -0.125 139.819  0.00  0.00    +0.000 HD
ATOM     52  H   UNL     1      -7.107  -0.768 140.156  0.00  0.00    +0.000 HD
ENDBRANCH  47  49
ENDBRANCH  43  47
ENDBRANCH  42  44
BRANCH  42  53
ATOM     53  C   UNL     1      -5.915  -4.612 133.985  0.00  0.00    +0.000 C 
BRANCH  53  54
ATOM     54  C   UNL     1      -6.904  -5.931 135.485  0.00  0.00    +0.000 C 
BRANCH  54  55
ATOM     55  C   UNL     1      -8.140  -5.451 135.624  0.00  0.00    +0.000 C 
BRANCH  55  56
ATOM     56  N   UNL     1      -8.368  -6.074 136.792  0.00  0.00    +0.000 NA
ATOM     57  C   UNL     1      -9.358  -5.461 137.260  0.00  0.00    +0.000 C 
ATOM     58  N   UNL     1      -9.988  -4.398 136.659  0.00  0.00    +0.000 N 
ATOM     59  N   UNL     1      -9.768  -5.991 138.428  0.00  0.00    +0.000 N 
ATOM     60  H   UNL     1      -9.674  -3.966 135.772  0.00  0.00    +0.000 HD
ATOM     61  H   UNL     1     -10.771  -3.938 137.071  0.00  0.00    +0.000 HD
ATOM     62  H   UNL     1      -9.298  -6.794 138.870  0.00  0.00    +0.000 HD
ATOM     63  H   UNL     1     -10.550  -5.635 138.934  0.00  0.00    +0.000 HD
ENDBRANCH  55  56
ENDBRANCH  54  55
ENDBRANCH  53  54
ENDBRANCH  42  53
ENDBRANCH  38  42
ENDBRANCH  31  39
ENDBRANCH   1  36
BRANCH  10  64
ATOM     64  C   UNL     1      -8.356   3.932 128.335  0.00  0.00    +0.000 C 
BRANCH  64  65
ATOM     65  C   UNL     1      -7.665   3.904 127.087  0.00  0.00    +0.000 A 
ATOM     66  C   UNL     1      -8.377   3.273 126.119  0.00  0.00    +0.000 A 
ATOM     67  C   UNL     1      -8.016   3.307 124.815  0.00  0.00    +0.000 A 
ATOM     68  C   UNL     1      -6.874   3.981 124.480  0.00  0.00    +0.000 A 
ATOM     69  C   UNL     1      -6.100   4.578 125.458  0.00  0.00    +0.000 A 
ATOM     70  C   UNL     1      -6.493   4.543 126.775  0.00  0.00    +0.000 A 
BRANCH  68  71
ATOM     71  O   UNL     1      -6.419   4.097 123.207  0.00  0.00    +0.000 OA
ATOM     72  H   UNL     1      -5.484   3.871 123.080  0.00  0.00    +0.000 HD
ENDBRANCH  68  71
ENDBRANCH  64  65
ENDBRANCH  10  64
BRANCH  14  73
ATOM     73  C   UNL     1      -5.648   4.583 131.158  0.00  0.00    +0.000 C 
BRANCH  73  74
ATOM     74  C   UNL     1      -4.989   5.802 131.384  0.00  0.00    +0.000 A 
ATOM     75  C   UNL     1      -4.578   6.692 130.446  0.00  0.00    +0.000 A 
ATOM     76  C   UNL     1      -3.573   7.532 130.831  0.00  0.00    +0.000 A 
ATOM     77  C   UNL     1      -3.234   7.703 132.144  0.00  0.00    +0.000 A 
ATOM     78  C   UNL     1      -3.738   6.835 133.052  0.00  0.00    +0.000 A 
ATOM     79  C   UNL     1      -4.645   5.924 132.678  0.00  0.00    +0.000 A 
ENDBRANCH  73  74
ENDBRANCH  14  73
BRANCH  18  80
ATOM     80  C   UNL     1      -6.097   0.499 133.182  0.00  0.00    +0.000 C 
BRANCH  80  81
ATOM     81  C   UNL     1      -7.281  -1.139 132.333  0.00  0.00    +0.000 A 
ATOM     82  C   UNL     1      -6.920  -0.857 131.139  0.00  0.00    +0.000 A 
ATOM     83  N   UNL     1      -8.224  -1.237 130.902  0.00  0.00    +0.000 N 
ATOM     84  C   UNL     1      -8.003  -2.107 129.979  0.00  0.00    +0.000 A 
ATOM     85  C   UNL     1      -8.487  -2.134 128.648  0.00  0.00    +0.000 A 
ATOM     86  C   UNL     1      -8.444  -3.252 127.843  0.00  0.00    +0.000 A 
ATOM     87  C   UNL     1      -7.685  -4.277 128.230  0.00  0.00    +0.000 A 
ATOM     88  C   UNL     1      -7.201  -4.012 129.741  0.00  0.00    +0.000 A 
ATOM     89  C   UNL     1      -7.293  -2.745 131.074  0.00  0.00    +0.000 A 
ATOM     90  H   UNL     1      -9.121  -0.825 131.072  0.00  0.00    +0.000 HD
ENDBRANCH  80  81
ENDBRANCH  18  80
BRANCH  22  91
ATOM     91  C   UNL     1      -2.938  -1.029 131.939  0.00  0.00    +0.000 C 
BRANCH  91  92
ATOM     92  C   UNL     1      -3.245  -2.114 131.161  0.00  0.00    +0.000 C 
ATOM     93  N   UNL     1      -2.619  -2.128 129.959  0.00  0.00    +0.000 N 
ATOM     94  O   UNL     1      -3.966  -2.988 131.554  0.00  0.00    +0.000 OA
ATOM     95  H   UNL     1      -1.923  -1.452 129.634  0.00  0.00    +0.000 HD
ATOM     96  H   UNL     1      -2.829  -2.838 129.302  0.00  0.00    +0.000 HD
ENDBRANCH  91  92
ENDBRANCH  22  91
TORSDOF 19
ENDMDL
MODEL 5
REMARK VINA RESULT:      -9.4      3.267      6.626
REMARK  Name = CHEMBL2369840
REMARK  19 active torsions:
REMARK  status: ('A' for Active; 'I' for Inactive)
REMARK    1  A    between atoms: C_2  and  C_4
REMARK    2  A    between atoms: C_4  and  N_5
REMARK    3  A    between atoms: C_6  and  C_8
REMARK    4  A    between atoms: C_8  and  C_9
REMARK    5  A    between atoms: C_8  and  N_16
REMARK    6  A    between atoms: C_9  and  C_10
REMARK    7  A    between atoms: C_10  and  C_11
REMARK    8  A    between atoms: C_11  and  N_12
REMARK    9  A    between atoms: C_17  and  C_19
REMARK   10  A    between atoms: C_24  and  C_26
REMARK   11  A    between atoms: C_35  and  C_36
REMARK   12  A    between atoms: C_36  and  C_37
REMARK   13  A    between atoms: C_40  and  O_41
REMARK   14  A    between atoms: C_47  and  C_48
REMARK   15  A    between atoms: C_48  and  C_49
REMARK   16  A    between atoms: C_58  and  C_59
REMARK   17  A    between atoms: C_59  and  C_60
REMARK   18  A    between atoms: C_72  and  C_73
REMARK   19  A    between atoms: C_73  and  C_74
REMARK                            x       y       z     vdW  Elec       q    Type
REMARK                         _______ _______ _______ _____ _____    ______ ____
ROOT
ATOM      1  C   UNL     1      -8.107   1.365 130.487  0.00  0.00    +0.000 C 
ATOM      2  C   UNL     1      -8.631  -0.741 131.990  0.00  0.00    +0.000 C 
ATOM      3  S   UNL     1      -8.401  -2.748 133.864  0.00  0.00    +0.000 S 
ATOM      4  S   UNL     1      -7.740  -5.070 135.428  0.00  0.00    +0.000 S 
ATOM      5  C   UNL     1      -5.865  -5.215 136.142  0.00  0.00    +0.000 C 
ATOM      6  C   UNL     1      -4.698  -6.159 136.345  0.00  0.00    +0.000 C 
ATOM      7  C   UNL     1      -3.282  -5.551 136.263  0.00  0.00    +0.000 C 
ATOM      8  O   UNL     1      -2.297  -6.223 136.584  0.00  0.00    +0.000 OA
ATOM      9  N   UNL     1      -3.138  -4.276 135.768  0.00  0.00    +0.000 N 
ATOM     10  C   UNL     1      -4.216  -3.373 135.403  0.00  0.00    +0.000 C 
ATOM     11  C   UNL     1      -4.895  -4.056 134.031  0.00  0.00    +0.000 C 
ATOM     12  O   UNL     1      -5.283  -5.256 133.878  0.00  0.00    +0.000 OA
ATOM     13  N   UNL     1      -5.206  -3.271 133.042  0.00  0.00    +0.000 N 
ATOM     14  C   UNL     1      -4.692  -1.994 132.867  0.00  0.00    +0.000 C 
ATOM     15  C   UNL     1      -5.509  -1.139 133.952  0.00  0.00    +0.000 C 
ATOM     16  O   UNL     1      -5.657  -1.139 135.191  0.00  0.00    +0.000 OA
ATOM     17  N   UNL     1      -5.912  -0.115 133.460  0.00  0.00    +0.000 N 
ATOM     18  C   UNL     1      -6.137   0.076 132.069  0.00  0.00    +0.000 C 
ATOM     19  C   UNL     1      -4.148   0.549 131.327  0.00  0.00    +0.000 C 
ATOM     20  O   UNL     1      -3.217  -0.180 131.478  0.00  0.00    +0.000 OA
ATOM     21  N   UNL     1      -3.861   1.986 131.268  0.00  0.00    +0.000 N 
ATOM     22  C   UNL     1      -5.242   3.330 131.062  0.00  0.00    +0.000 C 
ATOM     23  C   UNL     1      -6.028   2.431 130.463  0.00  0.00    +0.000 C 
ATOM     24  O   UNL     1      -6.497   0.873 130.744  0.00  0.00    +0.000 OA
ATOM     25  N   UNL     1      -7.406   2.931 129.144  0.00  0.00    +0.000 N 
ATOM     26  H   UNL     1      -2.204  -3.834 135.747  0.00  0.00    +0.000 HD
ATOM     27  H   UNL     1      -5.644  -3.747 132.267  0.00  0.00    +0.000 HD
ATOM     28  H   UNL     1      -5.842   0.795 133.977  0.00  0.00    +0.000 HD
ATOM     29  H   UNL     1      -3.354   1.788 130.337  0.00  0.00    +0.000 HD
ATOM     30  H   UNL     1      -7.793   2.934 128.056  0.00  0.00    +0.000 HD
ENDROOT
BRANCH   1  36
ATOM     31  C   UNL     1      -4.305   3.210 126.839  0.00  0.00    +0.000 C 
ATOM     32  C   UNL     1      -2.754   2.782 127.048  0.00  0.00    +0.000 C 
ATOM     33  C   UNL     1      -1.986   3.968 126.655  0.00  0.00    +0.000 C 
ATOM     34  C   UNL     1      -3.457   5.038 127.347  0.00  0.00    +0.000 C 
ATOM     35  N   UNL     1      -5.336   4.169 127.991  0.00  0.00    +0.000 N 
ATOM     36  C   UNL     1      -6.821   3.199 129.297  0.00  0.00    +0.000 C 
ATOM     37  O   UNL     1      -6.286   4.713 129.126  0.00  0.00    +0.000 OA
BRANCH  31  39
ATOM     38  N   UNL     1      -6.154   2.313 126.221  0.00  0.00    +0.000 N 
ATOM     39  C   UNL     1      -5.315   2.351 127.166  0.00  0.00    +0.000 C 
ATOM     40  O   UNL     1      -5.377   1.485 127.989  0.00  0.00    +0.000 OA
ATOM     41  H   UNL     1      -5.889   2.628 125.001  0.00  0.00    +0.000 HD
BRANCH  38  42
ATOM     42  C   UNL     1      -7.250   1.480 126.249  0.00  0.00    +0.000 C 
BRANCH  42  44
ATOM     43  N   UNL     1      -7.378  -0.427 123.870  0.00  0.00    +0.000 N 
ATOM     44  C   UNL     1      -6.906  -0.033 125.017  0.00  0.00    +0.000 C 
ATOM     45  O   UNL     1      -5.237  -0.803 125.444  0.00  0.00    +0.000 OA
ATOM     46  H   UNL     1      -7.739   0.440 123.702  0.00  0.00    +0.000 HD
BRANCH  43  47
ATOM     47  C   UNL     1      -6.826  -1.632 123.237  0.00  0.00    +0.000 C 
BRANCH  47  49
ATOM     48  N   UNL     1      -7.708  -3.538 124.273  0.00  0.00    +0.000 N 
ATOM     49  C   UNL     1      -7.957  -2.431 123.517  0.00  0.00    +0.000 C 
ATOM     50  O   UNL     1      -9.065  -2.127 123.074  0.00  0.00    +0.000 OA
ATOM     51  H   UNL     1      -8.470  -4.167 124.492  0.00  0.00    +0.000 HD
ATOM     52  H   UNL     1      -6.799  -3.795 124.645  0.00  0.00    +0.000 HD
ENDBRANCH  47  49
ENDBRANCH  43  47
ENDBRANCH  42  44
BRANCH  42  53
ATOM     53  C   UNL     1      -8.904   2.464 125.019  0.00  0.00    +0.000 C 
BRANCH  53  54
ATOM     54  C   UNL     1      -8.355   2.855 122.895  0.00  0.00    +0.000 C 
BRANCH  54  55
ATOM     55  C   UNL     1      -7.073   3.222 122.918  0.00  0.00    +0.000 C 
BRANCH  55  56
ATOM     56  N   UNL     1      -7.009   3.474 121.600  0.00  0.00    +0.000 NA
ATOM     57  C   UNL     1      -5.934   4.111 121.479  0.00  0.00    +0.000 C 
ATOM     58  N   UNL     1      -5.090   4.446 122.510  0.00  0.00    +0.000 N 
ATOM     59  N   UNL     1      -5.673   4.410 120.192  0.00  0.00    +0.000 N 
ATOM     60  H   UNL     1      -5.285   4.241 123.506  0.00  0.00    +0.000 HD
ATOM     61  H   UNL     1      -4.247   4.958 122.367  0.00  0.00    +0.000 HD
ATOM     62  H   UNL     1      -6.304   4.149 119.421  0.00  0.00    +0.000 HD
ATOM     63  H   UNL     1      -4.854   4.905 119.911  0.00  0.00    +0.000 HD
ENDBRANCH  55  56
ENDBRANCH  54  55
ENDBRANCH  53  54
ENDBRANCH  42  53
ENDBRANCH  38  42
ENDBRANCH  31  39
ENDBRANCH   1  36
BRANCH  10  64
ATOM     64  C   UNL     1      -3.574  -2.094 135.165  0.00  0.00    +0.000 C 
BRANCH  64  65
ATOM     65  C   UNL     1      -2.328  -1.757 135.773  0.00  0.00    +0.000 A 
ATOM     66  C   UNL     1      -2.474  -1.378 137.068  0.00  0.00    +0.000 A 
ATOM     67  C   UNL     1      -1.419  -1.214 137.898  0.00  0.00    +0.000 A 
ATOM     68  C   UNL     1      -0.163  -1.413 137.393  0.00  0.00    +0.000 A 
ATOM     69  C   UNL     1       0.011  -1.739 136.061  0.00  0.00    +0.000 A 
ATOM     70  C   UNL     1      -1.076  -1.914 135.238  0.00  0.00    +0.000 A 
BRANCH  68  71
ATOM     71  O   UNL     1       0.969  -1.294 138.130  0.00  0.00    +0.000 OA
ATOM     72  H   UNL     1       1.172  -2.051 138.701  0.00  0.00    +0.000 HD
ENDBRANCH  68  71
ENDBRANCH  64  65
ENDBRANCH  10  64
BRANCH  14  73
ATOM     73  C   UNL     1      -4.958  -1.774 131.463  0.00  0.00    +0.000 C 
BRANCH  73  74
ATOM     74  C   UNL     1      -4.544  -2.625 130.425  0.00  0.00    +0.000 A 
ATOM     75  C   UNL     1      -3.457  -3.439 130.424  0.00  0.00    +0.000 A 
ATOM     76  C   UNL     1      -2.988  -3.792 129.191  0.00  0.00    +0.000 A 
ATOM     77  C   UNL     1      -3.733  -3.630 128.057  0.00  0.00    +0.000 A 
ATOM     78  C   UNL     1      -4.854  -2.875 128.133  0.00  0.00    +0.000 A 
ATOM     79  C   UNL     1      -5.277  -2.419 129.318  0.00  0.00    +0.000 A 
ENDBRANCH  73  74
ENDBRANCH  14  73
BRANCH  18  80
ATOM     80  C   UNL     1      -7.188   2.168 132.140  0.00  0.00    +0.000 C 
BRANCH  80  81
ATOM     81  C   UNL     1      -7.569   3.064 134.104  0.00  0.00    +0.000 A 
ATOM     82  C   UNL     1      -6.573   3.859 133.998  0.00  0.00    +0.000 A 
ATOM     83  N   UNL     1      -6.502   3.577 135.346  0.00  0.00    +0.000 N 
ATOM     84  C   UNL     1      -6.478   4.785 135.791  0.00  0.00    +0.000 A 
ATOM     85  C   UNL     1      -5.491   5.424 136.581  0.00  0.00    +0.000 A 
ATOM     86  C   UNL     1      -5.700   6.607 137.255  0.00  0.00    +0.000 A 
ATOM     87  C   UNL     1      -6.782   7.322 136.949  0.00  0.00    +0.000 A 
ATOM     88  C   UNL     1      -7.733   6.431 136.005  0.00  0.00    +0.000 A 
ATOM     89  C   UNL     1      -7.788   4.795 135.163  0.00  0.00    +0.000 A 
ATOM     90  H   UNL     1      -6.221   2.783 135.887  0.00  0.00    +0.000 HD
ENDBRANCH  80  81
ENDBRANCH  18  80
BRANCH  22  91
ATOM     91  C   UNL     1      -4.811   4.406 130.351  0.00  0.00    +0.000 C 
BRANCH  91  92
ATOM     92  C   UNL     1      -4.240   5.282 131.236  0.00  0.00    +0.000 C 
ATOM     93  N   UNL     1      -4.392   6.586 130.901  0.00  0.00    +0.000 N 
ATOM     94  O   UNL     1      -3.705   4.904 132.240  0.00  0.00    +0.000 OA
ATOM     95  H   UNL     1      -4.928   6.946 130.106  0.00  0.00    +0.000 HD
ATOM     96  H   UNL     1      -3.956   7.289 131.445  0.00  0.00    +0.000 HD
ENDBRANCH  91  92
ENDBRANCH  22  91
TORSDOF 19
ENDMDL
MODEL 6
REMARK VINA RESULT:      -9.4      3.003      7.199
REMARK  Name = CHEMBL2369840
REMARK  19 active torsions:
REMARK  status: ('A' for Active; 'I' for Inactive)
REMARK    1  A    between atoms: C_2  and  C_4
REMARK    2  A    between atoms: C_4  and  N_5
REMARK    3  A    between atoms: C_6  and  C_8
REMARK    4  A    between atoms: C_8  and  C_9
REMARK    5  A    between atoms: C_8  and  N_16
REMARK    6  A    between atoms: C_9  and  C_10
REMARK    7  A    between atoms: C_10  and  C_11
REMARK    8  A    between atoms: C_11  and  N_12
REMARK    9  A    between atoms: C_17  and  C_19
REMARK   10  A    between atoms: C_24  and  C_26
REMARK   11  A    between atoms: C_35  and  C_36
REMARK   12  A    between atoms: C_36  and  C_37
REMARK   13  A    between atoms: C_40  and  O_41
REMARK   14  A    between atoms: C_47  and  C_48
REMARK   15  A    between atoms: C_48  and  C_49
REMARK   16  A    between atoms: C_58  and  C_59
REMARK   17  A    between atoms: C_59  and  C_60
REMARK   18  A    between atoms: C_72  and  C_73
REMARK   19  A    between atoms: C_73  and  C_74
REMARK                            x       y       z     vdW  Elec       q    Type
REMARK                         _______ _______ _______ _____ _____    ______ ____
ROOT
ATOM      1  C   UNL     1      -7.619  -0.759 131.667  0.00  0.00    +0.000 C 
ATOM      2  C   UNL     1      -7.367  -0.960 134.287  0.00  0.00    +0.000 C 
ATOM      3  S   UNL     1      -6.275  -1.121 136.812  0.00  0.00    +0.000 S 
ATOM      4  S   UNL     1      -4.954  -1.852 139.260  0.00  0.00    +0.000 S 
ATOM      5  C   UNL     1      -2.966  -2.154 139.197  0.00  0.00    +0.000 C 
ATOM      6  C   UNL     1      -1.846  -3.062 139.662  0.00  0.00    +0.000 C 
ATOM      7  C   UNL     1      -0.640  -3.229 138.714  0.00  0.00    +0.000 C 
ATOM      8  O   UNL     1       0.377  -3.814 139.099  0.00  0.00    +0.000 OA
ATOM      9  N   UNL     1      -0.747  -2.770 137.422  0.00  0.00    +0.000 N 
ATOM     10  C   UNL     1      -1.865  -2.028 136.866  0.00  0.00    +0.000 C 
ATOM     11  C   UNL     1      -3.119  -3.138 136.800  0.00  0.00    +0.000 C 
ATOM     12  O   UNL     1      -3.536  -3.888 137.737  0.00  0.00    +0.000 OA
ATOM     13  N   UNL     1      -3.862  -3.164 135.733  0.00  0.00    +0.000 N 
ATOM     14  C   UNL     1      -3.491  -2.627 134.509  0.00  0.00    +0.000 C 
ATOM     15  C   UNL     1      -3.688  -1.052 134.747  0.00  0.00    +0.000 C 
ATOM     16  O   UNL     1      -3.227  -0.179 135.510  0.00  0.00    +0.000 OA
ATOM     17  N   UNL     1      -4.275  -0.559 133.816  0.00  0.00    +0.000 N 
ATOM     18  C   UNL     1      -5.136  -1.272 132.938  0.00  0.00    +0.000 C 
ATOM     19  C   UNL     1      -3.741  -2.172 131.532  0.00  0.00    +0.000 C 
ATOM     20  O   UNL     1      -2.854  -2.887 131.878  0.00  0.00    +0.000 OA
ATOM     21  N   UNL     1      -3.514  -1.370 130.325  0.00  0.00    +0.000 N 
ATOM     22  C   UNL     1      -4.822  -0.124 129.624  0.00  0.00    +0.000 C 
ATOM     23  C   UNL     1      -5.801  -0.827 130.201  0.00  0.00    +0.000 C 
ATOM     24  O   UNL     1      -6.083  -1.495 131.684  0.00  0.00    +0.000 OA
ATOM     25  N   UNL     1      -7.640  -0.871 129.491  0.00  0.00    +0.000 N 
ATOM     26  H   UNL     1       0.066  -2.832 136.785  0.00  0.00    +0.000 HD
ATOM     27  H   UNL     1      -4.618  -3.831 135.781  0.00  0.00    +0.000 HD
ATOM     28  H   UNL     1      -3.963   0.356 133.407  0.00  0.00    +0.000 HD
ATOM     29  H   UNL     1      -3.514  -2.299 129.777  0.00  0.00    +0.000 HD
ATOM     30  H   UNL     1      -8.500  -1.449 128.980  0.00  0.00    +0.000 HD
ENDROOT
BRANCH   1  36
ATOM     31  C   UNL     1      -8.189   1.001 126.399  0.00  0.00    +0.000 C 
ATOM     32  C   UNL     1      -9.636   0.854 125.682  0.00  0.00    +0.000 C 
ATOM     33  C   UNL     1      -9.326   0.508 124.291  0.00  0.00    +0.000 C 
ATOM     34  C   UNL     1      -7.773  -0.448 124.969  0.00  0.00    +0.000 C 
ATOM     35  N   UNL     1      -7.148  -0.346 127.043  0.00  0.00    +0.000 N 
ATOM     36  C   UNL     1      -7.053  -0.806 129.194  0.00  0.00    +0.000 C 
ATOM     37  O   UNL     1      -6.427  -1.480 127.868  0.00  0.00    +0.000 OA
BRANCH  31  39
ATOM     38  N   UNL     1      -7.427   2.328 127.905  0.00  0.00    +0.000 N 
ATOM     39  C   UNL     1      -8.097   1.269 127.736  0.00  0.00    +0.000 C 
ATOM     40  O   UNL     1      -8.738   0.871 128.664  0.00  0.00    +0.000 OA
ATOM     41  H   UNL     1      -7.272   3.240 127.011  0.00  0.00    +0.000 HD
BRANCH  38  42
ATOM     42  C   UNL     1      -7.225   2.873 129.154  0.00  0.00    +0.000 C 
BRANCH  42  44
ATOM     43  N   UNL     1      -9.473   4.317 130.631  0.00  0.00    +0.000 N 
ATOM     44  C   UNL     1      -8.768   4.044 129.570  0.00  0.00    +0.000 C 
ATOM     45  O   UNL     1      -8.947   5.332 128.203  0.00  0.00    +0.000 OA
ATOM     46  H   UNL     1      -8.786   3.970 131.196  0.00  0.00    +0.000 HD
BRANCH  43  47
ATOM     47  C   UNL     1     -10.562   5.298 130.542  0.00  0.00    +0.000 C 
BRANCH  47  49
ATOM     48  N   UNL     1     -10.701   5.859 132.811  0.00  0.00    +0.000 N 
ATOM     49  C   UNL     1     -10.087   6.086 131.615  0.00  0.00    +0.000 C 
ATOM     50  O   UNL     1      -9.198   6.919 131.437  0.00  0.00    +0.000 OA
ATOM     51  H   UNL     1     -10.425   6.405 133.618  0.00  0.00    +0.000 HD
ATOM     52  H   UNL     1     -11.431   5.173 132.969  0.00  0.00    +0.000 HD
ENDBRANCH  47  49
ENDBRANCH  43  47
ENDBRANCH  42  44
BRANCH  42  53
ATOM     53  C   UNL     1      -5.670   4.533 128.944  0.00  0.00    +0.000 C 
BRANCH  53  54
ATOM     54  C   UNL     1      -4.820   4.737 126.894  0.00  0.00    +0.000 C 
BRANCH  54  55
ATOM     55  C   UNL     1      -5.867   4.924 126.089  0.00  0.00    +0.000 C 
BRANCH  55  56
ATOM     56  N   UNL     1      -5.531   3.938 125.242  0.00  0.00    +0.000 NA
ATOM     57  C   UNL     1      -6.599   3.708 124.625  0.00  0.00    +0.000 C 
ATOM     58  N   UNL     1      -7.794   4.349 124.843  0.00  0.00    +0.000 N 
ATOM     59  N   UNL     1      -6.436   2.763 123.679  0.00  0.00    +0.000 N 
ATOM     60  H   UNL     1      -7.941   5.064 125.578  0.00  0.00    +0.000 HD
ATOM     61  H   UNL     1      -8.620   4.130 124.330  0.00  0.00    +0.000 HD
ATOM     62  H   UNL     1      -5.536   2.291 123.513  0.00  0.00    +0.000 HD
ATOM     63  H   UNL     1      -7.180   2.463 123.086  0.00  0.00    +0.000 HD
ENDBRANCH  55  56
ENDBRANCH  54  55
ENDBRANCH  53  54
ENDBRANCH  42  53
ENDBRANCH  38  42
ENDBRANCH  31  39
ENDBRANCH   1  36
BRANCH  10  64
ATOM     64  C   UNL     1      -1.411  -1.578 135.565  0.00  0.00    +0.000 C 
BRANCH  64  65
ATOM     65  C   UNL     1      -0.325  -2.211 134.889  0.00  0.00    +0.000 A 
ATOM     66  C   UNL     1       0.356  -1.349 134.091  0.00  0.00    +0.000 A 
ATOM     67  C   UNL     1       1.538  -1.672 133.520  0.00  0.00    +0.000 A 
ATOM     68  C   UNL     1       2.040  -2.926 133.739  0.00  0.00    +0.000 A 
ATOM     69  C   UNL     1       1.332  -3.840 134.498  0.00  0.00    +0.000 A 
ATOM     70  C   UNL     1       0.139  -3.486 135.081  0.00  0.00    +0.000 A 
BRANCH  68  71
ATOM     71  O   UNL     1       3.221  -3.360 133.233  0.00  0.00    +0.000 OA
ATOM     72  H   UNL     1       3.402  -4.305 133.358  0.00  0.00    +0.000 HD
ENDBRANCH  68  71
ENDBRANCH  64  65
ENDBRANCH  10  64
BRANCH  14  73
ATOM     73  C   UNL     1      -4.395  -3.315 133.614  0.00  0.00    +0.000 C 
BRANCH  73  74
ATOM     74  C   UNL     1      -5.260  -4.355 133.992  0.00  0.00    +0.000 A 
ATOM     75  C   UNL     1      -6.604  -4.274 134.163  0.00  0.00    +0.000 A 
ATOM     76  C   UNL     1      -7.154  -5.231 134.966  0.00  0.00    +0.000 A 
ATOM     77  C   UNL     1      -6.482  -6.372 135.300  0.00  0.00    +0.000 A 
ATOM     78  C   UNL     1      -5.156  -6.433 135.032  0.00  0.00    +0.000 A 
ATOM     79  C   UNL     1      -4.565  -5.451 134.340  0.00  0.00    +0.000 A 
ENDBRANCH  73  74
ENDBRANCH  14  73
BRANCH  18  80
ATOM     80  C   UNL     1      -6.020   0.530 131.730  0.00  0.00    +0.000 C 
BRANCH  80  81
ATOM     81  C   UNL     1      -5.704   2.551 132.516  0.00  0.00    +0.000 A 
ATOM     82  C   UNL     1      -6.684   2.450 133.330  0.00  0.00    +0.000 A 
ATOM     83  N   UNL     1      -6.811   3.778 132.979  0.00  0.00    +0.000 N 
ATOM     84  C   UNL     1      -6.836   4.285 134.162  0.00  0.00    +0.000 A 
ATOM     85  C   UNL     1      -7.845   5.070 134.774  0.00  0.00    +0.000 A 
ATOM     86  C   UNL     1      -7.646   5.813 135.917  0.00  0.00    +0.000 A 
ATOM     87  C   UNL     1      -6.543   5.587 136.630  0.00  0.00    +0.000 A 
ATOM     88  C   UNL     1      -5.569   4.634 135.775  0.00  0.00    +0.000 A 
ATOM     89  C   UNL     1      -5.502   3.709 134.185  0.00  0.00    +0.000 A 
ATOM     90  H   UNL     1      -7.123   4.264 132.162  0.00  0.00    +0.000 HD
ENDBRANCH  80  81
ENDBRANCH  18  80
BRANCH  22  91
ATOM     91  C   UNL     1      -4.780  -0.043 128.267  0.00  0.00    +0.000 C 
BRANCH  91  92
ATOM     92  C   UNL     1      -4.216   1.163 127.945  0.00  0.00    +0.000 C 
ATOM     93  N   UNL     1      -4.240   1.449 126.619  0.00  0.00    +0.000 N 
ATOM     94  O   UNL     1      -3.793   1.906 128.785  0.00  0.00    +0.000 OA
ATOM     95  H   UNL     1      -4.682   0.884 125.889  0.00  0.00    +0.000 HD
ATOM     96  H   UNL     1      -3.797   2.268 126.284  0.00  0.00    +0.000 HD
ENDBRANCH  91  92
ENDBRANCH  22  91
TORSDOF 19
ENDMDL
MODEL 7
REMARK VINA RESULT:      -9.4      5.843     11.662
REMARK  Name = CHEMBL2369840
REMARK  19 active torsions:
REMARK  status: ('A' for Active; 'I' for Inactive)
REMARK    1  A    between atoms: C_2  and  C_4
REMARK    2  A    between atoms: C_4  and  N_5
REMARK    3  A    between atoms: C_6  and  C_8
REMARK    4  A    between atoms: C_8  and  C_9
REMARK    5  A    between atoms: C_8  and  N_16
REMARK    6  A    between atoms: C_9  and  C_10
REMARK    7  A    between atoms: C_10  and  C_11
REMARK    8  A    between atoms: C_11  and  N_12
REMARK    9  A    between atoms: C_17  and  C_19
REMARK   10  A    between atoms: C_24  and  C_26
REMARK   11  A    between atoms: C_35  and  C_36
REMARK   12  A    between atoms: C_36  and  C_37
REMARK   13  A    between atoms: C_40  and  O_41
REMARK   14  A    between atoms: C_47  and  C_48
REMARK   15  A    between atoms: C_48  and  C_49
REMARK   16  A    between atoms: C_58  and  C_59
REMARK   17  A    between atoms: C_59  and  C_60
REMARK   18  A    between atoms: C_72  and  C_73
REMARK   19  A    between atoms: C_73  and  C_74
REMARK                            x       y       z     vdW  Elec       q    Type
REMARK                         _______ _______ _______ _____ _____    ______ ____
ROOT
ATOM      1  C   UNL     1      -4.129   4.569 136.732  0.00  0.00    +0.000 C 
ATOM      2  C   UNL     1      -3.290   4.086 134.277  0.00  0.00    +0.000 C 
ATOM      3  S   UNL     1      -3.141   3.990 131.527  0.00  0.00    +0.000 S 
ATOM      4  S   UNL     1      -3.452   3.485 128.712  0.00  0.00    +0.000 S 
ATOM      5  C   UNL     1      -5.189   4.022 127.851  0.00  0.00    +0.000 C 
ATOM      6  C   UNL     1      -6.268   3.582 126.884  0.00  0.00    +0.000 C 
ATOM      7  C   UNL     1      -7.706   4.064 127.171  0.00  0.00    +0.000 C 
ATOM      8  O   UNL     1      -8.599   3.886 126.338  0.00  0.00    +0.000 OA
ATOM      9  N   UNL     1      -7.980   4.634 128.392  0.00  0.00    +0.000 N 
ATOM     10  C   UNL     1      -7.012   4.939 129.431  0.00  0.00    +0.000 C 
ATOM     11  C   UNL     1      -6.519   3.442 130.003  0.00  0.00    +0.000 C 
ATOM     12  O   UNL     1      -6.106   2.453 129.321  0.00  0.00    +0.000 OA
ATOM     13  N   UNL     1      -6.398   3.284 131.288  0.00  0.00    +0.000 N 
ATOM     14  C   UNL     1      -6.989   4.107 132.237  0.00  0.00    +0.000 C 
ATOM     15  C   UNL     1      -6.055   5.412 132.193  0.00  0.00    +0.000 C 
ATOM     16  O   UNL     1      -5.721   6.268 131.349  0.00  0.00    +0.000 OA
ATOM     17  N   UNL     1      -5.778   5.765 133.312  0.00  0.00    +0.000 N 
ATOM     18  C   UNL     1      -5.776   4.910 134.448  0.00  0.00    +0.000 C 
ATOM     19  C   UNL     1      -7.874   4.877 135.021  0.00  0.00    +0.000 C 
ATOM     20  O   UNL     1      -8.737   4.535 134.274  0.00  0.00    +0.000 OA
ATOM     21  N   UNL     1      -8.231   5.878 136.032  0.00  0.00    +0.000 N 
ATOM     22  C   UNL     1      -6.959   6.584 137.312  0.00  0.00    +0.000 C 
ATOM     23  C   UNL     1      -6.233   5.467 137.208  0.00  0.00    +0.000 C 
ATOM     24  O   UNL     1      -5.658   4.522 135.983  0.00  0.00    +0.000 OA
ATOM     25  N   UNL     1      -5.095   4.796 138.672  0.00  0.00    +0.000 N 
ATOM     26  H   UNL     1      -8.926   5.003 128.587  0.00  0.00    +0.000 HD
ATOM     27  H   UNL     1      -6.062   2.371 131.555  0.00  0.00    +0.000 HD
ATOM     28  H   UNL     1      -5.810   6.779 133.581  0.00  0.00    +0.000 HD
ATOM     29  H   UNL     1      -8.864   5.124 136.472  0.00  0.00    +0.000 HD
ATOM     30  H   UNL     1      -4.878   4.006 139.487  0.00  0.00    +0.000 HD
ENDROOT
BRANCH   1  36
ATOM     31  C   UNL     1      -5.163   6.639 141.813  0.00  0.00    +0.000 C 
ATOM     32  C   UNL     1      -4.419   5.972 143.091  0.00  0.00    +0.000 C 
ATOM     33  C   UNL     1      -5.422   6.005 144.161  0.00  0.00    +0.000 C 
ATOM     34  C   UNL     1      -6.771   5.747 142.783  0.00  0.00    +0.000 C 
ATOM     35  N   UNL     1      -6.309   5.813 140.665  0.00  0.00    +0.000 N 
ATOM     36  C   UNL     1      -5.662   5.137 138.672  0.00  0.00    +0.000 C 
ATOM     37  O   UNL     1      -7.031   5.009 139.517  0.00  0.00    +0.000 OA
BRANCH  31  39
ATOM     38  N   UNL     1      -4.630   7.903 140.163  0.00  0.00    +0.000 N 
ATOM     39  C   UNL     1      -4.532   6.723 140.604  0.00  0.00    +0.000 C 
ATOM     40  O   UNL     1      -3.723   6.009 140.088  0.00  0.00    +0.000 OA
ATOM     41  H   UNL     1      -4.846   8.938 140.897  0.00  0.00    +0.000 HD
BRANCH  38  42
ATOM     42  C   UNL     1      -4.031   8.296 138.986  0.00  0.00    +0.000 C 
BRANCH  42  44
ATOM     43  N   UNL     1      -1.156   9.292 138.752  0.00  0.00    +0.000 N 
ATOM     44  C   UNL     1      -2.242   9.026 139.420  0.00  0.00    +0.000 C 
ATOM     45  O   UNL     1      -2.324   9.900 141.090  0.00  0.00    +0.000 OA
ATOM     46  H   UNL     1      -1.640   9.282 137.929  0.00  0.00    +0.000 HD
BRANCH  43  47
ATOM     47  C   UNL     1      -0.003   9.874 139.450  0.00  0.00    +0.000 C 
BRANCH  47  49
ATOM     48  N   UNL     1       1.015   9.292 137.423  0.00  0.00    +0.000 N 
ATOM     49  C   UNL     1       0.641  10.297 138.265  0.00  0.00    +0.000 C 
ATOM     50  O   UNL     1       0.848  11.493 138.056  0.00  0.00    +0.000 OA
ATOM     51  H   UNL     1       1.502   9.523 136.565  0.00  0.00    +0.000 HD
ATOM     52  H   UNL     1       0.846   8.305 137.585  0.00  0.00    +0.000 HD
ENDBRANCH  47  49
ENDBRANCH  43  47
ENDBRANCH  42  44
BRANCH  42  53
ATOM     53  C   UNL     1      -4.985  10.269 138.344  0.00  0.00    +0.000 C 
BRANCH  53  54
ATOM     54  C   UNL     1      -3.524  11.898 137.926  0.00  0.00    +0.000 C 
BRANCH  54  55
ATOM     55  C   UNL     1      -3.413  12.582 139.065  0.00  0.00    +0.000 C 
BRANCH  55  56
ATOM     56  N   UNL     1      -2.159  12.997 138.822  0.00  0.00    +0.000 NA
ATOM     57  C   UNL     1      -1.677  13.153 139.970  0.00  0.00    +0.000 C 
ATOM     58  N   UNL     1      -2.352  12.945 141.148  0.00  0.00    +0.000 N 
ATOM     59  N   UNL     1      -0.384  13.526 139.922  0.00  0.00    +0.000 N 
ATOM     60  H   UNL     1      -3.351  12.677 141.202  0.00  0.00    +0.000 HD
ATOM     61  H   UNL     1      -1.929  13.086 142.039  0.00  0.00    +0.000 HD
ATOM     62  H   UNL     1       0.121  13.673 139.036  0.00  0.00    +0.000 HD
ATOM     63  H   UNL     1       0.160  13.685 140.743  0.00  0.00    +0.000 HD
ENDBRANCH  55  56
ENDBRANCH  54  55
ENDBRANCH  53  54
ENDBRANCH  42  53
ENDBRANCH  38  42
ENDBRANCH  31  39
ENDBRANCH   1  36
BRANCH  10  64
ATOM     64  C   UNL     1      -7.739   5.729 130.406  0.00  0.00    +0.000 C 
BRANCH  64  65
ATOM     65  C   UNL     1      -9.094   6.123 130.191  0.00  0.00    +0.000 A 
ATOM     66  C   UNL     1      -9.977   5.214 130.678  0.00  0.00    +0.000 A 
ATOM     67  C   UNL     1     -11.301   5.471 130.773  0.00  0.00    +0.000 A 
ATOM     68  C   UNL     1     -11.757   6.683 130.333  0.00  0.00    +0.000 A 
ATOM     69  C   UNL     1     -10.884   7.599 129.776  0.00  0.00    +0.000 A 
ATOM     70  C   UNL     1      -9.539   7.323 129.701  0.00  0.00    +0.000 A 
BRANCH  68  71
ATOM     71  O   UNL     1     -13.059   7.060 130.390  0.00  0.00    +0.000 OA
ATOM     72  H   UNL     1     -13.694   6.336 130.507  0.00  0.00    +0.000 HD
ENDBRANCH  68  71
ENDBRANCH  64  65
ENDBRANCH  10  64
BRANCH  14  73
ATOM     73  C   UNL     1      -6.950   3.261 133.407  0.00  0.00    +0.000 C 
BRANCH  73  74
ATOM     74  C   UNL     1      -7.103   1.865 133.394  0.00  0.00    +0.000 A 
ATOM     75  C   UNL     1      -6.227   0.945 133.874  0.00  0.00    +0.000 A 
ATOM     76  C   UNL     1      -6.341  -0.308 133.344  0.00  0.00    +0.000 A 
ATOM     77  C   UNL     1      -7.447  -0.703 132.646  0.00  0.00    +0.000 A 
ATOM     78  C   UNL     1      -8.332   0.246 132.262  0.00  0.00    +0.000 A 
ATOM     79  C   UNL     1      -8.182   1.510 132.676  0.00  0.00    +0.000 A 
ENDBRANCH  73  74
ENDBRANCH  14  73
BRANCH  18  80
ATOM     80  C   UNL     1      -4.821   6.367 136.015  0.00  0.00    +0.000 C 
BRANCH  80  81
ATOM     81  C   UNL     1      -2.976   7.411 135.460  0.00  0.00    +0.000 A 
ATOM     82  C   UNL     1      -3.610   8.295 134.789  0.00  0.00    +0.000 A 
ATOM     83  N   UNL     1      -2.490   8.162 133.995  0.00  0.00    +0.000 N 
ATOM     84  C   UNL     1      -2.159   9.404 133.924  0.00  0.00    +0.000 A 
ATOM     85  C   UNL     1      -2.021  10.224 132.777  0.00  0.00    +0.000 A 
ATOM     86  C   UNL     1      -1.373  11.440 132.781  0.00  0.00    +0.000 A 
ATOM     87  C   UNL     1      -1.089  11.997 133.958  0.00  0.00    +0.000 A 
ATOM     88  C   UNL     1      -1.370  10.916 135.116  0.00  0.00    +0.000 A 
ATOM     89  C   UNL     1      -2.010   9.206 135.356  0.00  0.00    +0.000 A 
ATOM     90  H   UNL     1      -2.152   7.462 133.364  0.00  0.00    +0.000 HD
ENDBRANCH  80  81
ENDBRANCH  18  80
BRANCH  22  91
ATOM     91  C   UNL     1      -7.540   6.883 138.504  0.00  0.00    +0.000 C 
BRANCH  91  92
ATOM     92  C   UNL     1      -8.078   8.139 138.396  0.00  0.00    +0.000 C 
ATOM     93  N   UNL     1      -7.958   8.891 139.517  0.00  0.00    +0.000 N 
ATOM     94  O   UNL     1      -8.558   8.532 137.370  0.00  0.00    +0.000 OA
ATOM     95  H   UNL     1      -7.466   8.622 140.374  0.00  0.00    +0.000 HD
ATOM     96  H   UNL     1      -8.375   9.789 139.556  0.00  0.00    +0.000 HD
ENDBRANCH  91  92
ENDBRANCH  22  91
TORSDOF 19
ENDMDL
MODEL 8
REMARK VINA RESULT:      -9.2      6.755     11.956
REMARK  Name = CHEMBL2369840
REMARK  19 active torsions:
REMARK  status: ('A' for Active; 'I' for Inactive)
REMARK    1  A    between atoms: C_2  and  C_4
REMARK    2  A    between atoms: C_4  and  N_5
REMARK    3  A    between atoms: C_6  and  C_8
REMARK    4  A    between atoms: C_8  and  C_9
REMARK    5  A    between atoms: C_8  and  N_16
REMARK    6  A    between atoms: C_9  and  C_10
REMARK    7  A    between atoms: C_10  and  C_11
REMARK    8  A    between atoms: C_11  and  N_12
REMARK    9  A    between atoms: C_17  and  C_19
REMARK   10  A    between atoms: C_24  and  C_26
REMARK   11  A    between atoms: C_35  and  C_36
REMARK   12  A    between atoms: C_36  and  C_37
REMARK   13  A    between atoms: C_40  and  O_41
REMARK   14  A    between atoms: C_47  and  C_48
REMARK   15  A    between atoms: C_48  and  C_49
REMARK   16  A    between atoms: C_58  and  C_59
REMARK   17  A    between atoms: C_59  and  C_60
REMARK   18  A    between atoms: C_72  and  C_73
REMARK   19  A    between atoms: C_73  and  C_74
REMARK                            x       y       z     vdW  Elec       q    Type
REMARK                         _______ _______ _______ _____ _____    ______ ____
ROOT
ATOM      1  C   UNL     1      -1.497   6.726 136.194  0.00  0.00    +0.000 C 
ATOM      2  C   UNL     1      -1.209   6.278 133.609  0.00  0.00    +0.000 C 
ATOM      3  S   UNL     1      -1.752   5.953 130.927  0.00  0.00    +0.000 S 
ATOM      4  S   UNL     1      -2.596   5.093 128.315  0.00  0.00    +0.000 S 
ATOM      5  C   UNL     1      -4.573   4.978 127.962  0.00  0.00    +0.000 C 
ATOM      6  C   UNL     1      -5.661   4.131 127.337  0.00  0.00    +0.000 C 
ATOM      7  C   UNL     1      -7.052   4.171 128.004  0.00  0.00    +0.000 C 
ATOM      8  O   UNL     1      -8.022   3.643 127.453  0.00  0.00    +0.000 OA
ATOM      9  N   UNL     1      -7.172   4.750 129.246  0.00  0.00    +0.000 N 
ATOM     10  C   UNL     1      -6.122   5.443 129.972  0.00  0.00    +0.000 C 
ATOM     11  C   UNL     1      -5.041   4.238 130.405  0.00  0.00    +0.000 C 
ATOM     12  O   UNL     1      -4.519   3.361 129.648  0.00  0.00    +0.000 OA
ATOM     13  N   UNL     1      -4.547   4.257 131.609  0.00  0.00    +0.000 N 
ATOM     14  C   UNL     1      -5.108   4.949 132.672  0.00  0.00    +0.000 C 
ATOM     15  C   UNL     1      -4.694   6.467 132.355  0.00  0.00    +0.000 C 
ATOM     16  O   UNL     1      -4.885   7.294 131.441  0.00  0.00    +0.000 OA
ATOM     17  N   UNL     1      -4.267   7.000 133.350  0.00  0.00    +0.000 N 
ATOM     18  C   UNL     1      -3.695   6.308 134.452  0.00  0.00    +0.000 C 
ATOM     19  C   UNL     1      -5.446   5.687 135.583  0.00  0.00    +0.000 C 
ATOM     20  O   UNL     1      -6.313   5.022 135.109  0.00  0.00    +0.000 OA
ATOM     21  N   UNL     1      -5.835   6.626 136.640  0.00  0.00    +0.000 N 
ATOM     22  C   UNL     1      -4.577   7.817 137.509  0.00  0.00    +0.000 C 
ATOM     23  C   UNL     1      -3.581   6.974 137.222  0.00  0.00    +0.000 C 
ATOM     24  O   UNL     1      -3.066   6.133 135.899  0.00  0.00    +0.000 OA
ATOM     25  N   UNL     1      -1.950   6.839 138.323  0.00  0.00    +0.000 N 
ATOM     26  H   UNL     1      -8.103   4.827 129.690  0.00  0.00    +0.000 HD
ATOM     27  H   UNL     1      -3.876   3.524 131.784  0.00  0.00    +0.000 HD
ATOM     28  H   UNL     1      -4.556   7.976 133.603  0.00  0.00    +0.000 HD
ATOM     29  H   UNL     1      -6.053   5.763 137.248  0.00  0.00    +0.000 HD
ATOM     30  H   UNL     1      -1.286   6.242 139.057  0.00  0.00    +0.000 HD
ENDROOT
BRANCH   1  36
ATOM     31  C   UNL     1      -1.738   8.791 141.376  0.00  0.00    +0.000 C 
ATOM     32  C   UNL     1      -0.532   8.449 142.407  0.00  0.00    +0.000 C 
ATOM     33  C   UNL     1      -1.193   8.281 143.706  0.00  0.00    +0.000 C 
ATOM     34  C   UNL     1      -2.719   7.563 142.735  0.00  0.00    +0.000 C 
ATOM     35  N   UNL     1      -2.855   7.600 140.572  0.00  0.00    +0.000 N 
ATOM     36  C   UNL     1      -2.576   6.987 138.476  0.00  0.00    +0.000 C 
ATOM     37  O   UNL     1      -3.588   6.548 139.655  0.00  0.00    +0.000 OA
BRANCH  31  39
ATOM     38  N   UNL     1      -2.082   9.997 139.634  0.00  0.00    +0.000 N 
ATOM     39  C   UNL     1      -1.489   8.958 140.043  0.00  0.00    +0.000 C 
ATOM     40  O   UNL     1      -0.641   8.497 139.337  0.00  0.00    +0.000 OA
ATOM     41  H   UNL     1      -2.445  10.972 140.392  0.00  0.00    +0.000 HD
BRANCH  38  42
ATOM     42  C   UNL     1      -1.959  10.447 138.339  0.00  0.00    +0.000 C 
BRANCH  42  44
ATOM     43  N   UNL     1      -0.094  12.734 139.118  0.00  0.00    +0.000 N 
ATOM     44  C   UNL     1      -0.535  11.824 138.298  0.00  0.00    +0.000 C 
ATOM     45  O   UNL     1       0.685  11.403 136.923  0.00  0.00    +0.000 OA
ATOM     46  H   UNL     1      -0.514  12.296 139.856  0.00  0.00    +0.000 HD
BRANCH  43  47
ATOM     47  C   UNL     1       1.041  13.576 138.721  0.00  0.00    +0.000 C 
BRANCH  47  49
ATOM     48  N   UNL     1      -0.139  15.532 138.207  0.00  0.00    +0.000 N 
ATOM     49  C   UNL     1       0.452  14.777 139.176  0.00  0.00    +0.000 C 
ATOM     50  O   UNL     1       0.508  15.093 140.365  0.00  0.00    +0.000 OA
ATOM     51  H   UNL     1      -0.562  16.417 138.459  0.00  0.00    +0.000 HD
ATOM     52  H   UNL     1      -0.194  15.279 137.225  0.00  0.00    +0.000 HD
ENDBRANCH  47  49
ENDBRANCH  43  47
ENDBRANCH  42  44
BRANCH  42  53
ATOM     53  C   UNL     1      -3.711  11.852 137.921  0.00  0.00    +0.000 C 
BRANCH  53  54
ATOM     54  C   UNL     1      -4.892  12.404 139.728  0.00  0.00    +0.000 C 
BRANCH  54  55
ATOM     55  C   UNL     1      -5.871  13.196 139.288  0.00  0.00    +0.000 C 
BRANCH  55  56
ATOM     56  N   UNL     1      -6.856  12.343 139.615  0.00  0.00    +0.000 NA
ATOM     57  C   UNL     1      -7.792  13.102 139.966  0.00  0.00    +0.000 C 
ATOM     58  N   UNL     1      -7.731  14.474 139.997  0.00  0.00    +0.000 N 
ATOM     59  N   UNL     1      -8.902  12.411 140.286  0.00  0.00    +0.000 N 
ATOM     60  H   UNL     1      -6.880  15.020 139.772  0.00  0.00    +0.000 HD
ATOM     61  H   UNL     1      -8.500  15.038 140.287  0.00  0.00    +0.000 HD
ATOM     62  H   UNL     1      -8.946  11.382 140.254  0.00  0.00    +0.000 HD
ATOM     63  H   UNL     1      -9.746  12.856 140.577  0.00  0.00    +0.000 HD
ENDBRANCH  55  56
ENDBRANCH  54  55
ENDBRANCH  53  54
ENDBRANCH  42  53
ENDBRANCH  38  42
ENDBRANCH  31  39
ENDBRANCH   1  36
BRANCH  10  64
ATOM     64  C   UNL     1      -6.789   6.065 131.100  0.00  0.00    +0.000 C 
BRANCH  64  65
ATOM     65  C   UNL     1      -8.212   6.120 131.192  0.00  0.00    +0.000 A 
ATOM     66  C   UNL     1      -8.685   5.433 132.263  0.00  0.00    +0.000 A 
ATOM     67  C   UNL     1      -9.973   5.518 132.666  0.00  0.00    +0.000 A 
ATOM     68  C   UNL     1     -10.826   6.306 131.942  0.00  0.00    +0.000 A 
ATOM     69  C   UNL     1     -10.380   6.965 130.811  0.00  0.00    +0.000 A 
ATOM     70  C   UNL     1      -9.062   6.876 130.427  0.00  0.00    +0.000 A 
BRANCH  68  71
ATOM     71  O   UNL     1     -12.134   6.481 132.256  0.00  0.00    +0.000 OA
ATOM     72  H   UNL     1     -12.302   6.822 133.148  0.00  0.00    +0.000 HD
ENDBRANCH  68  71
ENDBRANCH  64  65
ENDBRANCH  10  64
BRANCH  14  73
ATOM     73  C   UNL     1      -4.496   4.279 133.798  0.00  0.00    +0.000 C 
BRANCH  73  74
ATOM     74  C   UNL     1      -4.119   2.927 133.819  0.00  0.00    +0.000 A 
ATOM     75  C   UNL     1      -2.905   2.414 133.495  0.00  0.00    +0.000 A 
ATOM     76  C   UNL     1      -2.899   1.099 133.130  0.00  0.00    +0.000 A 
ATOM     77  C   UNL     1      -3.954   0.270 133.388  0.00  0.00    +0.000 A 
ATOM     78  C   UNL     1      -5.121   0.827 133.788  0.00  0.00    +0.000 A 
ATOM     79  C   UNL     1      -5.184   2.139 134.046  0.00  0.00    +0.000 A 
ENDBRANCH  73  74
ENDBRANCH  14  73
BRANCH  18  80
ATOM     80  C   UNL     1      -2.895   8.139 135.673  0.00  0.00    +0.000 C 
BRANCH  80  81
ATOM     81  C   UNL     1      -2.757  10.075 134.656  0.00  0.00    +0.000 A 
ATOM     82  C   UNL     1      -1.499   9.951 134.467  0.00  0.00    +0.000 A 
ATOM     83  N   UNL     1      -1.562  11.307 134.712  0.00  0.00    +0.000 N 
ATOM     84  C   UNL     1      -0.935  11.718 133.665  0.00  0.00    +0.000 A 
ATOM     85  C   UNL     1       0.248  12.493 133.584  0.00  0.00    +0.000 A 
ATOM     86  C   UNL     1       0.664  13.132 132.437  0.00  0.00    +0.000 A 
ATOM     87  C   UNL     1       0.079  12.803 131.286  0.00  0.00    +0.000 A 
ATOM     88  C   UNL     1      -1.199  11.881 131.608  0.00  0.00    +0.000 A 
ATOM     89  C   UNL     1      -2.072  11.085 133.020  0.00  0.00    +0.000 A 
ATOM     90  H   UNL     1      -1.710  11.870 135.526  0.00  0.00    +0.000 HD
ENDBRANCH  80  81
ENDBRANCH  18  80
BRANCH  22  91
ATOM     91  C   UNL     1      -4.896   8.042 138.811  0.00  0.00    +0.000 C 
BRANCH  91  92
ATOM     92  C   UNL     1      -5.927   8.944 138.832  0.00  0.00    +0.000 C 
ATOM     93  N   UNL     1      -6.403   9.212 140.073  0.00  0.00    +0.000 N 
ATOM     94  O   UNL     1      -6.319   9.475 137.832  0.00  0.00    +0.000 OA
ATOM     95  H   UNL     1      -6.026   8.852 140.954  0.00  0.00    +0.000 HD
ATOM     96  H   UNL     1      -7.192   9.801 140.181  0.00  0.00    +0.000 HD
ENDBRANCH  91  92
ENDBRANCH  22  91
TORSDOF 19
ENDMDL
MODEL 9
REMARK VINA RESULT:      -9.1      3.656      6.734
REMARK  Name = CHEMBL2369840
REMARK  19 active torsions:
REMARK  status: ('A' for Active; 'I' for Inactive)
REMARK    1  A    between atoms: C_2  and  C_4
REMARK    2  A    between atoms: C_4  and  N_5
REMARK    3  A    between atoms: C_6  and  C_8
REMARK    4  A    between atoms: C_8  and  C_9
REMARK    5  A    between atoms: C_8  and  N_16
REMARK    6  A    between atoms: C_9  and  C_10
REMARK    7  A    between atoms: C_10  and  C_11
REMARK    8  A    between atoms: C_11  and  N_12
REMARK    9  A    between atoms: C_17  and  C_19
REMARK   10  A    between atoms: C_24  and  C_26
REMARK   11  A    between atoms: C_35  and  C_36
REMARK   12  A    between atoms: C_36  and  C_37
REMARK   13  A    between atoms: C_40  and  O_41
REMARK   14  A    between atoms: C_47  and  C_48
REMARK   15  A    between atoms: C_48  and  C_49
REMARK   16  A    between atoms: C_58  and  C_59
REMARK   17  A    between atoms: C_59  and  C_60
REMARK   18  A    between atoms: C_72  and  C_73
REMARK   19  A    between atoms: C_73  and  C_74
REMARK                            x       y       z     vdW  Elec       q    Type
REMARK                         _______ _______ _______ _____ _____    ______ ____
ROOT
ATOM      1  C   UNL     1      -3.925   2.411 130.991  0.00  0.00    +0.000 C 
ATOM      2  C   UNL     1      -3.132   1.524 133.347  0.00  0.00    +0.000 C 
ATOM      3  S   UNL     1      -2.896   1.157 136.068  0.00  0.00    +0.000 S 
ATOM      4  S   UNL     1      -2.396   1.339 138.895  0.00  0.00    +0.000 S 
ATOM      5  C   UNL     1      -3.373   2.762 139.929  0.00  0.00    +0.000 C 
ATOM      6  C   UNL     1      -3.222   3.828 140.994  0.00  0.00    +0.000 C 
ATOM      7  C   UNL     1      -4.103   5.087 140.855  0.00  0.00    +0.000 C 
ATOM      8  O   UNL     1      -4.155   5.914 141.770  0.00  0.00    +0.000 OA
ATOM      9  N   UNL     1      -4.772   5.298 139.672  0.00  0.00    +0.000 N 
ATOM     10  C   UNL     1      -4.828   4.383 138.545  0.00  0.00    +0.000 C 
ATOM     11  C   UNL     1      -3.275   4.395 137.913  0.00  0.00    +0.000 C 
ATOM     12  O   UNL     1      -2.185   4.221 138.542  0.00  0.00    +0.000 OA
ATOM     13  N   UNL     1      -3.137   4.442 136.621  0.00  0.00    +0.000 N 
ATOM     14  C   UNL     1      -4.128   4.857 135.743  0.00  0.00    +0.000 C 
ATOM     15  C   UNL     1      -5.112   3.589 135.706  0.00  0.00    +0.000 C 
ATOM     16  O   UNL     1      -5.805   2.947 136.521  0.00  0.00    +0.000 OA
ATOM     17  N   UNL     1      -5.412   3.327 134.568  0.00  0.00    +0.000 N 
ATOM     18  C   UNL     1      -4.635   3.674 133.430  0.00  0.00    +0.000 C 
ATOM     19  C   UNL     1      -5.221   5.738 133.067  0.00  0.00    +0.000 C 
ATOM     20  O   UNL     1      -5.111   6.590 133.892  0.00  0.00    +0.000 OA
ATOM     21  N   UNL     1      -6.319   5.884 132.105  0.00  0.00    +0.000 N 
ATOM     22  C   UNL     1      -6.681   4.586 130.712  0.00  0.00    +0.000 C 
ATOM     23  C   UNL     1      -5.401   4.205 130.734  0.00  0.00    +0.000 C 
ATOM     24  O   UNL     1      -4.286   3.814 131.887  0.00  0.00    +0.000 OA
ATOM     25  N   UNL     1      -4.488   3.447 129.159  0.00  0.00    +0.000 N 
ATOM     26  H   UNL     1      -5.402   6.112 139.575  0.00  0.00    +0.000 HD
ATOM     27  H   UNL     1      -2.176   4.408 136.313  0.00  0.00    +0.000 HD
ATOM     28  H   UNL     1      -6.402   3.091 134.313  0.00  0.00    +0.000 HD
ATOM     29  H   UNL     1      -5.793   6.744 131.723  0.00  0.00    +0.000 HD
ATOM     30  H   UNL     1      -3.701   3.541 128.319  0.00  0.00    +0.000 HD
ENDROOT
BRANCH   1  36
ATOM     31  C   UNL     1      -6.229   3.301 125.985  0.00  0.00    +0.000 C 
ATOM     32  C   UNL     1      -5.354   2.980 124.657  0.00  0.00    +0.000 C 
ATOM     33  C   UNL     1      -5.722   4.035 123.707  0.00  0.00    +0.000 C 
ATOM     34  C   UNL     1      -5.929   5.217 125.239  0.00  0.00    +0.000 C 
ATOM     35  N   UNL     1      -5.834   4.509 127.286  0.00  0.00    +0.000 N 
ATOM     36  C   UNL     1      -4.976   3.890 129.218  0.00  0.00    +0.000 C 
ATOM     37  O   UNL     1      -5.317   5.314 128.539  0.00  0.00    +0.000 OA
BRANCH  31  39
ATOM     38  N   UNL     1      -7.240   2.227 127.544  0.00  0.00    +0.000 N 
ATOM     39  C   UNL     1      -6.095   2.537 127.109  0.00  0.00    +0.000 C 
ATOM     40  O   UNL     1      -5.161   1.923 127.537  0.00  0.00    +0.000 OA
ATOM     41  H   UNL     1      -8.309   2.210 126.827  0.00  0.00    +0.000 HD
BRANCH  38  42
ATOM     42  C   UNL     1      -7.411   1.407 128.637  0.00  0.00    +0.000 C 
BRANCH  42  44
ATOM     43  N   UNL     1      -8.168  -0.928 126.822  0.00  0.00    +0.000 N 
ATOM     44  C   UNL     1      -7.992  -0.372 127.987  0.00  0.00    +0.000 C 
ATOM     45  O   UNL     1      -7.841  -1.619 129.394  0.00  0.00    +0.000 OA
ATOM     46  H   UNL     1      -7.631  -0.259 126.404  0.00  0.00    +0.000 HD
BRANCH  43  47
ATOM     47  C   UNL     1      -8.598  -2.330 126.749  0.00  0.00    +0.000 C 
BRANCH  47  49
ATOM     48  N   UNL     1      -8.373  -3.350 124.653  0.00  0.00    +0.000 N 
ATOM     49  C   UNL     1      -8.860  -2.291 125.360  0.00  0.00    +0.000 C 
ATOM     50  O   UNL     1      -9.468  -1.343 124.862  0.00  0.00    +0.000 OA
ATOM     51  H   UNL     1      -8.506  -3.376 123.650  0.00  0.00    +0.000 HD
ATOM     52  H   UNL     1      -7.874  -4.138 125.055  0.00  0.00    +0.000 HD
ENDBRANCH  47  49
ENDBRANCH  43  47
ENDBRANCH  42  44
BRANCH  42  53
ATOM     53  C   UNL     1      -9.378   1.987 129.642  0.00  0.00    +0.000 C 
BRANCH  53  54
ATOM     54  C   UNL     1      -9.405   1.673 131.848  0.00  0.00    +0.000 C 
BRANCH  54  55
ATOM     55  C   UNL     1      -9.955   2.775 132.361  0.00  0.00    +0.000 C 
BRANCH  55  56
ATOM     56  N   UNL     1      -9.059   2.893 133.354  0.00  0.00    +0.000 NA
ATOM     57  C   UNL     1      -9.249   4.059 133.779  0.00  0.00    +0.000 C 
ATOM     58  N   UNL     1     -10.167   4.946 133.274  0.00  0.00    +0.000 N 
ATOM     59  N   UNL     1      -8.457   4.341 134.831  0.00  0.00    +0.000 N 
ATOM     60  H   UNL     1     -10.770   4.752 132.454  0.00  0.00    +0.000 HD
ATOM     61  H   UNL     1     -10.281   5.866 133.642  0.00  0.00    +0.000 HD
ATOM     62  H   UNL     1      -7.776   3.670 135.211  0.00  0.00    +0.000 HD
ATOM     63  H   UNL     1      -8.483   5.221 135.301  0.00  0.00    +0.000 HD
ENDBRANCH  55  56
ENDBRANCH  54  55
ENDBRANCH  53  54
ENDBRANCH  42  53
ENDBRANCH  38  42
ENDBRANCH  31  39
ENDBRANCH   1  36
BRANCH  10  64
ATOM     64  C   UNL     1      -5.827   4.940 137.654  0.00  0.00    +0.000 C 
BRANCH  64  65
ATOM     65  C   UNL     1      -6.475   6.180 137.936  0.00  0.00    +0.000 A 
ATOM     66  C   UNL     1      -5.736   7.247 137.541  0.00  0.00    +0.000 A 
ATOM     67  C   UNL     1      -6.235   8.504 137.517  0.00  0.00    +0.000 A 
ATOM     68  C   UNL     1      -7.523   8.696 137.936  0.00  0.00    +0.000 A 
ATOM     69  C   UNL     1      -8.273   7.631 138.402  0.00  0.00    +0.000 A 
ATOM     70  C   UNL     1      -7.751   6.359 138.404  0.00  0.00    +0.000 A 
BRANCH  68  71
ATOM     71  O   UNL     1      -8.137   9.905 137.944  0.00  0.00    +0.000 OA
ATOM     72  H   UNL     1      -8.683  10.086 138.725  0.00  0.00    +0.000 HD
ENDBRANCH  68  71
ENDBRANCH  64  65
ENDBRANCH  10  64
BRANCH  14  73
ATOM     73  C   UNL     1      -3.350   5.171 134.566  0.00  0.00    +0.000 C 
BRANCH  73  74
ATOM     74  C   UNL     1      -2.218   6.001 134.551  0.00  0.00    +0.000 A 
ATOM     75  C   UNL     1      -1.954   7.035 135.391  0.00  0.00    +0.000 A 
ATOM     76  C   UNL     1      -1.081   7.970 134.917  0.00  0.00    +0.000 A 
ATOM     77  C   UNL     1      -0.275   7.731 133.840  0.00  0.00    +0.000 A 
ATOM     78  C   UNL     1      -0.531   6.639 133.081  0.00  0.00    +0.000 A 
ATOM     79  C   UNL     1      -1.463   5.759 133.465  0.00  0.00    +0.000 A 
ENDBRANCH  73  74
ENDBRANCH  14  73
BRANCH  18  80
ATOM     80  C   UNL     1      -5.817   2.491 131.790  0.00  0.00    +0.000 C 
BRANCH  80  81
ATOM     81  C   UNL     1      -5.994   0.318 132.014  0.00  0.00    +0.000 A 
ATOM     82  C   UNL     1      -6.363   0.416 133.234  0.00  0.00    +0.000 A 
ATOM     83  N   UNL     1      -5.596  -0.728 133.316  0.00  0.00    +0.000 N 
ATOM     84  C   UNL     1      -6.460  -1.495 133.884  0.00  0.00    +0.000 A 
ATOM     85  C   UNL     1      -6.366  -2.179 135.120  0.00  0.00    +0.000 A 
ATOM     86  C   UNL     1      -7.207  -3.206 135.491  0.00  0.00    +0.000 A 
ATOM     87  C   UNL     1      -8.317  -3.397 134.779  0.00  0.00    +0.000 A 
ATOM     88  C   UNL     1      -8.239  -2.487 133.455  0.00  0.00    +0.000 A 
ATOM     89  C   UNL     1      -7.165  -1.232 132.641  0.00  0.00    +0.000 A 
ATOM     90  H   UNL     1      -4.614  -0.922 133.293  0.00  0.00    +0.000 HD
ENDBRANCH  80  81
ENDBRANCH  18  80
BRANCH  22  91
ATOM     91  C   UNL     1      -7.177   5.165 129.587  0.00  0.00    +0.000 C 
BRANCH  91  92
ATOM     92  C   UNL     1      -8.486   5.488 129.833  0.00  0.00    +0.000 C 
ATOM     93  N   UNL     1      -9.300   5.357 128.757  0.00  0.00    +0.000 N 
ATOM     94  O   UNL     1      -8.862   5.804 130.926  0.00  0.00    +0.000 OA
ATOM     95  H   UNL     1      -9.032   4.996 127.838  0.00  0.00    +0.000 HD
ATOM     96  H   UNL     1     -10.250   5.632 128.821  0.00  0.00    +0.000 HD
ENDBRANCH  91  92
ENDBRANCH  22  91
TORSDOF 19
ENDMDL
