MODEL 1
REMARK VINA RESULT:      -8.7      0.000      0.000
REMARK  Name = CHEMBL269012
REMARK  35 active torsions:
REMARK  status: ('A' for Active; 'I' for Inactive)
REMARK    1  A    between atoms: C_1  and  N_2
REMARK    2  A    between atoms: N_2  and  C_13
REMARK    3  A    between atoms: C_3  and  C_5
REMARK    4  A    between atoms: C_5  and  C_6
REMARK    5  A    between atoms: C_9  and  O_10
REMARK    6  A    between atoms: C_13  and  C_14
REMARK    7  A    between atoms: C_13  and  C_22
REMARK    8  A    between atoms: C_14  and  C_15
REMARK    9  A    between atoms: C_18  and  O_19
REMARK   10  A    between atoms: N_24  and  C_25
REMARK   11  A    between atoms: C_25  and  C_26
REMARK   12  A    between atoms: C_25  and  C_33
REMARK   13  A    between atoms: C_26  and  C_27
REMARK   14  A    between atoms: N_35  and  C_36
REMARK   15  A    between atoms: C_36  and  C_37
REMARK   16  A    between atoms: C_36  and  C_42
REMARK   17  A    between atoms: C_37  and  C_38
REMARK   18  A    between atoms: C_38  and  C_39
REMARK   19  A    between atoms: N_44  and  C_45
REMARK   20  A    between atoms: C_45  and  C_46
REMARK   21  A    between atoms: C_45  and  C_50
REMARK   22  A    between atoms: C_46  and  C_47
REMARK   23  A    between atoms: N_52  and  C_53
REMARK   24  A    between atoms: C_53  and  C_54
REMARK   25  A    between atoms: C_53  and  C_61
REMARK   26  A    between atoms: C_54  and  C_55
REMARK   27  A    between atoms: C_55  and  C_56
REMARK   28  A    between atoms: C_56  and  N_57
REMARK   29  A    between atoms: C_67  and  C_68
REMARK   30  A    between atoms: N_70  and  C_71
REMARK   31  A    between atoms: C_71  and  C_72
REMARK   32  A    between atoms: C_71  and  C_79
REMARK   33  A    between atoms: C_72  and  C_73
REMARK   34  A    between atoms: C_73  and  C_74
REMARK   35  A    between atoms: C_74  and  N_75
REMARK                            x       y       z     vdW  Elec       q    Type
REMARK                         _______ _______ _______ _____ _____    ______ ____
ROOT
ATOM      1  C   UNL     1      -7.098   3.615 126.028  0.00  0.00    +0.000 C 
ATOM      2  O   UNL     1      -7.970   4.479 125.906  0.00  0.00    +0.000 OA
ATOM      3  N   UNL     1      -7.361   2.256 125.941  0.00  0.00    +0.000 N 
ATOM      4  H   UNL     1      -6.679   1.587 126.300  0.00  0.00    +0.000 HD
ENDROOT
BRANCH   1   5
ATOM      5  C   UNL     1      -5.739   4.173 126.463  0.00  0.00    +0.000 C 
BRANCH   5   8
ATOM      6  C   UNL     1      -5.037   5.114 128.740  0.00  0.00    +0.000 C 
ATOM      7  O   UNL     1      -4.509   6.106 128.233  0.00  0.00    +0.000 OA
ATOM      8  N   UNL     1      -5.718   4.185 127.970  0.00  0.00    +0.000 N 
ATOM      9  H   UNL     1      -6.272   3.449 128.408  0.00  0.00    +0.000 HD
BRANCH   6  10
ATOM     10  C   UNL     1      -4.934   4.890 130.271  0.00  0.00    +0.000 C 
BRANCH  10  13
ATOM     11  C   UNL     1      -7.295   4.921 131.283  0.00  0.00    +0.000 C 
ATOM     12  O   UNL     1      -7.287   6.111 131.631  0.00  0.00    +0.000 OA
ATOM     13  N   UNL     1      -6.219   4.268 130.751  0.00  0.00    +0.000 N 
ATOM     14  H   UNL     1      -6.219   3.246 130.792  0.00  0.00    +0.000 HD
BRANCH  11  15
ATOM     15  C   UNL     1      -8.566   4.271 131.696  0.00  0.00    +0.000 C 
BRANCH  15  17
ATOM     16  C   UNL     1     -10.154   5.922 132.796  0.00  0.00    +0.000 C 
ATOM     17  N   UNL     1      -9.655   5.232 131.556  0.00  0.00    +0.000 N 
ATOM     18  C   UNL     1     -10.263   5.064 130.307  0.00  0.00    +0.000 C 
ATOM     19  O   UNL     1      -9.576   4.721 129.338  0.00  0.00    +0.000 OA
BRANCH  18  20
ATOM     20  C   UNL     1     -11.784   5.099 130.195  0.00  0.00    +0.000 C 
BRANCH  20  21
ATOM     21  C   UNL     1     -12.270   6.443 129.738  0.00  0.00    +0.000 A 
ATOM     22  C   UNL     1     -12.378   7.447 130.690  0.00  0.00    +0.000 A 
ATOM     23  C   UNL     1     -12.769   8.719 130.305  0.00  0.00    +0.000 A 
ATOM     24  C   UNL     1     -13.045   8.979 128.963  0.00  0.00    +0.000 A 
ATOM     25  C   UNL     1     -12.951   7.983 127.999  0.00  0.00    +0.000 A 
ATOM     26  C   UNL     1     -12.567   6.704 128.385  0.00  0.00    +0.000 A 
BRANCH  24  27
ATOM     27  O   UNL     1     -13.415  10.222 128.544  0.00  0.00    +0.000 OA
ATOM     28  H   UNL     1     -13.033  10.372 127.666  0.00  0.00    +0.000 HD
ENDBRANCH  24  27
ENDBRANCH  20  21
ENDBRANCH  18  20
ENDBRANCH  15  17
BRANCH  15  29
ATOM     29  C   UNL     1      -8.439   3.438 133.096  0.00  0.00    +0.000 C 
BRANCH  29  30
ATOM     30  C   UNL     1      -7.570   3.930 134.237  0.00  0.00    +0.000 A 
ATOM     31  C   UNL     1      -8.005   4.961 135.033  0.00  0.00    +0.000 A 
ATOM     32  C   UNL     1      -7.196   5.845 135.715  0.00  0.00    +0.000 A 
ATOM     33  C   UNL     1      -5.941   5.405 135.992  0.00  0.00    +0.000 A 
ATOM     34  C   UNL     1      -5.527   4.172 135.485  0.00  0.00    +0.000 A 
ATOM     35  C   UNL     1      -6.312   3.464 134.548  0.00  0.00    +0.000 A 
BRANCH  33  36
ATOM     36  O   UNL     1      -5.134   6.151 136.788  0.00  0.00    +0.000 OA
ATOM     37  H   UNL     1      -4.896   5.608 137.562  0.00  0.00    +0.000 HD
ENDBRANCH  33  36
ENDBRANCH  29  30
ENDBRANCH  15  29
ENDBRANCH  11  15
ENDBRANCH  10  13
BRANCH  10  38
ATOM     38  C   UNL     1      -3.666   4.045 130.472  0.00  0.00    +0.000 C 
BRANCH  38  39
ATOM     39  C   UNL     1      -3.676   3.063 131.617  0.00  0.00    +0.000 A 
ATOM     40  C   UNL     1      -4.142   1.735 131.469  0.00  0.00    +0.000 A 
ATOM     41  C   UNL     1      -3.798   0.757 132.407  0.00  0.00    +0.000 A 
ATOM     42  C   UNL     1      -3.154   1.132 133.578  0.00  0.00    +0.000 A 
ATOM     43  C   UNL     1      -2.839   2.474 133.805  0.00  0.00    +0.000 A 
ATOM     44  C   UNL     1      -3.050   3.431 132.812  0.00  0.00    +0.000 A 
ENDBRANCH  38  39
ENDBRANCH  10  38
ENDBRANCH   6  10
ENDBRANCH   5   8
BRANCH   5  45
ATOM     45  C   UNL     1      -4.770   3.129 125.929  0.00  0.00    +0.000 C 
BRANCH  45  46
ATOM     46  C   UNL     1      -3.755   2.731 126.970  0.00  0.00    +0.000 C 
BRANCH  46  47
ATOM     47  C   UNL     1      -2.368   3.238 126.785  0.00  0.00    +0.000 C 
ATOM     48  N   UNL     1      -2.102   4.482 127.255  0.00  0.00    +0.000 N 
ATOM     49  O   UNL     1      -1.523   2.592 126.175  0.00  0.00    +0.000 OA
ATOM     50  H   UNL     1      -2.771   5.067 127.731  0.00  0.00    +0.000 HD
ATOM     51  H   UNL     1      -1.178   4.848 127.088  0.00  0.00    +0.000 HD
ENDBRANCH  46  47
ENDBRANCH  45  46
ENDBRANCH   5  45
ENDBRANCH   1   5
BRANCH   3  52
ATOM     52  C   UNL     1      -8.647   1.582 125.447  0.00  0.00    +0.000 C 
BRANCH  52  53
ATOM     53  C   UNL     1      -8.684   0.082 125.885  0.00  0.00    +0.000 C 
ATOM     54  O   UNL     1      -9.709  -0.557 125.628  0.00  0.00    +0.000 OA
ATOM     55  N   UNL     1      -7.587  -0.477 126.556  0.00  0.00    +0.000 N 
ATOM     56  H   UNL     1      -6.885   0.108 127.002  0.00  0.00    +0.000 HD
BRANCH  55  57
ATOM     57  C   UNL     1      -7.430  -1.957 126.833  0.00  0.00    +0.000 C 
BRANCH  57  58
ATOM     58  C   UNL     1      -7.150  -2.322 128.367  0.00  0.00    +0.000 C 
ATOM     59  O   UNL     1      -8.121  -2.429 129.123  0.00  0.00    +0.000 OA
ATOM     60  N   UNL     1      -5.867  -2.726 128.772  0.00  0.00    +0.000 N 
ATOM     61  C   UNL     1      -4.580  -2.107 128.500  0.00  0.00    +0.000 C 
ATOM     62  C   UNL     1      -3.630  -3.277 128.587  0.00  0.00    +0.000 C 
ATOM     63  C   UNL     1      -4.122  -4.004 129.822  0.00  0.00    +0.000 C 
ATOM     64  C   UNL     1      -5.639  -3.685 129.885  0.00  0.00    +0.000 C 
BRANCH  64  65
ATOM     65  C   UNL     1      -5.815  -3.086 131.289  0.00  0.00    +0.000 C 
ATOM     66  O   UNL     1      -5.001  -2.287 131.746  0.00  0.00    +0.000 OA
ATOM     67  N   UNL     1      -6.863  -3.611 132.038  0.00  0.00    +0.000 N 
ATOM     68  H   UNL     1      -7.290  -4.467 131.731  0.00  0.00    +0.000 HD
BRANCH  67  69
ATOM     69  C   UNL     1      -7.291  -3.012 133.319  0.00  0.00    +0.000 C 
BRANCH  69  70
ATOM     70  C   UNL     1      -7.775  -4.031 134.391  0.00  0.00    +0.000 C 
ATOM     71  N   UNL     1      -8.991  -3.836 134.983  0.00  0.00    +0.000 N 
ATOM     72  O   UNL     1      -7.102  -4.997 134.748  0.00  0.00    +0.000 OA
ATOM     73  H   UNL     1      -9.635  -3.091 134.789  0.00  0.00    +0.000 HD
ATOM     74  H   UNL     1      -9.264  -4.507 135.690  0.00  0.00    +0.000 HD
ENDBRANCH  69  70
BRANCH  69  75
ATOM     75  C   UNL     1      -8.433  -1.989 133.103  0.00  0.00    +0.000 C 
BRANCH  75  76
ATOM     76  C   UNL     1      -7.912  -0.573 132.879  0.00  0.00    +0.000 C 
BRANCH  76  77
ATOM     77  C   UNL     1      -8.367   0.088 131.610  0.00  0.00    +0.000 C 
BRANCH  77  78
ATOM     78  N   UNL     1      -7.182   0.305 130.774  0.00  0.00    +0.000 NA
ATOM     79  C   UNL     1      -7.344   1.041 129.739  0.00  0.00    +0.000 C 
ATOM     80  N   UNL     1      -8.484   1.643 129.364  0.00  0.00    +0.000 N 
ATOM     81  N   UNL     1      -6.320   1.258 128.896  0.00  0.00    +0.000 N 
ATOM     82  H   UNL     1      -9.307   1.523 129.935  0.00  0.00    +0.000 HD
ATOM     83  H   UNL     1      -8.555   2.247 128.567  0.00  0.00    +0.000 HD
ATOM     84  H   UNL     1      -5.430   0.851 129.148  0.00  0.00    +0.000 HD
ATOM     85  H   UNL     1      -6.366   1.887 128.114  0.00  0.00    +0.000 HD
ENDBRANCH  77  78
ENDBRANCH  76  77
ENDBRANCH  75  76
ENDBRANCH  69  75
ENDBRANCH  67  69
ENDBRANCH  64  65
ENDBRANCH  57  58
BRANCH  57  86
ATOM     86  C   UNL     1      -6.350  -2.511 125.909  0.00  0.00    +0.000 C 
BRANCH  86  87
ATOM     87  C   UNL     1      -6.072  -1.658 124.696  0.00  0.00    +0.000 C 
BRANCH  87  88
ATOM     88  C   UNL     1      -6.424  -2.343 123.409  0.00  0.00    +0.000 C 
BRANCH  88  89
ATOM     89  N   UNL     1      -7.500  -1.562 122.809  0.00  0.00    +0.000 NA
ATOM     90  C   UNL     1      -8.682  -2.031 122.960  0.00  0.00    +0.000 C 
ATOM     91  N   UNL     1      -9.015  -3.156 123.613  0.00  0.00    +0.000 N 
ATOM     92  N   UNL     1      -9.723  -1.404 122.391  0.00  0.00    +0.000 N 
ATOM     93  H   UNL     1      -8.292  -3.701 124.062  0.00  0.00    +0.000 HD
ATOM     94  H   UNL     1      -9.963  -3.453 123.747  0.00  0.00    +0.000 HD
ATOM     95  H   UNL     1      -9.533  -0.503 121.969  0.00  0.00    +0.000 HD
ATOM     96  H   UNL     1     -10.680  -1.637 122.593  0.00  0.00    +0.000 HD
ENDBRANCH  88  89
ENDBRANCH  87  88
ENDBRANCH  86  87
ENDBRANCH  57  86
ENDBRANCH  55  57
ENDBRANCH  52  53
BRANCH  52  97
ATOM     97  C   UNL     1      -8.711   1.512 123.929  0.00  0.00    +0.000 C 
BRANCH  97  98
ATOM     98  C   UNL     1      -7.669   2.290 123.182  0.00  0.00    +0.000 C 
ATOM     99  N   UNL     1      -8.027   3.509 122.698  0.00  0.00    +0.000 N 
ATOM    100  O   UNL     1      -6.545   1.848 122.971  0.00  0.00    +0.000 OA
ATOM    101  H   UNL     1      -8.682   4.021 123.294  0.00  0.00    +0.000 HD
ATOM    102  H   UNL     1      -7.206   4.113 122.732  0.00  0.00    +0.000 HD
ENDBRANCH  97  98
ENDBRANCH  52  97
ENDBRANCH   3  52
TORSDOF 34
ENDMDL
MODEL 2
REMARK VINA RESULT:      -8.6      2.005      2.777
REMARK  Name = CHEMBL269012
REMARK  35 active torsions:
REMARK  status: ('A' for Active; 'I' for Inactive)
REMARK    1  A    between atoms: C_1  and  N_2
REMARK    2  A    between atoms: N_2  and  C_13
REMARK    3  A    between atoms: C_3  and  C_5
REMARK    4  A    between atoms: C_5  and  C_6
REMARK    5  A    between atoms: C_9  and  O_10
REMARK    6  A    between atoms: C_13  and  C_14
REMARK    7  A    between atoms: C_13  and  C_22
REMARK    8  A    between atoms: C_14  and  C_15
REMARK    9  A    between atoms: C_18  and  O_19
REMARK   10  A    between atoms: N_24  and  C_25
REMARK   11  A    between atoms: C_25  and  C_26
REMARK   12  A    between atoms: C_25  and  C_33
REMARK   13  A    between atoms: C_26  and  C_27
REMARK   14  A    between atoms: N_35  and  C_36
REMARK   15  A    between atoms: C_36  and  C_37
REMARK   16  A    between atoms: C_36  and  C_42
REMARK   17  A    between atoms: C_37  and  C_38
REMARK   18  A    between atoms: C_38  and  C_39
REMARK   19  A    between atoms: N_44  and  C_45
REMARK   20  A    between atoms: C_45  and  C_46
REMARK   21  A    between atoms: C_45  and  C_50
REMARK   22  A    between atoms: C_46  and  C_47
REMARK   23  A    between atoms: N_52  and  C_53
REMARK   24  A    between atoms: C_53  and  C_54
REMARK   25  A    between atoms: C_53  and  C_61
REMARK   26  A    between atoms: C_54  and  C_55
REMARK   27  A    between atoms: C_55  and  C_56
REMARK   28  A    between atoms: C_56  and  N_57
REMARK   29  A    between atoms: C_67  and  C_68
REMARK   30  A    between atoms: N_70  and  C_71
REMARK   31  A    between atoms: C_71  and  C_72
REMARK   32  A    between atoms: C_71  and  C_79
REMARK   33  A    between atoms: C_72  and  C_73
REMARK   34  A    between atoms: C_73  and  C_74
REMARK   35  A    between atoms: C_74  and  N_75
REMARK                            x       y       z     vdW  Elec       q    Type
REMARK                         _______ _______ _______ _____ _____    ______ ____
ROOT
ATOM      1  C   UNL     1      -7.916   3.573 125.643  0.00  0.00    +0.000 C 
ATOM      2  O   UNL     1      -8.871   4.287 125.327  0.00  0.00    +0.000 OA
ATOM      3  N   UNL     1      -8.033   2.211 125.878  0.00  0.00    +0.000 N 
ATOM      4  H   UNL     1      -7.292   1.721 126.380  0.00  0.00    +0.000 HD
ENDROOT
BRANCH   1   5
ATOM      5  C   UNL     1      -6.631   4.359 125.926  0.00  0.00    +0.000 C 
BRANCH   5   8
ATOM      6  C   UNL     1      -5.418   5.059 128.071  0.00  0.00    +0.000 C 
ATOM      7  O   UNL     1      -4.663   5.821 127.466  0.00  0.00    +0.000 OA
ATOM      8  N   UNL     1      -6.440   4.386 127.421  0.00  0.00    +0.000 N 
ATOM      9  H   UNL     1      -7.146   3.873 127.949  0.00  0.00    +0.000 HD
BRANCH   6  10
ATOM     10  C   UNL     1      -5.222   4.836 129.593  0.00  0.00    +0.000 C 
BRANCH  10  13
ATOM     11  C   UNL     1      -7.342   4.902 131.042  0.00  0.00    +0.000 C 
ATOM     12  O   UNL     1      -7.069   5.947 131.650  0.00  0.00    +0.000 OA
ATOM     13  N   UNL     1      -6.500   4.279 130.164  0.00  0.00    +0.000 N 
ATOM     14  H   UNL     1      -6.672   3.292 129.964  0.00  0.00    +0.000 HD
BRANCH  11  15
ATOM     15  C   UNL     1      -8.623   4.335 131.539  0.00  0.00    +0.000 C 
BRANCH  15  17
ATOM     16  C   UNL     1     -10.162   6.023 132.651  0.00  0.00    +0.000 C 
ATOM     17  N   UNL     1      -9.669   5.342 131.404  0.00  0.00    +0.000 N 
ATOM     18  C   UNL     1     -10.261   5.228 130.141  0.00  0.00    +0.000 C 
ATOM     19  O   UNL     1      -9.571   4.879 129.176  0.00  0.00    +0.000 OA
BRANCH  18  20
ATOM     20  C   UNL     1     -11.778   5.326 130.004  0.00  0.00    +0.000 C 
BRANCH  20  21
ATOM     21  C   UNL     1     -12.208   6.724 129.668  0.00  0.00    +0.000 A 
ATOM     22  C   UNL     1     -12.682   7.519 130.701  0.00  0.00    +0.000 A 
ATOM     23  C   UNL     1     -13.038   8.834 130.448  0.00  0.00    +0.000 A 
ATOM     24  C   UNL     1     -12.912   9.346 129.157  0.00  0.00    +0.000 A 
ATOM     25  C   UNL     1     -12.448   8.561 128.109  0.00  0.00    +0.000 A 
ATOM     26  C   UNL     1     -12.098   7.239 128.360  0.00  0.00    +0.000 A 
BRANCH  24  27
ATOM     27  O   UNL     1     -13.235  10.639 128.874  0.00  0.00    +0.000 OA
ATOM     28  H   UNL     1     -13.887  10.639 128.156  0.00  0.00    +0.000 HD
ENDBRANCH  24  27
ENDBRANCH  20  21
ENDBRANCH  18  20
ENDBRANCH  15  17
BRANCH  15  29
ATOM     29  C   UNL     1      -8.471   3.559 132.969  0.00  0.00    +0.000 C 
BRANCH  29  30
ATOM     30  C   UNL     1      -7.481   4.018 134.022  0.00  0.00    +0.000 A 
ATOM     31  C   UNL     1      -6.273   3.378 134.151  0.00  0.00    +0.000 A 
ATOM     32  C   UNL     1      -5.530   3.292 135.309  0.00  0.00    +0.000 A 
ATOM     33  C   UNL     1      -5.759   4.263 136.231  0.00  0.00    +0.000 A 
ATOM     34  C   UNL     1      -6.780   5.186 136.005  0.00  0.00    +0.000 A 
ATOM     35  C   UNL     1      -7.691   5.026 134.937  0.00  0.00    +0.000 A 
BRANCH  33  36
ATOM     36  O   UNL     1      -4.966   4.338 137.330  0.00  0.00    +0.000 OA
ATOM     37  H   UNL     1      -5.024   3.484 137.797  0.00  0.00    +0.000 HD
ENDBRANCH  33  36
ENDBRANCH  29  30
ENDBRANCH  15  29
ENDBRANCH  11  15
ENDBRANCH  10  13
BRANCH  10  38
ATOM     38  C   UNL     1      -3.986   3.931 129.714  0.00  0.00    +0.000 C 
BRANCH  38  39
ATOM     39  C   UNL     1      -3.773   3.240 131.038  0.00  0.00    +0.000 A 
ATOM     40  C   UNL     1      -4.227   1.921 131.283  0.00  0.00    +0.000 A 
ATOM     41  C   UNL     1      -3.704   1.180 132.346  0.00  0.00    +0.000 A 
ATOM     42  C   UNL     1      -2.874   1.802 133.268  0.00  0.00    +0.000 A 
ATOM     43  C   UNL     1      -2.555   3.155 133.121  0.00  0.00    +0.000 A 
ATOM     44  C   UNL     1      -2.957   3.861 131.988  0.00  0.00    +0.000 A 
ENDBRANCH  38  39
ENDBRANCH  10  38
ENDBRANCH   6  10
ENDBRANCH   5   8
BRANCH   5  45
ATOM     45  C   UNL     1      -5.565   3.492 125.273  0.00  0.00    +0.000 C 
BRANCH  45  46
ATOM     46  C   UNL     1      -5.614   2.075 125.784  0.00  0.00    +0.000 C 
BRANCH  46  47
ATOM     47  C   UNL     1      -4.665   1.721 126.875  0.00  0.00    +0.000 C 
ATOM     48  N   UNL     1      -3.372   2.093 126.707  0.00  0.00    +0.000 N 
ATOM     49  O   UNL     1      -5.019   1.062 127.847  0.00  0.00    +0.000 OA
ATOM     50  H   UNL     1      -3.024   2.604 125.909  0.00  0.00    +0.000 HD
ATOM     51  H   UNL     1      -2.717   1.811 127.419  0.00  0.00    +0.000 HD
ENDBRANCH  46  47
ENDBRANCH  45  46
ENDBRANCH   5  45
ENDBRANCH   1   5
BRANCH   3  52
ATOM     52  C   UNL     1      -9.231   1.308 125.564  0.00  0.00    +0.000 C 
BRANCH  52  53
ATOM     53  C   UNL     1      -8.929  -0.169 125.978  0.00  0.00    +0.000 C 
ATOM     54  O   UNL     1      -9.781  -1.019 125.701  0.00  0.00    +0.000 OA
ATOM     55  N   UNL     1      -7.738  -0.476 126.651  0.00  0.00    +0.000 N 
ATOM     56  H   UNL     1      -7.190   0.245 127.112  0.00  0.00    +0.000 HD
BRANCH  55  57
ATOM     57  C   UNL     1      -7.250  -1.887 126.906  0.00  0.00    +0.000 C 
BRANCH  57  58
ATOM     58  C   UNL     1      -7.246  -2.321 128.447  0.00  0.00    +0.000 C 
ATOM     59  O   UNL     1      -8.335  -2.474 129.009  0.00  0.00    +0.000 OA
ATOM     60  N   UNL     1      -6.050  -2.732 129.059  0.00  0.00    +0.000 N 
ATOM     61  C   UNL     1      -4.747  -2.089 129.054  0.00  0.00    +0.000 C 
ATOM     62  C   UNL     1      -3.806  -3.252 129.258  0.00  0.00    +0.000 C 
ATOM     63  C   UNL     1      -4.500  -4.041 130.350  0.00  0.00    +0.000 C 
ATOM     64  C   UNL     1      -6.009  -3.741 130.151  0.00  0.00    +0.000 C 
BRANCH  64  65
ATOM     65  C   UNL     1      -6.447  -3.211 131.525  0.00  0.00    +0.000 C 
ATOM     66  O   UNL     1      -7.616  -3.297 131.896  0.00  0.00    +0.000 OA
ATOM     67  N   UNL     1      -5.475  -2.519 132.239  0.00  0.00    +0.000 N 
ATOM     68  H   UNL     1      -4.648  -2.218 131.754  0.00  0.00    +0.000 HD
BRANCH  67  69
ATOM     69  C   UNL     1      -5.669  -2.121 133.649  0.00  0.00    +0.000 C 
BRANCH  69  70
ATOM     70  C   UNL     1      -6.367  -0.745 133.853  0.00  0.00    +0.000 C 
ATOM     71  N   UNL     1      -7.088  -0.213 132.821  0.00  0.00    +0.000 N 
ATOM     72  O   UNL     1      -6.283  -0.101 134.898  0.00  0.00    +0.000 OA
ATOM     73  H   UNL     1      -7.232  -0.629 131.920  0.00  0.00    +0.000 HD
ATOM     74  H   UNL     1      -7.511   0.693 132.983  0.00  0.00    +0.000 HD
ENDBRANCH  69  70
BRANCH  69  75
ATOM     75  C   UNL     1      -4.319  -2.072 134.406  0.00  0.00    +0.000 C 
BRANCH  75  76
ATOM     76  C   UNL     1      -3.187  -2.727 133.620  0.00  0.00    +0.000 C 
BRANCH  76  77
ATOM     77  C   UNL     1      -2.011  -1.842 133.325  0.00  0.00    +0.000 C 
BRANCH  77  78
ATOM     78  N   UNL     1      -1.474  -1.377 134.607  0.00  0.00    +0.000 NA
ATOM     79  C   UNL     1      -0.247  -1.655 134.844  0.00  0.00    +0.000 C 
ATOM     80  N   UNL     1       0.591  -2.309 134.024  0.00  0.00    +0.000 N 
ATOM     81  N   UNL     1       0.314  -1.302 136.013  0.00  0.00    +0.000 N 
ATOM     82  H   UNL     1       0.248  -2.622 133.128  0.00  0.00    +0.000 HD
ATOM     83  H   UNL     1       1.559  -2.469 134.232  0.00  0.00    +0.000 HD
ATOM     84  H   UNL     1      -0.266  -0.780 136.656  0.00  0.00    +0.000 HD
ATOM     85  H   UNL     1       1.289  -1.423 136.223  0.00  0.00    +0.000 HD
ENDBRANCH  77  78
ENDBRANCH  76  77
ENDBRANCH  75  76
ENDBRANCH  69  75
ENDBRANCH  67  69
ENDBRANCH  64  65
ENDBRANCH  57  58
BRANCH  57  86
ATOM     86  C   UNL     1      -5.876  -2.048 126.264  0.00  0.00    +0.000 C 
BRANCH  86  87
ATOM     87  C   UNL     1      -5.807  -1.605 124.823  0.00  0.00    +0.000 C 
BRANCH  87  88
ATOM     88  C   UNL     1      -5.964  -2.740 123.856  0.00  0.00    +0.000 C 
BRANCH  88  89
ATOM     89  N   UNL     1      -7.277  -3.321 124.115  0.00  0.00    +0.000 NA
ATOM     90  C   UNL     1      -8.242  -2.857 123.412  0.00  0.00    +0.000 C 
ATOM     91  N   UNL     1      -8.155  -1.901 122.472  0.00  0.00    +0.000 N 
ATOM     92  N   UNL     1      -9.491  -3.296 123.626  0.00  0.00    +0.000 N 
ATOM     93  H   UNL     1      -7.253  -1.502 122.254  0.00  0.00    +0.000 HD
ATOM     94  H   UNL     1      -8.934  -1.609 121.913  0.00  0.00    +0.000 HD
ATOM     95  H   UNL     1      -9.593  -4.083 124.257  0.00  0.00    +0.000 HD
ATOM     96  H   UNL     1     -10.260  -3.082 123.015  0.00  0.00    +0.000 HD
ENDBRANCH  88  89
ENDBRANCH  87  88
ENDBRANCH  86  87
ENDBRANCH  57  86
ENDBRANCH  55  57
ENDBRANCH  52  53
BRANCH  52  97
ATOM     97  C   UNL     1      -9.501   1.212 124.070  0.00  0.00    +0.000 C 
BRANCH  97  98
ATOM     98  C   UNL     1      -8.388   1.645 123.164  0.00  0.00    +0.000 C 
ATOM     99  N   UNL     1      -8.589   2.763 122.417  0.00  0.00    +0.000 N 
ATOM    100  O   UNL     1      -7.344   1.011 123.056  0.00  0.00    +0.000 OA
ATOM    101  H   UNL     1      -9.146   3.484 122.883  0.00  0.00    +0.000 HD
ATOM    102  H   UNL     1      -7.692   3.235 122.311  0.00  0.00    +0.000 HD
ENDBRANCH  97  98
ENDBRANCH  52  97
ENDBRANCH   3  52
TORSDOF 34
ENDMDL
MODEL 3
REMARK VINA RESULT:      -8.4      2.344      7.440
REMARK  Name = CHEMBL269012
REMARK  35 active torsions:
REMARK  status: ('A' for Active; 'I' for Inactive)
REMARK    1  A    between atoms: C_1  and  N_2
REMARK    2  A    between atoms: N_2  and  C_13
REMARK    3  A    between atoms: C_3  and  C_5
REMARK    4  A    between atoms: C_5  and  C_6
REMARK    5  A    between atoms: C_9  and  O_10
REMARK    6  A    between atoms: C_13  and  C_14
REMARK    7  A    between atoms: C_13  and  C_22
REMARK    8  A    between atoms: C_14  and  C_15
REMARK    9  A    between atoms: C_18  and  O_19
REMARK   10  A    between atoms: N_24  and  C_25
REMARK   11  A    between atoms: C_25  and  C_26
REMARK   12  A    between atoms: C_25  and  C_33
REMARK   13  A    between atoms: C_26  and  C_27
REMARK   14  A    between atoms: N_35  and  C_36
REMARK   15  A    between atoms: C_36  and  C_37
REMARK   16  A    between atoms: C_36  and  C_42
REMARK   17  A    between atoms: C_37  and  C_38
REMARK   18  A    between atoms: C_38  and  C_39
REMARK   19  A    between atoms: N_44  and  C_45
REMARK   20  A    between atoms: C_45  and  C_46
REMARK   21  A    between atoms: C_45  and  C_50
REMARK   22  A    between atoms: C_46  and  C_47
REMARK   23  A    between atoms: N_52  and  C_53
REMARK   24  A    between atoms: C_53  and  C_54
REMARK   25  A    between atoms: C_53  and  C_61
REMARK   26  A    between atoms: C_54  and  C_55
REMARK   27  A    between atoms: C_55  and  C_56
REMARK   28  A    between atoms: C_56  and  N_57
REMARK   29  A    between atoms: C_67  and  C_68
REMARK   30  A    between atoms: N_70  and  C_71
REMARK   31  A    between atoms: C_71  and  C_72
REMARK   32  A    between atoms: C_71  and  C_79
REMARK   33  A    between atoms: C_72  and  C_73
REMARK   34  A    between atoms: C_73  and  C_74
REMARK   35  A    between atoms: C_74  and  N_75
REMARK                            x       y       z     vdW  Elec       q    Type
REMARK                         _______ _______ _______ _____ _____    ______ ____
ROOT
ATOM      1  C   UNL     1      -5.823  -1.864 127.469  0.00  0.00    +0.000 C 
ATOM      2  O   UNL     1      -4.989  -1.132 128.008  0.00  0.00    +0.000 OA
ATOM      3  N   UNL     1      -6.351  -1.612 126.211  0.00  0.00    +0.000 N 
ATOM      4  H   UNL     1      -7.208  -2.084 125.922  0.00  0.00    +0.000 HD
ENDROOT
BRANCH   1   5
ATOM      5  C   UNL     1      -6.351  -2.972 128.387  0.00  0.00    +0.000 C 
BRANCH   5   8
ATOM      6  C   UNL     1      -5.508  -3.865 130.635  0.00  0.00    +0.000 C 
ATOM      7  O   UNL     1      -5.863  -5.017 130.377  0.00  0.00    +0.000 OA
ATOM      8  N   UNL     1      -5.629  -2.846 129.705  0.00  0.00    +0.000 N 
ATOM      9  H   UNL     1      -5.203  -1.934 129.871  0.00  0.00    +0.000 HD
BRANCH   6  10
ATOM     10  C   UNL     1      -4.917  -3.541 132.032  0.00  0.00    +0.000 C 
BRANCH  10  13
ATOM     11  C   UNL     1      -6.090  -1.307 132.515  0.00  0.00    +0.000 C 
ATOM     12  O   UNL     1      -7.251  -1.733 132.435  0.00  0.00    +0.000 OA
ATOM     13  N   UNL     1      -4.976  -2.050 132.242  0.00  0.00    +0.000 N 
ATOM     14  H   UNL     1      -4.112  -1.547 132.030  0.00  0.00    +0.000 HD
BRANCH  11  15
ATOM     15  C   UNL     1      -6.093   0.158 132.768  0.00  0.00    +0.000 C 
BRANCH  15  17
ATOM     16  C   UNL     1      -4.960  -0.465 134.955  0.00  0.00    +0.000 C 
ATOM     17  N   UNL     1      -5.090   0.465 133.780  0.00  0.00    +0.000 N 
ATOM     18  C   UNL     1      -4.664   1.790 133.623  0.00  0.00    +0.000 C 
ATOM     19  O   UNL     1      -4.611   2.280 132.490  0.00  0.00    +0.000 OA
BRANCH  18  20
ATOM     20  C   UNL     1      -4.476   2.675 134.852  0.00  0.00    +0.000 C 
BRANCH  20  21
ATOM     21  C   UNL     1      -5.602   3.656 134.997  0.00  0.00    +0.000 A 
ATOM     22  C   UNL     1      -5.303   4.910 135.511  0.00  0.00    +0.000 A 
ATOM     23  C   UNL     1      -6.300   5.866 135.611  0.00  0.00    +0.000 A 
ATOM     24  C   UNL     1      -7.594   5.561 135.191  0.00  0.00    +0.000 A 
ATOM     25  C   UNL     1      -7.913   4.308 134.683  0.00  0.00    +0.000 A 
ATOM     26  C   UNL     1      -6.916   3.343 134.589  0.00  0.00    +0.000 A 
BRANCH  24  27
ATOM     27  O   UNL     1      -8.596   6.482 135.257  0.00  0.00    +0.000 OA
ATOM     28  H   UNL     1      -9.033   6.518 134.392  0.00  0.00    +0.000 HD
ENDBRANCH  24  27
ENDBRANCH  20  21
ENDBRANCH  18  20
ENDBRANCH  15  17
BRANCH  15  29
ATOM     29  C   UNL     1      -7.595   0.776 132.949  0.00  0.00    +0.000 C 
BRANCH  29  30
ATOM     30  C   UNL     1      -8.281   1.538 131.831  0.00  0.00    +0.000 A 
ATOM     31  C   UNL     1      -7.622   1.753 130.646  0.00  0.00    +0.000 A 
ATOM     32  C   UNL     1      -7.843   2.808 129.786  0.00  0.00    +0.000 A 
ATOM     33  C   UNL     1      -9.066   3.393 129.870  0.00  0.00    +0.000 A 
ATOM     34  C   UNL     1      -9.949   2.979 130.869  0.00  0.00    +0.000 A 
ATOM     35  C   UNL     1      -9.536   2.103 131.896  0.00  0.00    +0.000 A 
BRANCH  33  36
ATOM     36  O   UNL     1      -9.417   4.336 128.959  0.00  0.00    +0.000 OA
ATOM     37  H   UNL     1      -9.114   5.200 129.295  0.00  0.00    +0.000 HD
ENDBRANCH  33  36
ENDBRANCH  29  30
ENDBRANCH  15  29
ENDBRANCH  11  15
ENDBRANCH  10  13
BRANCH  10  38
ATOM     38  C   UNL     1      -5.730  -4.388 133.022  0.00  0.00    +0.000 C 
BRANCH  38  39
ATOM     39  C   UNL     1      -5.338  -4.301 134.476  0.00  0.00    +0.000 A 
ATOM     40  C   UNL     1      -3.989  -4.369 134.899  0.00  0.00    +0.000 A 
ATOM     41  C   UNL     1      -3.624  -3.916 136.171  0.00  0.00    +0.000 A 
ATOM     42  C   UNL     1      -4.612  -3.572 137.081  0.00  0.00    +0.000 A 
ATOM     43  C   UNL     1      -5.959  -3.663 136.721  0.00  0.00    +0.000 A 
ATOM     44  C   UNL     1      -6.324  -3.976 135.412  0.00  0.00    +0.000 A 
ENDBRANCH  38  39
ENDBRANCH  10  38
ENDBRANCH   6  10
ENDBRANCH   5   8
BRANCH   5  45
ATOM     45  C   UNL     1      -7.815  -2.592 128.548  0.00  0.00    +0.000 C 
BRANCH  45  46
ATOM     46  C   UNL     1      -8.724  -3.600 127.893  0.00  0.00    +0.000 C 
BRANCH  46  47
ATOM     47  C   UNL     1      -8.944  -3.456 126.428  0.00  0.00    +0.000 C 
ATOM     48  N   UNL     1      -9.918  -2.599 126.036  0.00  0.00    +0.000 N 
ATOM     49  O   UNL     1      -8.322  -4.132 125.615  0.00  0.00    +0.000 OA
ATOM     50  H   UNL     1     -10.481  -2.049 126.666  0.00  0.00    +0.000 HD
ATOM     51  H   UNL     1     -10.104  -2.536 125.047  0.00  0.00    +0.000 HD
ENDBRANCH  46  47
ENDBRANCH  45  46
ENDBRANCH   5  45
ENDBRANCH   1   5
BRANCH   3  52
ATOM     52  C   UNL     1      -5.860  -0.592 125.178  0.00  0.00    +0.000 C 
BRANCH  52  53
ATOM     53  C   UNL     1      -6.519   0.804 125.428  0.00  0.00    +0.000 C 
ATOM     54  O   UNL     1      -7.183   0.938 126.460  0.00  0.00    +0.000 OA
ATOM     55  N   UNL     1      -6.355   1.831 124.489  0.00  0.00    +0.000 N 
ATOM     56  H   UNL     1      -6.055   1.635 123.537  0.00  0.00    +0.000 HD
BRANCH  55  57
ATOM     57  C   UNL     1      -6.764   3.269 124.728  0.00  0.00    +0.000 C 
BRANCH  57  58
ATOM     58  C   UNL     1      -6.337   3.853 126.157  0.00  0.00    +0.000 C 
ATOM     59  O   UNL     1      -7.224   4.307 126.887  0.00  0.00    +0.000 OA
ATOM     60  N   UNL     1      -5.035   3.644 126.642  0.00  0.00    +0.000 N 
ATOM     61  C   UNL     1      -3.760   3.856 125.976  0.00  0.00    +0.000 C 
ATOM     62  C   UNL     1      -2.855   2.877 126.683  0.00  0.00    +0.000 C 
ATOM     63  C   UNL     1      -3.241   3.069 128.135  0.00  0.00    +0.000 C 
ATOM     64  C   UNL     1      -4.728   3.508 128.090  0.00  0.00    +0.000 C 
BRANCH  64  65
ATOM     65  C   UNL     1      -4.728   4.832 128.869  0.00  0.00    +0.000 C 
ATOM     66  O   UNL     1      -4.594   5.909 128.292  0.00  0.00    +0.000 OA
ATOM     67  N   UNL     1      -4.748   4.714 130.255  0.00  0.00    +0.000 N 
ATOM     68  H   UNL     1      -4.544   3.818 130.662  0.00  0.00    +0.000 HD
BRANCH  67  69
ATOM     69  C   UNL     1      -4.952   5.879 131.141  0.00  0.00    +0.000 C 
BRANCH  69  70
ATOM     70  C   UNL     1      -3.861   6.070 132.236  0.00  0.00    +0.000 C 
ATOM     71  N   UNL     1      -2.985   5.050 132.477  0.00  0.00    +0.000 N 
ATOM     72  O   UNL     1      -3.765   7.093 132.912  0.00  0.00    +0.000 OA
ATOM     73  H   UNL     1      -2.956   4.166 132.003  0.00  0.00    +0.000 HD
ATOM     74  H   UNL     1      -2.303   5.202 133.210  0.00  0.00    +0.000 HD
ENDBRANCH  69  70
BRANCH  69  75
ATOM     75  C   UNL     1      -6.321   5.801 131.860  0.00  0.00    +0.000 C 
BRANCH  75  76
ATOM     76  C   UNL     1      -7.401   6.605 131.142  0.00  0.00    +0.000 C 
BRANCH  76  77
ATOM     77  C   UNL     1      -8.789   6.455 131.694  0.00  0.00    +0.000 C 
BRANCH  77  78
ATOM     78  N   UNL     1      -9.726   6.928 130.671  0.00  0.00    +0.000 NA
ATOM     79  C   UNL     1     -10.968   6.714 130.895  0.00  0.00    +0.000 C 
ATOM     80  N   UNL     1     -11.487   6.119 131.981  0.00  0.00    +0.000 N 
ATOM     81  N   UNL     1     -11.892   7.078 129.990  0.00  0.00    +0.000 N 
ATOM     82  H   UNL     1     -10.862   5.803 132.707  0.00  0.00    +0.000 HD
ATOM     83  H   UNL     1     -12.472   6.010 132.136  0.00  0.00    +0.000 HD
ATOM     84  H   UNL     1     -11.556   7.557 129.165  0.00  0.00    +0.000 HD
ATOM     85  H   UNL     1     -12.882   7.007 130.145  0.00  0.00    +0.000 HD
ENDBRANCH  77  78
ENDBRANCH  76  77
ENDBRANCH  75  76
ENDBRANCH  69  75
ENDBRANCH  67  69
ENDBRANCH  64  65
ENDBRANCH  57  58
BRANCH  57  86
ATOM     86  C   UNL     1      -8.265   3.393 124.488  0.00  0.00    +0.000 C 
BRANCH  86  87
ATOM     87  C   UNL     1      -8.739   2.790 123.188  0.00  0.00    +0.000 C 
BRANCH  87  88
ATOM     88  C   UNL     1      -8.076   3.399 121.989  0.00  0.00    +0.000 C 
BRANCH  88  89
ATOM     89  N   UNL     1      -9.124   3.592 120.993  0.00  0.00    +0.000 NA
ATOM     90  C   UNL     1      -8.735   4.013 119.848  0.00  0.00    +0.000 C 
ATOM     91  N   UNL     1      -7.471   4.285 119.486  0.00  0.00    +0.000 N 
ATOM     92  N   UNL     1      -9.642   4.270 118.892  0.00  0.00    +0.000 N 
ATOM     93  H   UNL     1      -6.723   4.133 120.147  0.00  0.00    +0.000 HD
ATOM     94  H   UNL     1      -7.213   4.564 118.557  0.00  0.00    +0.000 HD
ATOM     95  H   UNL     1     -10.596   3.992 119.087  0.00  0.00    +0.000 HD
ATOM     96  H   UNL     1      -9.393   4.460 117.937  0.00  0.00    +0.000 HD
ENDBRANCH  88  89
ENDBRANCH  87  88
ENDBRANCH  86  87
ENDBRANCH  57  86
ENDBRANCH  55  57
ENDBRANCH  52  53
BRANCH  52  97
ATOM     97  C   UNL     1      -6.303  -0.947 123.766  0.00  0.00    +0.000 C 
BRANCH  97  98
ATOM     98  C   UNL     1      -7.733  -1.366 123.603  0.00  0.00    +0.000 C 
ATOM     99  N   UNL     1      -7.970  -2.544 122.966  0.00  0.00    +0.000 N 
ATOM    100  O   UNL     1      -8.669  -0.673 123.986  0.00  0.00    +0.000 OA
ATOM    101  H   UNL     1      -7.269  -3.266 123.146  0.00  0.00    +0.000 HD
ATOM    102  H   UNL     1      -8.804  -2.961 123.379  0.00  0.00    +0.000 HD
ENDBRANCH  97  98
ENDBRANCH  52  97
ENDBRANCH   3  52
TORSDOF 34
ENDMDL
MODEL 4
REMARK VINA RESULT:      -8.4      2.758      7.994
REMARK  Name = CHEMBL269012
REMARK  35 active torsions:
REMARK  status: ('A' for Active; 'I' for Inactive)
REMARK    1  A    between atoms: C_1  and  N_2
REMARK    2  A    between atoms: N_2  and  C_13
REMARK    3  A    between atoms: C_3  and  C_5
REMARK    4  A    between atoms: C_5  and  C_6
REMARK    5  A    between atoms: C_9  and  O_10
REMARK    6  A    between atoms: C_13  and  C_14
REMARK    7  A    between atoms: C_13  and  C_22
REMARK    8  A    between atoms: C_14  and  C_15
REMARK    9  A    between atoms: C_18  and  O_19
REMARK   10  A    between atoms: N_24  and  C_25
REMARK   11  A    between atoms: C_25  and  C_26
REMARK   12  A    between atoms: C_25  and  C_33
REMARK   13  A    between atoms: C_26  and  C_27
REMARK   14  A    between atoms: N_35  and  C_36
REMARK   15  A    between atoms: C_36  and  C_37
REMARK   16  A    between atoms: C_36  and  C_42
REMARK   17  A    between atoms: C_37  and  C_38
REMARK   18  A    between atoms: C_38  and  C_39
REMARK   19  A    between atoms: N_44  and  C_45
REMARK   20  A    between atoms: C_45  and  C_46
REMARK   21  A    between atoms: C_45  and  C_50
REMARK   22  A    between atoms: C_46  and  C_47
REMARK   23  A    between atoms: N_52  and  C_53
REMARK   24  A    between atoms: C_53  and  C_54
REMARK   25  A    between atoms: C_53  and  C_61
REMARK   26  A    between atoms: C_54  and  C_55
REMARK   27  A    between atoms: C_55  and  C_56
REMARK   28  A    between atoms: C_56  and  N_57
REMARK   29  A    between atoms: C_67  and  C_68
REMARK   30  A    between atoms: N_70  and  C_71
REMARK   31  A    between atoms: C_71  and  C_72
REMARK   32  A    between atoms: C_71  and  C_79
REMARK   33  A    between atoms: C_72  and  C_73
REMARK   34  A    between atoms: C_73  and  C_74
REMARK   35  A    between atoms: C_74  and  N_75
REMARK                            x       y       z     vdW  Elec       q    Type
REMARK                         _______ _______ _______ _____ _____    ______ ____
ROOT
ATOM      1  C   UNL     1      -7.471   0.287 128.369  0.00  0.00    +0.000 C 
ATOM      2  O   UNL     1      -6.518   1.055 128.211  0.00  0.00    +0.000 OA
ATOM      3  N   UNL     1      -8.216  -0.222 127.316  0.00  0.00    +0.000 N 
ATOM      4  H   UNL     1      -9.132  -0.632 127.500  0.00  0.00    +0.000 HD
ENDROOT
BRANCH   1   5
ATOM      5  C   UNL     1      -7.864   0.093 129.838  0.00  0.00    +0.000 C 
BRANCH   5   8
ATOM      6  C   UNL     1      -6.924  -2.108 130.752  0.00  0.00    +0.000 C 
ATOM      7  O   UNL     1      -7.886  -2.758 130.339  0.00  0.00    +0.000 OA
ATOM      8  N   UNL     1      -6.797  -0.755 130.482  0.00  0.00    +0.000 N 
ATOM      9  H   UNL     1      -5.933  -0.258 130.701  0.00  0.00    +0.000 HD
BRANCH   6  10
ATOM     10  C   UNL     1      -5.831  -2.810 131.599  0.00  0.00    +0.000 C 
BRANCH  10  13
ATOM     11  C   UNL     1      -5.068  -1.091 133.349  0.00  0.00    +0.000 C 
ATOM     12  O   UNL     1      -6.099  -1.119 134.038  0.00  0.00    +0.000 OA
ATOM     13  N   UNL     1      -4.915  -1.758 132.166  0.00  0.00    +0.000 N 
ATOM     14  H   UNL     1      -4.182  -1.433 131.532  0.00  0.00    +0.000 HD
BRANCH  11  15
ATOM     15  C   UNL     1      -4.109  -0.096 133.895  0.00  0.00    +0.000 C 
BRANCH  15  17
ATOM     16  C   UNL     1      -4.705   1.766 132.272  0.00  0.00    +0.000 C 
ATOM     17  N   UNL     1      -4.645   1.243 133.682  0.00  0.00    +0.000 N 
ATOM     18  C   UNL     1      -4.684   1.926 134.903  0.00  0.00    +0.000 C 
ATOM     19  O   UNL     1      -4.910   1.298 135.943  0.00  0.00    +0.000 OA
BRANCH  18  20
ATOM     20  C   UNL     1      -4.243   3.386 134.968  0.00  0.00    +0.000 C 
BRANCH  20  21
ATOM     21  C   UNL     1      -5.360   4.276 135.427  0.00  0.00    +0.000 A 
ATOM     22  C   UNL     1      -6.500   4.340 134.639  0.00  0.00    +0.000 A 
ATOM     23  C   UNL     1      -7.579   5.105 135.051  0.00  0.00    +0.000 A 
ATOM     24  C   UNL     1      -7.510   5.799 136.258  0.00  0.00    +0.000 A 
ATOM     25  C   UNL     1      -6.373   5.754 137.056  0.00  0.00    +0.000 A 
ATOM     26  C   UNL     1      -5.286   4.994 136.639  0.00  0.00    +0.000 A 
BRANCH  24  27
ATOM     27  O   UNL     1      -8.558   6.547 136.706  0.00  0.00    +0.000 OA
ATOM     28  H   UNL     1      -9.177   6.674 135.970  0.00  0.00    +0.000 HD
ENDBRANCH  24  27
ENDBRANCH  20  21
ENDBRANCH  18  20
ENDBRANCH  15  17
BRANCH  15  29
ATOM     29  C   UNL     1      -2.560  -0.391 133.466  0.00  0.00    +0.000 C 
BRANCH  29  30
ATOM     30  C   UNL     1      -1.720  -1.430 134.185  0.00  0.00    +0.000 A 
ATOM     31  C   UNL     1      -0.364  -1.249 134.304  0.00  0.00    +0.000 A 
ATOM     32  C   UNL     1       0.572  -2.254 134.423  0.00  0.00    +0.000 A 
ATOM     33  C   UNL     1       0.112  -3.435 134.913  0.00  0.00    +0.000 A 
ATOM     34  C   UNL     1      -1.256  -3.586 135.145  0.00  0.00    +0.000 A 
ATOM     35  C   UNL     1      -2.185  -2.612 134.716  0.00  0.00    +0.000 A 
BRANCH  33  36
ATOM     36  O   UNL     1       0.994  -4.424 135.202  0.00  0.00    +0.000 OA
ATOM     37  H   UNL     1       0.826  -5.161 134.586  0.00  0.00    +0.000 HD
ENDBRANCH  33  36
ENDBRANCH  29  30
ENDBRANCH  15  29
ENDBRANCH  11  15
ENDBRANCH  10  13
BRANCH  10  38
ATOM     38  C   UNL     1      -6.598  -3.654 132.629  0.00  0.00    +0.000 C 
BRANCH  38  39
ATOM     39  C   UNL     1      -5.835  -4.768 133.301  0.00  0.00    +0.000 A 
ATOM     40  C   UNL     1      -4.570  -5.202 132.838  0.00  0.00    +0.000 A 
ATOM     41  C   UNL     1      -3.730  -5.948 133.671  0.00  0.00    +0.000 A 
ATOM     42  C   UNL     1      -4.214  -6.414 134.885  0.00  0.00    +0.000 A 
ATOM     43  C   UNL     1      -5.525  -6.126 135.274  0.00  0.00    +0.000 A 
ATOM     44  C   UNL     1      -6.318  -5.266 134.515  0.00  0.00    +0.000 A 
ENDBRANCH  38  39
ENDBRANCH  10  38
ENDBRANCH   6  10
ENDBRANCH   5   8
BRANCH   5  45
ATOM     45  C   UNL     1      -7.810   1.514 130.381  0.00  0.00    +0.000 C 
BRANCH  45  46
ATOM     46  C   UNL     1      -9.070   1.870 131.127  0.00  0.00    +0.000 C 
BRANCH  46  47
ATOM     47  C   UNL     1      -8.948   2.076 132.596  0.00  0.00    +0.000 C 
ATOM     48  N   UNL     1      -9.799   2.966 133.163  0.00  0.00    +0.000 N 
ATOM     49  O   UNL     1      -8.073   1.521 133.253  0.00  0.00    +0.000 OA
ATOM     50  H   UNL     1     -10.510   3.474 132.660  0.00  0.00    +0.000 HD
ATOM     51  H   UNL     1      -9.686   3.145 134.148  0.00  0.00    +0.000 HD
ENDBRANCH  46  47
ENDBRANCH  45  46
ENDBRANCH   5  45
ENDBRANCH   1   5
BRANCH   3  52
ATOM     52  C   UNL     1      -7.885  -0.161 125.821  0.00  0.00    +0.000 C 
BRANCH  52  53
ATOM     53  C   UNL     1      -7.620   1.314 125.377  0.00  0.00    +0.000 C 
ATOM     54  O   UNL     1      -8.566   2.105 125.452  0.00  0.00    +0.000 OA
ATOM     55  N   UNL     1      -6.354   1.684 124.901  0.00  0.00    +0.000 N 
ATOM     56  H   UNL     1      -5.684   0.988 124.584  0.00  0.00    +0.000 HD
BRANCH  55  57
ATOM     57  C   UNL     1      -5.931   3.115 124.648  0.00  0.00    +0.000 C 
BRANCH  57  58
ATOM     58  C   UNL     1      -5.675   3.977 125.974  0.00  0.00    +0.000 C 
ATOM     59  O   UNL     1      -6.625   4.610 126.446  0.00  0.00    +0.000 OA
ATOM     60  N   UNL     1      -4.476   3.828 126.690  0.00  0.00    +0.000 N 
ATOM     61  C   UNL     1      -3.106   3.844 126.203  0.00  0.00    +0.000 C 
ATOM     62  C   UNL     1      -2.384   3.007 127.230  0.00  0.00    +0.000 C 
ATOM     63  C   UNL     1      -2.962   3.522 128.533  0.00  0.00    +0.000 C 
ATOM     64  C   UNL     1      -4.392   3.996 128.165  0.00  0.00    +0.000 C 
BRANCH  64  65
ATOM     65  C   UNL     1      -4.413   5.456 128.643  0.00  0.00    +0.000 C 
ATOM     66  O   UNL     1      -4.216   6.384 127.860  0.00  0.00    +0.000 OA
ATOM     67  N   UNL     1      -4.528   5.636 130.017  0.00  0.00    +0.000 N 
ATOM     68  H   UNL     1      -4.372   4.847 130.619  0.00  0.00    +0.000 HD
BRANCH  67  69
ATOM     69  C   UNL     1      -4.763   6.966 130.619  0.00  0.00    +0.000 C 
BRANCH  69  70
ATOM     70  C   UNL     1      -3.888   7.285 131.867  0.00  0.00    +0.000 C 
ATOM     71  N   UNL     1      -2.999   8.321 131.800  0.00  0.00    +0.000 N 
ATOM     72  O   UNL     1      -3.945   6.632 132.908  0.00  0.00    +0.000 OA
ATOM     73  H   UNL     1      -2.851   8.927 131.015  0.00  0.00    +0.000 HD
ATOM     74  H   UNL     1      -2.433   8.486 132.624  0.00  0.00    +0.000 HD
ENDBRANCH  69  70
BRANCH  69  75
ATOM     75  C   UNL     1      -6.244   7.136 131.036  0.00  0.00    +0.000 C 
BRANCH  75  76
ATOM     76  C   UNL     1      -6.924   5.802 131.325  0.00  0.00    +0.000 C 
BRANCH  76  77
ATOM     77  C   UNL     1      -8.236   5.583 130.628  0.00  0.00    +0.000 C 
BRANCH  77  78
ATOM     78  N   UNL     1      -9.295   5.691 131.635  0.00  0.00    +0.000 NA
ATOM     79  C   UNL     1     -10.484   5.863 131.193  0.00  0.00    +0.000 C 
ATOM     80  N   UNL     1     -10.849   5.932 129.902  0.00  0.00    +0.000 N 
ATOM     81  N   UNL     1     -11.510   6.013 132.048  0.00  0.00    +0.000 N 
ATOM     82  H   UNL     1     -10.138   5.840 129.192  0.00  0.00    +0.000 HD
ATOM     83  H   UNL     1     -11.800   6.025 129.599  0.00  0.00    +0.000 HD
ATOM     84  H   UNL     1     -11.294   5.940 133.033  0.00  0.00    +0.000 HD
ATOM     85  H   UNL     1     -12.471   6.072 131.761  0.00  0.00    +0.000 HD
ENDBRANCH  77  78
ENDBRANCH  76  77
ENDBRANCH  75  76
ENDBRANCH  69  75
ENDBRANCH  67  69
ENDBRANCH  64  65
ENDBRANCH  57  58
BRANCH  57  86
ATOM     86  C   UNL     1      -6.958   3.771 123.732  0.00  0.00    +0.000 C 
BRANCH  86  87
ATOM     87  C   UNL     1      -6.885   3.320 122.293  0.00  0.00    +0.000 C 
BRANCH  87  88
ATOM     88  C   UNL     1      -5.563   3.626 121.654  0.00  0.00    +0.000 C 
BRANCH  88  89
ATOM     89  N   UNL     1      -5.860   4.159 120.330  0.00  0.00    +0.000 NA
ATOM     90  C   UNL     1      -5.265   5.251 120.021  0.00  0.00    +0.000 C 
ATOM     91  N   UNL     1      -4.404   5.935 120.792  0.00  0.00    +0.000 N 
ATOM     92  N   UNL     1      -5.525   5.838 118.843  0.00  0.00    +0.000 N 
ATOM     93  H   UNL     1      -4.159   5.573 121.702  0.00  0.00    +0.000 HD
ATOM     94  H   UNL     1      -3.924   6.759 120.482  0.00  0.00    +0.000 HD
ATOM     95  H   UNL     1      -6.094   5.312 118.190  0.00  0.00    +0.000 HD
ATOM     96  H   UNL     1      -4.987   6.608 118.484  0.00  0.00    +0.000 HD
ENDBRANCH  88  89
ENDBRANCH  87  88
ENDBRANCH  86  87
ENDBRANCH  57  86
ENDBRANCH  55  57
ENDBRANCH  52  53
BRANCH  52  97
ATOM     97  C   UNL     1      -9.060  -0.589 124.955  0.00  0.00    +0.000 C 
BRANCH  97  98
ATOM     98  C   UNL     1      -8.979  -1.959 124.352  0.00  0.00    +0.000 C 
ATOM     99  N   UNL     1      -8.190  -2.113 123.255  0.00  0.00    +0.000 N 
ATOM    100  O   UNL     1      -9.618  -2.909 124.790  0.00  0.00    +0.000 OA
ATOM    101  H   UNL     1      -7.348  -1.532 123.259  0.00  0.00    +0.000 HD
ATOM    102  H   UNL     1      -7.791  -3.051 123.285  0.00  0.00    +0.000 HD
ENDBRANCH  97  98
ENDBRANCH  52  97
ENDBRANCH   3  52
TORSDOF 34
ENDMDL
MODEL 5
REMARK VINA RESULT:      -8.4      3.146      8.507
REMARK  Name = CHEMBL269012
REMARK  35 active torsions:
REMARK  status: ('A' for Active; 'I' for Inactive)
REMARK    1  A    between atoms: C_1  and  N_2
REMARK    2  A    between atoms: N_2  and  C_13
REMARK    3  A    between atoms: C_3  and  C_5
REMARK    4  A    between atoms: C_5  and  C_6
REMARK    5  A    between atoms: C_9  and  O_10
REMARK    6  A    between atoms: C_13  and  C_14
REMARK    7  A    between atoms: C_13  and  C_22
REMARK    8  A    between atoms: C_14  and  C_15
REMARK    9  A    between atoms: C_18  and  O_19
REMARK   10  A    between atoms: N_24  and  C_25
REMARK   11  A    between atoms: C_25  and  C_26
REMARK   12  A    between atoms: C_25  and  C_33
REMARK   13  A    between atoms: C_26  and  C_27
REMARK   14  A    between atoms: N_35  and  C_36
REMARK   15  A    between atoms: C_36  and  C_37
REMARK   16  A    between atoms: C_36  and  C_42
REMARK   17  A    between atoms: C_37  and  C_38
REMARK   18  A    between atoms: C_38  and  C_39
REMARK   19  A    between atoms: N_44  and  C_45
REMARK   20  A    between atoms: C_45  and  C_46
REMARK   21  A    between atoms: C_45  and  C_50
REMARK   22  A    between atoms: C_46  and  C_47
REMARK   23  A    between atoms: N_52  and  C_53
REMARK   24  A    between atoms: C_53  and  C_54
REMARK   25  A    between atoms: C_53  and  C_61
REMARK   26  A    between atoms: C_54  and  C_55
REMARK   27  A    between atoms: C_55  and  C_56
REMARK   28  A    between atoms: C_56  and  N_57
REMARK   29  A    between atoms: C_67  and  C_68
REMARK   30  A    between atoms: N_70  and  C_71
REMARK   31  A    between atoms: C_71  and  C_72
REMARK   32  A    between atoms: C_71  and  C_79
REMARK   33  A    between atoms: C_72  and  C_73
REMARK   34  A    between atoms: C_73  and  C_74
REMARK   35  A    between atoms: C_74  and  N_75
REMARK                            x       y       z     vdW  Elec       q    Type
REMARK                         _______ _______ _______ _____ _____    ______ ____
ROOT
ATOM      1  C   UNL     1      -5.356   0.952 132.331  0.00  0.00    +0.000 C 
ATOM      2  O   UNL     1      -4.791   1.928 131.832  0.00  0.00    +0.000 OA
ATOM      3  N   UNL     1      -5.112  -0.353 131.930  0.00  0.00    +0.000 N 
ATOM      4  H   UNL     1      -5.774  -1.088 132.178  0.00  0.00    +0.000 HD
ENDROOT
BRANCH   1   5
ATOM      5  C   UNL     1      -6.479   1.327 133.305  0.00  0.00    +0.000 C 
BRANCH   5   8
ATOM      6  C   UNL     1      -6.074   3.553 134.504  0.00  0.00    +0.000 C 
ATOM      7  O   UNL     1      -5.487   3.009 135.442  0.00  0.00    +0.000 OA
ATOM      8  N   UNL     1      -6.506   2.831 133.404  0.00  0.00    +0.000 N 
ATOM      9  H   UNL     1      -6.858   3.306 132.573  0.00  0.00    +0.000 HD
BRANCH   6  10
ATOM     10  C   UNL     1      -6.345   5.079 134.554  0.00  0.00    +0.000 C 
BRANCH  10  13
ATOM     11  C   UNL     1      -4.086   5.954 133.700  0.00  0.00    +0.000 C 
ATOM     12  O   UNL     1      -3.453   5.769 134.750  0.00  0.00    +0.000 OA
ATOM     13  N   UNL     1      -5.432   5.760 133.568  0.00  0.00    +0.000 N 
ATOM     14  H   UNL     1      -5.903   6.227 132.790  0.00  0.00    +0.000 HD
BRANCH  11  15
ATOM     15  C   UNL     1      -3.213   6.586 132.676  0.00  0.00    +0.000 C 
BRANCH  15  17
ATOM     16  C   UNL     1      -2.738   4.358 131.549  0.00  0.00    +0.000 C 
ATOM     17  N   UNL     1      -3.242   5.773 131.465  0.00  0.00    +0.000 N 
ATOM     18  C   UNL     1      -3.423   6.605 130.354  0.00  0.00    +0.000 C 
ATOM     19  O   UNL     1      -4.113   7.625 130.465  0.00  0.00    +0.000 OA
BRANCH  18  20
ATOM     20  C   UNL     1      -2.606   6.365 129.088  0.00  0.00    +0.000 C 
BRANCH  20  21
ATOM     21  C   UNL     1      -3.188   5.256 128.262  0.00  0.00    +0.000 A 
ATOM     22  C   UNL     1      -4.569   5.189 128.154  0.00  0.00    +0.000 A 
ATOM     23  C   UNL     1      -5.150   4.214 127.358  0.00  0.00    +0.000 A 
ATOM     24  C   UNL     1      -4.338   3.313 126.669  0.00  0.00    +0.000 A 
ATOM     25  C   UNL     1      -2.954   3.360 126.774  0.00  0.00    +0.000 A 
ATOM     26  C   UNL     1      -2.370   4.332 127.579  0.00  0.00    +0.000 A 
BRANCH  24  27
ATOM     27  O   UNL     1      -4.872   2.353 125.862  0.00  0.00    +0.000 OA
ATOM     28  H   UNL     1      -4.232   2.156 125.161  0.00  0.00    +0.000 HD
ENDBRANCH  24  27
ENDBRANCH  20  21
ENDBRANCH  18  20
ENDBRANCH  15  17
BRANCH  15  29
ATOM     29  C   UNL     1      -1.762   7.052 133.265  0.00  0.00    +0.000 C 
BRANCH  29  30
ATOM     30  C   UNL     1      -1.366   8.514 133.339  0.00  0.00    +0.000 A 
ATOM     31  C   UNL     1      -2.331   9.488 133.254  0.00  0.00    +0.000 A 
ATOM     32  C   UNL     1      -2.137  10.769 132.784  0.00  0.00    +0.000 A 
ATOM     33  C   UNL     1      -0.863  11.236 132.847  0.00  0.00    +0.000 A 
ATOM     34  C   UNL     1       0.155  10.376 133.261  0.00  0.00    +0.000 A 
ATOM     35  C   UNL     1      -0.080   8.995 133.440  0.00  0.00    +0.000 A 
BRANCH  33  36
ATOM     36  O   UNL     1      -0.614  12.536 132.546  0.00  0.00    +0.000 OA
ATOM     37  H   UNL     1      -0.808  13.067 133.340  0.00  0.00    +0.000 HD
ENDBRANCH  33  36
ENDBRANCH  29  30
ENDBRANCH  15  29
ENDBRANCH  11  15
ENDBRANCH  10  13
BRANCH  10  38
ATOM     38  C   UNL     1      -7.851   5.231 134.286  0.00  0.00    +0.000 C 
BRANCH  38  39
ATOM     39  C   UNL     1      -8.249   5.893 132.990  0.00  0.00    +0.000 A 
ATOM     40  C   UNL     1      -7.309   6.194 131.976  0.00  0.00    +0.000 A 
ATOM     41  C   UNL     1      -7.735   6.448 130.669  0.00  0.00    +0.000 A 
ATOM     42  C   UNL     1      -9.092   6.583 130.409  0.00  0.00    +0.000 A 
ATOM     43  C   UNL     1     -10.020   6.451 131.446  0.00  0.00    +0.000 A 
ATOM     44  C   UNL     1      -9.611   6.057 132.720  0.00  0.00    +0.000 A 
ENDBRANCH  38  39
ENDBRANCH  10  38
ENDBRANCH   6  10
ENDBRANCH   5   8
BRANCH   5  45
ATOM     45  C   UNL     1      -7.720   0.823 132.582  0.00  0.00    +0.000 C 
BRANCH  45  46
ATOM     46  C   UNL     1      -8.464   1.948 131.910  0.00  0.00    +0.000 C 
BRANCH  46  47
ATOM     47  C   UNL     1      -8.466   1.959 130.421  0.00  0.00    +0.000 C 
ATOM     48  N   UNL     1      -9.140   2.969 129.817  0.00  0.00    +0.000 N 
ATOM     49  O   UNL     1      -7.943   1.061 129.770  0.00  0.00    +0.000 OA
ATOM     50  H   UNL     1      -9.616   3.711 130.308  0.00  0.00    +0.000 HD
ATOM     51  H   UNL     1      -9.185   2.953 128.810  0.00  0.00    +0.000 HD
ENDBRANCH  46  47
ENDBRANCH  45  46
ENDBRANCH   5  45
ENDBRANCH   1   5
BRANCH   3  52
ATOM     52  C   UNL     1      -3.978  -0.857 131.030  0.00  0.00    +0.000 C 
BRANCH  52  53
ATOM     53  C   UNL     1      -4.557  -1.538 129.746  0.00  0.00    +0.000 C 
ATOM     54  O   UNL     1      -3.897  -2.454 129.247  0.00  0.00    +0.000 OA
ATOM     55  N   UNL     1      -5.768  -1.087 129.203  0.00  0.00    +0.000 N 
ATOM     56  H   UNL     1      -6.151  -0.177 129.446  0.00  0.00    +0.000 HD
BRANCH  55  57
ATOM     57  C   UNL     1      -6.519  -1.804 128.101  0.00  0.00    +0.000 C 
BRANCH  57  58
ATOM     58  C   UNL     1      -6.746  -0.935 126.776  0.00  0.00    +0.000 C 
ATOM     59  O   UNL     1      -6.688   0.295 126.872  0.00  0.00    +0.000 OA
ATOM     60  N   UNL     1      -6.782  -1.563 125.520  0.00  0.00    +0.000 N 
ATOM     61  C   UNL     1      -7.538  -2.731 125.097  0.00  0.00    +0.000 C 
ATOM     62  C   UNL     1      -6.694  -3.278 123.971  0.00  0.00    +0.000 C 
ATOM     63  C   UNL     1      -6.325  -2.024 123.204  0.00  0.00    +0.000 C 
ATOM     64  C   UNL     1      -6.313  -0.900 124.274  0.00  0.00    +0.000 C 
BRANCH  64  65
ATOM     65  C   UNL     1      -7.286   0.141 123.701  0.00  0.00    +0.000 C 
ATOM     66  O   UNL     1      -8.300  -0.201 123.096  0.00  0.00    +0.000 OA
ATOM     67  N   UNL     1      -6.871   1.466 123.795  0.00  0.00    +0.000 N 
ATOM     68  H   UNL     1      -5.908   1.652 124.014  0.00  0.00    +0.000 HD
BRANCH  67  69
ATOM     69  C   UNL     1      -7.769   2.595 123.477  0.00  0.00    +0.000 C 
BRANCH  69  70
ATOM     70  C   UNL     1      -8.931   2.816 124.489  0.00  0.00    +0.000 C 
ATOM     71  N   UNL     1     -10.038   2.019 124.404  0.00  0.00    +0.000 N 
ATOM     72  O   UNL     1      -8.909   3.691 125.353  0.00  0.00    +0.000 OA
ATOM     73  H   UNL     1     -10.186   1.275 123.748  0.00  0.00    +0.000 HD
ATOM     74  H   UNL     1     -10.782   2.205 125.066  0.00  0.00    +0.000 HD
ENDBRANCH  69  70
BRANCH  69  75
ATOM     75  C   UNL     1      -8.403   2.426 122.074  0.00  0.00    +0.000 C 
BRANCH  75  76
ATOM     76  C   UNL     1      -8.147   3.630 121.172  0.00  0.00    +0.000 C 
BRANCH  76  77
ATOM     77  C   UNL     1      -6.711   3.862 120.800  0.00  0.00    +0.000 C 
BRANCH  77  78
ATOM     78  N   UNL     1      -6.691   4.443 119.455  0.00  0.00    +0.000 NA
ATOM     79  C   UNL     1      -5.821   5.359 119.245  0.00  0.00    +0.000 C 
ATOM     80  N   UNL     1      -4.921   5.817 120.130  0.00  0.00    +0.000 N 
ATOM     81  N   UNL     1      -5.761   5.975 118.052  0.00  0.00    +0.000 N 
ATOM     82  H   UNL     1      -4.905   5.418 121.056  0.00  0.00    +0.000 HD
ATOM     83  H   UNL     1      -4.228   6.508 119.910  0.00  0.00    +0.000 HD
ATOM     84  H   UNL     1      -6.398   5.648 117.339  0.00  0.00    +0.000 HD
ATOM     85  H   UNL     1      -5.052   6.643 117.805  0.00  0.00    +0.000 HD
ENDBRANCH  77  78
ENDBRANCH  76  77
ENDBRANCH  75  76
ENDBRANCH  69  75
ENDBRANCH  67  69
ENDBRANCH  64  65
ENDBRANCH  57  58
BRANCH  57  86
ATOM     86  C   UNL     1      -7.833  -2.328 128.672  0.00  0.00    +0.000 C 
BRANCH  86  87
ATOM     87  C   UNL     1      -7.670  -3.337 129.783  0.00  0.00    +0.000 C 
BRANCH  87  88
ATOM     88  C   UNL     1      -7.837  -2.734 131.145  0.00  0.00    +0.000 C 
BRANCH  88  89
ATOM     89  N   UNL     1      -6.646  -3.099 131.905  0.00  0.00    +0.000 NA
ATOM     90  C   UNL     1      -6.821  -3.293 133.159  0.00  0.00    +0.000 C 
ATOM     91  N   UNL     1      -7.983  -3.197 133.825  0.00  0.00    +0.000 N 
ATOM     92  N   UNL     1      -5.769  -3.577 133.940  0.00  0.00    +0.000 N 
ATOM     93  H   UNL     1      -8.828  -2.973 133.319  0.00  0.00    +0.000 HD
ATOM     94  H   UNL     1      -8.076  -3.410 134.801  0.00  0.00    +0.000 HD
ATOM     95  H   UNL     1      -4.889  -3.753 133.468  0.00  0.00    +0.000 HD
ATOM     96  H   UNL     1      -5.859  -3.882 134.893  0.00  0.00    +0.000 HD
ENDBRANCH  88  89
ENDBRANCH  87  88
ENDBRANCH  86  87
ENDBRANCH  57  86
ENDBRANCH  55  57
ENDBRANCH  52  53
BRANCH  52  97
ATOM     97  C   UNL     1      -3.172  -1.966 131.689  0.00  0.00    +0.000 C 
BRANCH  97  98
ATOM     98  C   UNL     1      -2.585  -1.654 133.033  0.00  0.00    +0.000 C 
ATOM     99  N   UNL     1      -2.190  -2.704 133.801  0.00  0.00    +0.000 N 
ATOM    100  O   UNL     1      -2.489  -0.508 133.458  0.00  0.00    +0.000 OA
ATOM    101  H   UNL     1      -1.803  -3.489 133.271  0.00  0.00    +0.000 HD
ATOM    102  H   UNL     1      -1.380  -2.407 134.345  0.00  0.00    +0.000 HD
ENDBRANCH  97  98
ENDBRANCH  52  97
ENDBRANCH   3  52
TORSDOF 34
ENDMDL
MODEL 6
REMARK VINA RESULT:      -8.4      2.524      5.337
REMARK  Name = CHEMBL269012
REMARK  35 active torsions:
REMARK  status: ('A' for Active; 'I' for Inactive)
REMARK    1  A    between atoms: C_1  and  N_2
REMARK    2  A    between atoms: N_2  and  C_13
REMARK    3  A    between atoms: C_3  and  C_5
REMARK    4  A    between atoms: C_5  and  C_6
REMARK    5  A    between atoms: C_9  and  O_10
REMARK    6  A    between atoms: C_13  and  C_14
REMARK    7  A    between atoms: C_13  and  C_22
REMARK    8  A    between atoms: C_14  and  C_15
REMARK    9  A    between atoms: C_18  and  O_19
REMARK   10  A    between atoms: N_24  and  C_25
REMARK   11  A    between atoms: C_25  and  C_26
REMARK   12  A    between atoms: C_25  and  C_33
REMARK   13  A    between atoms: C_26  and  C_27
REMARK   14  A    between atoms: N_35  and  C_36
REMARK   15  A    between atoms: C_36  and  C_37
REMARK   16  A    between atoms: C_36  and  C_42
REMARK   17  A    between atoms: C_37  and  C_38
REMARK   18  A    between atoms: C_38  and  C_39
REMARK   19  A    between atoms: N_44  and  C_45
REMARK   20  A    between atoms: C_45  and  C_46
REMARK   21  A    between atoms: C_45  and  C_50
REMARK   22  A    between atoms: C_46  and  C_47
REMARK   23  A    between atoms: N_52  and  C_53
REMARK   24  A    between atoms: C_53  and  C_54
REMARK   25  A    between atoms: C_53  and  C_61
REMARK   26  A    between atoms: C_54  and  C_55
REMARK   27  A    between atoms: C_55  and  C_56
REMARK   28  A    between atoms: C_56  and  N_57
REMARK   29  A    between atoms: C_67  and  C_68
REMARK   30  A    between atoms: N_70  and  C_71
REMARK   31  A    between atoms: C_71  and  C_72
REMARK   32  A    between atoms: C_71  and  C_79
REMARK   33  A    between atoms: C_72  and  C_73
REMARK   34  A    between atoms: C_73  and  C_74
REMARK   35  A    between atoms: C_74  and  N_75
REMARK                            x       y       z     vdW  Elec       q    Type
REMARK                         _______ _______ _______ _____ _____    ______ ____
ROOT
ATOM      1  C   UNL     1      -6.922   3.688 126.523  0.00  0.00    +0.000 C 
ATOM      2  O   UNL     1      -7.377   4.546 125.761  0.00  0.00    +0.000 OA
ATOM      3  N   UNL     1      -7.445   2.407 126.621  0.00  0.00    +0.000 N 
ATOM      4  H   UNL     1      -7.214   1.830 127.430  0.00  0.00    +0.000 HD
ENDROOT
BRANCH   1   5
ATOM      5  C   UNL     1      -5.847   4.224 127.475  0.00  0.00    +0.000 C 
BRANCH   5   8
ATOM      6  C   UNL     1      -6.101   5.486 129.689  0.00  0.00    +0.000 C 
ATOM      7  O   UNL     1      -5.222   6.298 129.396  0.00  0.00    +0.000 OA
ATOM      8  N   UNL     1      -6.517   4.515 128.793  0.00  0.00    +0.000 N 
ATOM      9  H   UNL     1      -7.339   3.943 128.987  0.00  0.00    +0.000 HD
BRANCH   6  10
ATOM     10  C   UNL     1      -6.756   5.541 131.094  0.00  0.00    +0.000 C 
BRANCH  10  13
ATOM     11  C   UNL     1      -4.707   4.380 132.121  0.00  0.00    +0.000 C 
ATOM     12  O   UNL     1      -4.687   3.412 131.346  0.00  0.00    +0.000 OA
ATOM     13  N   UNL     1      -5.683   5.337 132.131  0.00  0.00    +0.000 N 
ATOM     14  H   UNL     1      -5.788   5.897 132.980  0.00  0.00    +0.000 HD
BRANCH  11  15
ATOM     15  C   UNL     1      -3.634   4.249 133.140  0.00  0.00    +0.000 C 
BRANCH  15  17
ATOM     16  C   UNL     1      -1.528   5.440 132.365  0.00  0.00    +0.000 C 
ATOM     17  N   UNL     1      -2.823   5.460 133.131  0.00  0.00    +0.000 N 
ATOM     18  C   UNL     1      -3.260   6.318 134.147  0.00  0.00    +0.000 C 
ATOM     19  O   UNL     1      -4.459   6.346 134.444  0.00  0.00    +0.000 OA
BRANCH  18  20
ATOM     20  C   UNL     1      -2.237   7.047 135.014  0.00  0.00    +0.000 C 
BRANCH  20  21
ATOM     21  C   UNL     1      -2.279   8.529 134.783  0.00  0.00    +0.000 A 
ATOM     22  C   UNL     1      -2.059   8.986 133.492  0.00  0.00    +0.000 A 
ATOM     23  C   UNL     1      -2.143  10.342 133.220  0.00  0.00    +0.000 A 
ATOM     24  C   UNL     1      -2.452  11.233 134.247  0.00  0.00    +0.000 A 
ATOM     25  C   UNL     1      -2.666  10.793 135.547  0.00  0.00    +0.000 A 
ATOM     26  C   UNL     1      -2.574   9.434 135.823  0.00  0.00    +0.000 A 
BRANCH  24  27
ATOM     27  O   UNL     1      -2.561  12.572 134.014  0.00  0.00    +0.000 OA
ATOM     28  H   UNL     1      -3.462  12.848 134.246  0.00  0.00    +0.000 HD
ENDBRANCH  24  27
ENDBRANCH  20  21
ENDBRANCH  18  20
ENDBRANCH  15  17
BRANCH  15  29
ATOM     29  C   UNL     1      -2.874   2.803 133.093  0.00  0.00    +0.000 C 
BRANCH  29  30
ATOM     30  C   UNL     1      -3.389   1.608 133.872  0.00  0.00    +0.000 A 
ATOM     31  C   UNL     1      -4.350   1.784 134.837  0.00  0.00    +0.000 A 
ATOM     32  C   UNL     1      -4.534   0.980 135.941  0.00  0.00    +0.000 A 
ATOM     33  C   UNL     1      -4.064  -0.290 135.833  0.00  0.00    +0.000 A 
ATOM     34  C   UNL     1      -3.345  -0.653 134.693  0.00  0.00    +0.000 A 
ATOM     35  C   UNL     1      -2.944   0.311 133.742  0.00  0.00    +0.000 A 
BRANCH  33  36
ATOM     36  O   UNL     1      -4.337  -1.187 136.814  0.00  0.00    +0.000 OA
ATOM     37  H   UNL     1      -3.935  -0.856 137.639  0.00  0.00    +0.000 HD
ENDBRANCH  33  36
ENDBRANCH  29  30
ENDBRANCH  15  29
ENDBRANCH  11  15
ENDBRANCH  10  13
BRANCH  10  38
ATOM     38  C   UNL     1      -7.489   6.891 131.146  0.00  0.00    +0.000 C 
BRANCH  38  39
ATOM     39  C   UNL     1      -8.986   6.861 130.957  0.00  0.00    +0.000 A 
ATOM     40  C   UNL     1      -9.596   7.154 129.714  0.00  0.00    +0.000 A 
ATOM     41  C   UNL     1     -10.914   6.761 129.464  0.00  0.00    +0.000 A 
ATOM     42  C   UNL     1     -11.680   6.247 130.500  0.00  0.00    +0.000 A 
ATOM     43  C   UNL     1     -11.130   6.111 131.777  0.00  0.00    +0.000 A 
ATOM     44  C   UNL     1      -9.776   6.366 131.998  0.00  0.00    +0.000 A 
ENDBRANCH  38  39
ENDBRANCH  10  38
ENDBRANCH   6  10
ENDBRANCH   5   8
BRANCH   5  45
ATOM     45  C   UNL     1      -4.908   3.034 127.610  0.00  0.00    +0.000 C 
BRANCH  45  46
ATOM     46  C   UNL     1      -3.780   3.102 126.612  0.00  0.00    +0.000 C 
BRANCH  46  47
ATOM     47  C   UNL     1      -2.490   3.667 127.093  0.00  0.00    +0.000 C 
ATOM     48  N   UNL     1      -1.391   3.411 126.340  0.00  0.00    +0.000 N 
ATOM     49  O   UNL     1      -2.409   4.276 128.154  0.00  0.00    +0.000 OA
ATOM     50  H   UNL     1      -1.399   2.885 125.480  0.00  0.00    +0.000 HD
ATOM     51  H   UNL     1      -0.508   3.749 126.688  0.00  0.00    +0.000 HD
ENDBRANCH  46  47
ENDBRANCH  45  46
ENDBRANCH   5  45
ENDBRANCH   1   5
BRANCH   3  52
ATOM     52  C   UNL     1      -8.459   1.738 125.687  0.00  0.00    +0.000 C 
BRANCH  52  53
ATOM     53  C   UNL     1      -8.821   0.307 126.204  0.00  0.00    +0.000 C 
ATOM     54  O   UNL     1      -9.848  -0.212 125.756  0.00  0.00    +0.000 OA
ATOM     55  N   UNL     1      -8.001  -0.321 127.152  0.00  0.00    +0.000 N 
ATOM     56  H   UNL     1      -7.336   0.208 127.710  0.00  0.00    +0.000 HD
BRANCH  55  57
ATOM     57  C   UNL     1      -8.137  -1.773 127.558  0.00  0.00    +0.000 C 
BRANCH  57  58
ATOM     58  C   UNL     1      -7.482  -2.133 128.974  0.00  0.00    +0.000 C 
ATOM     59  O   UNL     1      -8.228  -2.208 129.955  0.00  0.00    +0.000 OA
ATOM     60  N   UNL     1      -6.148  -2.568 129.042  0.00  0.00    +0.000 N 
ATOM     61  C   UNL     1      -4.959  -1.987 128.440  0.00  0.00    +0.000 C 
ATOM     62  C   UNL     1      -4.047  -3.180 128.297  0.00  0.00    +0.000 C 
ATOM     63  C   UNL     1      -4.222  -3.884 129.627  0.00  0.00    +0.000 C 
ATOM     64  C   UNL     1      -5.664  -3.524 130.073  0.00  0.00    +0.000 C 
BRANCH  64  65
ATOM     65  C   UNL     1      -5.460  -2.910 131.466  0.00  0.00    +0.000 C 
ATOM     66  O   UNL     1      -4.356  -2.510 131.828  0.00  0.00    +0.000 OA
ATOM     67  N   UNL     1      -6.560  -2.969 132.315  0.00  0.00    +0.000 N 
ATOM     68  H   UNL     1      -7.321  -3.578 132.072  0.00  0.00    +0.000 HD
BRANCH  67  69
ATOM     69  C   UNL     1      -6.595  -2.252 133.607  0.00  0.00    +0.000 C 
BRANCH  69  70
ATOM     70  C   UNL     1      -7.708  -2.723 134.589  0.00  0.00    +0.000 C 
ATOM     71  N   UNL     1      -8.698  -3.539 134.119  0.00  0.00    +0.000 N 
ATOM     72  O   UNL     1      -7.750  -2.375 135.768  0.00  0.00    +0.000 OA
ATOM     73  H   UNL     1      -8.785  -3.892 133.184  0.00  0.00    +0.000 HD
ATOM     74  H   UNL     1      -9.416  -3.808 134.782  0.00  0.00    +0.000 HD
ENDBRANCH  69  70
BRANCH  69  75
ATOM     75  C   UNL     1      -6.779  -0.729 133.395  0.00  0.00    +0.000 C 
BRANCH  75  76
ATOM     76  C   UNL     1      -8.006  -0.403 132.550  0.00  0.00    +0.000 C 
BRANCH  76  77
ATOM     77  C   UNL     1      -8.048   0.986 131.983  0.00  0.00    +0.000 C 
BRANCH  77  78
ATOM     78  N   UNL     1      -8.298   1.910 133.093  0.00  0.00    +0.000 NA
ATOM     79  C   UNL     1      -9.337   2.651 132.993  0.00  0.00    +0.000 C 
ATOM     80  N   UNL     1     -10.222   2.644 131.983  0.00  0.00    +0.000 N 
ATOM     81  N   UNL     1      -9.619   3.555 133.946  0.00  0.00    +0.000 N 
ATOM     82  H   UNL     1     -10.080   2.002 131.217  0.00  0.00    +0.000 HD
ATOM     83  H   UNL     1     -11.048   3.213 131.965  0.00  0.00    +0.000 HD
ATOM     84  H   UNL     1      -8.999   3.581 134.745  0.00  0.00    +0.000 HD
ATOM     85  H   UNL     1     -10.459   4.106 133.961  0.00  0.00    +0.000 HD
ENDBRANCH  77  78
ENDBRANCH  76  77
ENDBRANCH  75  76
ENDBRANCH  69  75
ENDBRANCH  67  69
ENDBRANCH  64  65
ENDBRANCH  57  58
BRANCH  57  86
ATOM     86  C   UNL     1      -7.583  -2.644 126.435  0.00  0.00    +0.000 C 
BRANCH  86  87
ATOM     87  C   UNL     1      -8.575  -3.628 125.864  0.00  0.00    +0.000 C 
BRANCH  87  88
ATOM     88  C   UNL     1      -8.470  -3.761 124.373  0.00  0.00    +0.000 C 
BRANCH  88  89
ATOM     89  N   UNL     1      -9.433  -2.821 123.808  0.00  0.00    +0.000 NA
ATOM     90  C   UNL     1      -8.947  -1.920 123.039  0.00  0.00    +0.000 C 
ATOM     91  N   UNL     1      -7.655  -1.765 122.709  0.00  0.00    +0.000 N 
ATOM     92  N   UNL     1      -9.756  -0.982 122.523  0.00  0.00    +0.000 N 
ATOM     93  H   UNL     1      -6.971  -2.419 123.064  0.00  0.00    +0.000 HD
ATOM     94  H   UNL     1      -7.332  -1.072 122.060  0.00  0.00    +0.000 HD
ATOM     95  H   UNL     1     -10.750  -1.112 122.667  0.00  0.00    +0.000 HD
ATOM     96  H   UNL     1      -9.465  -0.343 121.803  0.00  0.00    +0.000 HD
ENDBRANCH  88  89
ENDBRANCH  87  88
ENDBRANCH  86  87
ENDBRANCH  57  86
ENDBRANCH  55  57
ENDBRANCH  52  53
BRANCH  52  97
ATOM     97  C   UNL     1      -7.882   1.480 124.303  0.00  0.00    +0.000 C 
BRANCH  97  98
ATOM     98  C   UNL     1      -8.427   2.321 123.188  0.00  0.00    +0.000 C 
ATOM     99  N   UNL     1      -7.826   3.519 122.956  0.00  0.00    +0.000 N 
ATOM    100  O   UNL     1      -9.398   1.980 122.522  0.00  0.00    +0.000 OA
ATOM    101  H   UNL     1      -6.816   3.519 123.117  0.00  0.00    +0.000 HD
ATOM    102  H   UNL     1      -7.873   3.705 121.955  0.00  0.00    +0.000 HD
ENDBRANCH  97  98
ENDBRANCH  52  97
ENDBRANCH   3  52
TORSDOF 34
ENDMDL
MODEL 7
REMARK VINA RESULT:      -8.4      3.861      9.726
REMARK  Name = CHEMBL269012
REMARK  35 active torsions:
REMARK  status: ('A' for Active; 'I' for Inactive)
REMARK    1  A    between atoms: C_1  and  N_2
REMARK    2  A    between atoms: N_2  and  C_13
REMARK    3  A    between atoms: C_3  and  C_5
REMARK    4  A    between atoms: C_5  and  C_6
REMARK    5  A    between atoms: C_9  and  O_10
REMARK    6  A    between atoms: C_13  and  C_14
REMARK    7  A    between atoms: C_13  and  C_22
REMARK    8  A    between atoms: C_14  and  C_15
REMARK    9  A    between atoms: C_18  and  O_19
REMARK   10  A    between atoms: N_24  and  C_25
REMARK   11  A    between atoms: C_25  and  C_26
REMARK   12  A    between atoms: C_25  and  C_33
REMARK   13  A    between atoms: C_26  and  C_27
REMARK   14  A    between atoms: N_35  and  C_36
REMARK   15  A    between atoms: C_36  and  C_37
REMARK   16  A    between atoms: C_36  and  C_42
REMARK   17  A    between atoms: C_37  and  C_38
REMARK   18  A    between atoms: C_38  and  C_39
REMARK   19  A    between atoms: N_44  and  C_45
REMARK   20  A    between atoms: C_45  and  C_46
REMARK   21  A    between atoms: C_45  and  C_50
REMARK   22  A    between atoms: C_46  and  C_47
REMARK   23  A    between atoms: N_52  and  C_53
REMARK   24  A    between atoms: C_53  and  C_54
REMARK   25  A    between atoms: C_53  and  C_61
REMARK   26  A    between atoms: C_54  and  C_55
REMARK   27  A    between atoms: C_55  and  C_56
REMARK   28  A    between atoms: C_56  and  N_57
REMARK   29  A    between atoms: C_67  and  C_68
REMARK   30  A    between atoms: N_70  and  C_71
REMARK   31  A    between atoms: C_71  and  C_72
REMARK   32  A    between atoms: C_71  and  C_79
REMARK   33  A    between atoms: C_72  and  C_73
REMARK   34  A    between atoms: C_73  and  C_74
REMARK   35  A    between atoms: C_74  and  N_75
REMARK                            x       y       z     vdW  Elec       q    Type
REMARK                         _______ _______ _______ _____ _____    ______ ____
ROOT
ATOM      1  C   UNL     1      -6.966   4.636 129.460  0.00  0.00    +0.000 C 
ATOM      2  O   UNL     1      -6.048   5.460 129.431  0.00  0.00    +0.000 OA
ATOM      3  N   UNL     1      -8.113   4.805 130.221  0.00  0.00    +0.000 N 
ATOM      4  H   UNL     1      -8.710   4.002 130.416  0.00  0.00    +0.000 HD
ENDROOT
BRANCH   1   5
ATOM      5  C   UNL     1      -6.640   3.332 128.723  0.00  0.00    +0.000 C 
BRANCH   5   8
ATOM      6  C   UNL     1      -5.250   1.668 130.087  0.00  0.00    +0.000 C 
ATOM      7  O   UNL     1      -4.186   2.095 129.634  0.00  0.00    +0.000 OA
ATOM      8  N   UNL     1      -6.461   2.258 129.766  0.00  0.00    +0.000 N 
ATOM      9  H   UNL     1      -7.317   1.993 130.254  0.00  0.00    +0.000 HD
BRANCH   6  10
ATOM     10  C   UNL     1      -5.241   0.438 131.031  0.00  0.00    +0.000 C 
BRANCH  10  13
ATOM     11  C   UNL     1      -6.422  -1.271 129.520  0.00  0.00    +0.000 C 
ATOM     12  O   UNL     1      -7.570  -0.824 129.666  0.00  0.00    +0.000 OA
ATOM     13  N   UNL     1      -5.325  -0.810 130.192  0.00  0.00    +0.000 N 
ATOM     14  H   UNL     1      -4.511  -1.426 130.245  0.00  0.00    +0.000 HD
BRANCH  11  15
ATOM     15  C   UNL     1      -6.446  -2.482 128.659  0.00  0.00    +0.000 C 
BRANCH  15  17
ATOM     16  C   UNL     1      -8.459  -2.702 127.124  0.00  0.00    +0.000 C 
ATOM     17  N   UNL     1      -7.086  -2.149 127.392  0.00  0.00    +0.000 N 
ATOM     18  C   UNL     1      -6.126  -1.641 126.508  0.00  0.00    +0.000 C 
ATOM     19  O   UNL     1      -5.184  -0.976 126.950  0.00  0.00    +0.000 OA
BRANCH  18  20
ATOM     20  C   UNL     1      -6.132  -2.087 125.048  0.00  0.00    +0.000 C 
BRANCH  20  21
ATOM     21  C   UNL     1      -7.274  -1.474 124.293  0.00  0.00    +0.000 A 
ATOM     22  C   UNL     1      -8.016  -2.301 123.462  0.00  0.00    +0.000 A 
ATOM     23  C   UNL     1      -9.114  -1.792 122.787  0.00  0.00    +0.000 A 
ATOM     24  C   UNL     1      -9.465  -0.453 122.954  0.00  0.00    +0.000 A 
ATOM     25  C   UNL     1      -8.728   0.392 123.775  0.00  0.00    +0.000 A 
ATOM     26  C   UNL     1      -7.621  -0.116 124.446  0.00  0.00    +0.000 A 
BRANCH  24  27
ATOM     27  O   UNL     1     -10.549   0.079 122.322  0.00  0.00    +0.000 OA
ATOM     28  H   UNL     1     -10.730   0.949 122.711  0.00  0.00    +0.000 HD
ENDBRANCH  24  27
ENDBRANCH  20  21
ENDBRANCH  18  20
ENDBRANCH  15  17
BRANCH  15  29
ATOM     29  C   UNL     1      -6.940  -3.824 129.449  0.00  0.00    +0.000 C 
BRANCH  29  30
ATOM     30  C   UNL     1      -6.444  -4.152 130.845  0.00  0.00    +0.000 A 
ATOM     31  C   UNL     1      -7.059  -3.591 131.938  0.00  0.00    +0.000 A 
ATOM     32  C   UNL     1      -6.462  -3.347 133.156  0.00  0.00    +0.000 A 
ATOM     33  C   UNL     1      -5.375  -4.108 133.445  0.00  0.00    +0.000 A 
ATOM     34  C   UNL     1      -4.878  -4.979 132.473  0.00  0.00    +0.000 A 
ATOM     35  C   UNL     1      -5.365  -4.953 131.148  0.00  0.00    +0.000 A 
BRANCH  33  36
ATOM     36  O   UNL     1      -4.821  -4.036 134.682  0.00  0.00    +0.000 OA
ATOM     37  H   UNL     1      -5.548  -4.005 135.331  0.00  0.00    +0.000 HD
ENDBRANCH  33  36
ENDBRANCH  29  30
ENDBRANCH  15  29
ENDBRANCH  11  15
ENDBRANCH  10  13
BRANCH  10  38
ATOM     38  C   UNL     1      -3.968   0.588 131.880  0.00  0.00    +0.000 C 
BRANCH  38  39
ATOM     39  C   UNL     1      -4.141   0.552 133.378  0.00  0.00    +0.000 A 
ATOM     40  C   UNL     1      -3.543   1.511 134.230  0.00  0.00    +0.000 A 
ATOM     41  C   UNL     1      -4.010   1.684 135.537  0.00  0.00    +0.000 A 
ATOM     42  C   UNL     1      -4.936   0.789 136.053  0.00  0.00    +0.000 A 
ATOM     43  C   UNL     1      -5.407  -0.264 135.265  0.00  0.00    +0.000 A 
ATOM     44  C   UNL     1      -5.054  -0.357 133.919  0.00  0.00    +0.000 A 
ENDBRANCH  38  39
ENDBRANCH  10  38
ENDBRANCH   6  10
ENDBRANCH   5   8
BRANCH   5  45
ATOM     45  C   UNL     1      -7.909   3.084 127.921  0.00  0.00    +0.000 C 
BRANCH  45  46
ATOM     46  C   UNL     1      -8.090   4.114 126.837  0.00  0.00    +0.000 C 
BRANCH  46  47
ATOM     47  C   UNL     1      -7.772   3.690 125.446  0.00  0.00    +0.000 C 
ATOM     48  N   UNL     1      -6.506   3.267 125.208  0.00  0.00    +0.000 N 
ATOM     49  O   UNL     1      -8.595   3.783 124.541  0.00  0.00    +0.000 OA
ATOM     50  H   UNL     1      -5.783   3.207 125.910  0.00  0.00    +0.000 HD
ATOM     51  H   UNL     1      -6.273   3.027 124.258  0.00  0.00    +0.000 HD
ENDBRANCH  46  47
ENDBRANCH  45  46
ENDBRANCH   5  45
ENDBRANCH   1   5
BRANCH   3  52
ATOM     52  C   UNL     1      -8.582   6.078 130.934  0.00  0.00    +0.000 C 
BRANCH  52  53
ATOM     53  C   UNL     1      -7.954   6.170 132.363  0.00  0.00    +0.000 C 
ATOM     54  O   UNL     1      -8.730   6.318 133.312  0.00  0.00    +0.000 OA
ATOM     55  N   UNL     1      -6.562   6.103 132.520  0.00  0.00    +0.000 N 
ATOM     56  H   UNL     1      -5.933   6.262 131.737  0.00  0.00    +0.000 HD
BRANCH  55  57
ATOM     57  C   UNL     1      -5.868   5.968 133.859  0.00  0.00    +0.000 C 
BRANCH  57  58
ATOM     58  C   UNL     1      -4.351   6.480 133.876  0.00  0.00    +0.000 C 
ATOM     59  O   UNL     1      -4.046   7.360 134.688  0.00  0.00    +0.000 OA
ATOM     60  N   UNL     1      -3.366   5.788 133.153  0.00  0.00    +0.000 N 
ATOM     61  C   UNL     1      -3.385   5.341 131.770  0.00  0.00    +0.000 C 
ATOM     62  C   UNL     1      -2.443   4.161 131.794  0.00  0.00    +0.000 C 
ATOM     63  C   UNL     1      -1.295   4.680 132.636  0.00  0.00    +0.000 C 
ATOM     64  C   UNL     1      -1.947   5.712 133.593  0.00  0.00    +0.000 C 
BRANCH  64  65
ATOM     65  C   UNL     1      -1.133   6.990 133.341  0.00  0.00    +0.000 C 
ATOM     66  O   UNL     1      -0.328   7.059 132.414  0.00  0.00    +0.000 OA
ATOM     67  N   UNL     1      -1.269   7.988 134.301  0.00  0.00    +0.000 N 
ATOM     68  H   UNL     1      -1.692   7.751 135.181  0.00  0.00    +0.000 HD
BRANCH  67  69
ATOM     69  C   UNL     1      -0.716   9.345 134.108  0.00  0.00    +0.000 C 
BRANCH  69  70
ATOM     70  C   UNL     1       0.516   9.684 134.997  0.00  0.00    +0.000 C 
ATOM     71  N   UNL     1       0.980   8.738 135.868  0.00  0.00    +0.000 N 
ATOM     72  O   UNL     1       1.082  10.776 134.967  0.00  0.00    +0.000 OA
ATOM     73  H   UNL     1       0.611   7.814 135.995  0.00  0.00    +0.000 HD
ATOM     74  H   UNL     1       1.770   9.002 136.444  0.00  0.00    +0.000 HD
ENDBRANCH  69  70
BRANCH  69  75
ATOM     75  C   UNL     1      -1.790  10.428 134.374  0.00  0.00    +0.000 C 
BRANCH  75  76
ATOM     76  C   UNL     1      -2.230  11.137 133.097  0.00  0.00    +0.000 C 
BRANCH  76  77
ATOM     77  C   UNL     1      -1.755  12.554 132.950  0.00  0.00    +0.000 C 
BRANCH  77  78
ATOM     78  N   UNL     1      -1.088  12.665 131.650  0.00  0.00    +0.000 NA
ATOM     79  C   UNL     1       0.184  12.806 131.675  0.00  0.00    +0.000 C 
ATOM     80  N   UNL     1       0.958  12.842 132.772  0.00  0.00    +0.000 N 
ATOM     81  N   UNL     1       0.871  12.957 130.529  0.00  0.00    +0.000 N 
ATOM     82  H   UNL     1       0.522  12.748 133.676  0.00  0.00    +0.000 HD
ATOM     83  H   UNL     1       1.958  12.912 132.743  0.00  0.00    +0.000 HD
ATOM     84  H   UNL     1       0.339  12.909 129.671  0.00  0.00    +0.000 HD
ATOM     85  H   UNL     1       1.874  12.993 130.481  0.00  0.00    +0.000 HD
ENDBRANCH  77  78
ENDBRANCH  76  77
ENDBRANCH  75  76
ENDBRANCH  69  75
ENDBRANCH  67  69
ENDBRANCH  64  65
ENDBRANCH  57  58
BRANCH  57  86
ATOM     86  C   UNL     1      -5.987   4.520 134.322  0.00  0.00    +0.000 C 
BRANCH  86  87
ATOM     87  C   UNL     1      -6.364   3.547 133.232  0.00  0.00    +0.000 C 
BRANCH  87  88
ATOM     88  C   UNL     1      -7.334   2.502 133.696  0.00  0.00    +0.000 C 
BRANCH  88  89
ATOM     89  N   UNL     1      -8.243   2.261 132.581  0.00  0.00    +0.000 NA
ATOM     90  C   UNL     1      -9.420   2.750 132.704  0.00  0.00    +0.000 C 
ATOM     91  N   UNL     1      -9.884   3.456 133.748  0.00  0.00    +0.000 N 
ATOM     92  N   UNL     1     -10.335   2.527 131.749  0.00  0.00    +0.000 N 
ATOM     93  H   UNL     1      -9.267   3.661 134.521  0.00  0.00    +0.000 HD
ATOM     94  H   UNL     1     -10.801   3.862 133.773  0.00  0.00    +0.000 HD
ATOM     95  H   UNL     1     -10.006   2.081 130.901  0.00  0.00    +0.000 HD
ATOM     96  H   UNL     1     -11.221   3.001 131.717  0.00  0.00    +0.000 HD
ENDBRANCH  88  89
ENDBRANCH  87  88
ENDBRANCH  86  87
ENDBRANCH  57  86
ENDBRANCH  55  57
ENDBRANCH  52  53
BRANCH  52  97
ATOM     97  C   UNL     1     -10.079   6.067 131.203  0.00  0.00    +0.000 C 
BRANCH  97  98
ATOM     98  C   UNL     1     -10.957   5.646 130.062  0.00  0.00    +0.000 C 
ATOM     99  N   UNL     1     -11.534   6.630 129.322  0.00  0.00    +0.000 N 
ATOM    100  O   UNL     1     -11.189   4.468 129.812  0.00  0.00    +0.000 OA
ATOM    101  H   UNL     1     -10.953   7.463 129.207  0.00  0.00    +0.000 HD
ATOM    102  H   UNL     1     -11.606   6.297 128.361  0.00  0.00    +0.000 HD
ENDBRANCH  97  98
ENDBRANCH  52  97
ENDBRANCH   3  52
TORSDOF 34
ENDMDL
MODEL 8
REMARK VINA RESULT:      -8.4      2.843      8.132
REMARK  Name = CHEMBL269012
REMARK  35 active torsions:
REMARK  status: ('A' for Active; 'I' for Inactive)
REMARK    1  A    between atoms: C_1  and  N_2
REMARK    2  A    between atoms: N_2  and  C_13
REMARK    3  A    between atoms: C_3  and  C_5
REMARK    4  A    between atoms: C_5  and  C_6
REMARK    5  A    between atoms: C_9  and  O_10
REMARK    6  A    between atoms: C_13  and  C_14
REMARK    7  A    between atoms: C_13  and  C_22
REMARK    8  A    between atoms: C_14  and  C_15
REMARK    9  A    between atoms: C_18  and  O_19
REMARK   10  A    between atoms: N_24  and  C_25
REMARK   11  A    between atoms: C_25  and  C_26
REMARK   12  A    between atoms: C_25  and  C_33
REMARK   13  A    between atoms: C_26  and  C_27
REMARK   14  A    between atoms: N_35  and  C_36
REMARK   15  A    between atoms: C_36  and  C_37
REMARK   16  A    between atoms: C_36  and  C_42
REMARK   17  A    between atoms: C_37  and  C_38
REMARK   18  A    between atoms: C_38  and  C_39
REMARK   19  A    between atoms: N_44  and  C_45
REMARK   20  A    between atoms: C_45  and  C_46
REMARK   21  A    between atoms: C_45  and  C_50
REMARK   22  A    between atoms: C_46  and  C_47
REMARK   23  A    between atoms: N_52  and  C_53
REMARK   24  A    between atoms: C_53  and  C_54
REMARK   25  A    between atoms: C_53  and  C_61
REMARK   26  A    between atoms: C_54  and  C_55
REMARK   27  A    between atoms: C_55  and  C_56
REMARK   28  A    between atoms: C_56  and  N_57
REMARK   29  A    between atoms: C_67  and  C_68
REMARK   30  A    between atoms: N_70  and  C_71
REMARK   31  A    between atoms: C_71  and  C_72
REMARK   32  A    between atoms: C_71  and  C_79
REMARK   33  A    between atoms: C_72  and  C_73
REMARK   34  A    between atoms: C_73  and  C_74
REMARK   35  A    between atoms: C_74  and  N_75
REMARK                            x       y       z     vdW  Elec       q    Type
REMARK                         _______ _______ _______ _____ _____    ______ ____
ROOT
ATOM      1  C   UNL     1      -6.789   1.181 131.910  0.00  0.00    +0.000 C 
ATOM      2  O   UNL     1      -7.316   0.207 131.364  0.00  0.00    +0.000 OA
ATOM      3  N   UNL     1      -5.462   1.196 132.316  0.00  0.00    +0.000 N 
ATOM      4  H   UNL     1      -5.148   1.903 132.981  0.00  0.00    +0.000 HD
ENDROOT
BRANCH   1   5
ATOM      5  C   UNL     1      -7.779   2.297 132.258  0.00  0.00    +0.000 C 
BRANCH   5   8
ATOM      6  C   UNL     1      -7.857   3.990 134.179  0.00  0.00    +0.000 C 
ATOM      7  O   UNL     1      -9.089   4.029 134.173  0.00  0.00    +0.000 OA
ATOM      8  N   UNL     1      -7.157   3.126 133.353  0.00  0.00    +0.000 N 
ATOM      9  H   UNL     1      -6.152   2.995 133.466  0.00  0.00    +0.000 HD
BRANCH   6  10
ATOM     10  C   UNL     1      -7.066   4.929 135.126  0.00  0.00    +0.000 C 
BRANCH  10  13
ATOM     11  C   UNL     1      -5.814   6.055 133.185  0.00  0.00    +0.000 C 
ATOM     12  O   UNL     1      -6.783   6.135 132.416  0.00  0.00    +0.000 OA
ATOM     13  N   UNL     1      -5.844   5.424 134.397  0.00  0.00    +0.000 N 
ATOM     14  H   UNL     1      -4.950   5.139 134.804  0.00  0.00    +0.000 HD
BRANCH  11  15
ATOM     15  C   UNL     1      -4.587   6.575 132.527  0.00  0.00    +0.000 C 
BRANCH  15  17
ATOM     16  C   UNL     1      -3.789   4.371 131.545  0.00  0.00    +0.000 C 
ATOM     17  N   UNL     1      -4.309   5.769 131.344  0.00  0.00    +0.000 N 
ATOM     18  C   UNL     1      -4.259   6.600 130.219  0.00  0.00    +0.000 C 
ATOM     19  O   UNL     1      -4.990   7.594 130.165  0.00  0.00    +0.000 OA
BRANCH  18  20
ATOM     20  C   UNL     1      -3.164   6.395 129.175  0.00  0.00    +0.000 C 
BRANCH  20  21
ATOM     21  C   UNL     1      -3.404   5.153 128.367  0.00  0.00    +0.000 A 
ATOM     22  C   UNL     1      -2.296   4.414 127.977  0.00  0.00    +0.000 A 
ATOM     23  C   UNL     1      -2.472   3.231 127.277  0.00  0.00    +0.000 A 
ATOM     24  C   UNL     1      -3.761   2.794 126.976  0.00  0.00    +0.000 A 
ATOM     25  C   UNL     1      -4.880   3.526 127.350  0.00  0.00    +0.000 A 
ATOM     26  C   UNL     1      -4.706   4.718 128.045  0.00  0.00    +0.000 A 
BRANCH  24  27
ATOM     27  O   UNL     1      -3.973   1.626 126.305  0.00  0.00    +0.000 OA
ATOM     28  H   UNL     1      -4.651   1.783 125.629  0.00  0.00    +0.000 HD
ENDBRANCH  24  27
ENDBRANCH  20  21
ENDBRANCH  18  20
ENDBRANCH  15  17
BRANCH  15  29
ATOM     29  C   UNL     1      -3.368   6.865 133.575  0.00  0.00    +0.000 C 
BRANCH  29  30
ATOM     30  C   UNL     1      -2.777   8.252 133.742  0.00  0.00    +0.000 A 
ATOM     31  C   UNL     1      -2.665   8.801 134.996  0.00  0.00    +0.000 A 
ATOM     32  C   UNL     1      -2.668  10.149 135.284  0.00  0.00    +0.000 A 
ATOM     33  C   UNL     1      -2.296  10.972 134.270  0.00  0.00    +0.000 A 
ATOM     34  C   UNL     1      -2.055  10.426 133.008  0.00  0.00    +0.000 A 
ATOM     35  C   UNL     1      -2.363   9.078 132.721  0.00  0.00    +0.000 A 
BRANCH  33  36
ATOM     36  O   UNL     1      -2.128  12.296 134.514  0.00  0.00    +0.000 OA
ATOM     37  H   UNL     1      -1.183  12.445 134.700  0.00  0.00    +0.000 HD
ENDBRANCH  33  36
ENDBRANCH  29  30
ENDBRANCH  15  29
ENDBRANCH  11  15
ENDBRANCH  10  13
BRANCH  10  38
ATOM     38  C   UNL     1      -8.070   6.009 135.557  0.00  0.00    +0.000 C 
BRANCH  38  39
ATOM     39  C   UNL     1      -7.928   6.552 136.957  0.00  0.00    +0.000 A 
ATOM     40  C   UNL     1      -6.968   6.048 137.868  0.00  0.00    +0.000 A 
ATOM     41  C   UNL     1      -6.602   6.794 138.992  0.00  0.00    +0.000 A 
ATOM     42  C   UNL     1      -7.313   7.943 139.310  0.00  0.00    +0.000 A 
ATOM     43  C   UNL     1      -8.375   8.355 138.501  0.00  0.00    +0.000 A 
ATOM     44  C   UNL     1      -8.652   7.696 137.303  0.00  0.00    +0.000 A 
ENDBRANCH  38  39
ENDBRANCH  10  38
ENDBRANCH   6  10
ENDBRANCH   5   8
BRANCH   5  45
ATOM     45  C   UNL     1      -7.842   3.094 130.963  0.00  0.00    +0.000 C 
BRANCH  45  46
ATOM     46  C   UNL     1      -9.222   3.061 130.359  0.00  0.00    +0.000 C 
BRANCH  46  47
ATOM     47  C   UNL     1     -10.067   4.273 130.542  0.00  0.00    +0.000 C 
ATOM     48  N   UNL     1      -9.546   5.274 131.295  0.00  0.00    +0.000 N 
ATOM     49  O   UNL     1     -11.206   4.337 130.094  0.00  0.00    +0.000 OA
ATOM     50  H   UNL     1      -8.630   5.254 131.715  0.00  0.00    +0.000 HD
ATOM     51  H   UNL     1     -10.134   6.075 131.463  0.00  0.00    +0.000 HD
ENDBRANCH  46  47
ENDBRANCH  45  46
ENDBRANCH   5  45
ENDBRANCH   1   5
BRANCH   3  52
ATOM     52  C   UNL     1      -4.366   0.183 131.967  0.00  0.00    +0.000 C 
BRANCH  52  53
ATOM     53  C   UNL     1      -4.349  -0.099 130.429  0.00  0.00    +0.000 C 
ATOM     54  O   UNL     1      -3.782   0.729 129.709  0.00  0.00    +0.000 OA
ATOM     55  N   UNL     1      -4.978  -1.245 129.922  0.00  0.00    +0.000 N 
ATOM     56  H   UNL     1      -5.664  -1.758 130.470  0.00  0.00    +0.000 HD
BRANCH  55  57
ATOM     57  C   UNL     1      -4.840  -1.723 128.492  0.00  0.00    +0.000 C 
BRANCH  57  58
ATOM     58  C   UNL     1      -6.017  -1.248 127.516  0.00  0.00    +0.000 C 
ATOM     59  O   UNL     1      -5.796  -0.295 126.762  0.00  0.00    +0.000 OA
ATOM     60  N   UNL     1      -7.171  -2.035 127.369  0.00  0.00    +0.000 N 
ATOM     61  C   UNL     1      -8.019  -2.623 128.394  0.00  0.00    +0.000 C 
ATOM     62  C   UNL     1      -8.612  -3.816 127.683  0.00  0.00    +0.000 C 
ATOM     63  C   UNL     1      -8.974  -3.239 126.329  0.00  0.00    +0.000 C 
ATOM     64  C   UNL     1      -7.948  -2.097 126.103  0.00  0.00    +0.000 C 
BRANCH  64  65
ATOM     65  C   UNL     1      -8.837  -0.873 125.839  0.00  0.00    +0.000 C 
ATOM     66  O   UNL     1     -10.060  -0.939 125.946  0.00  0.00    +0.000 OA
ATOM     67  N   UNL     1      -8.180   0.251 125.347  0.00  0.00    +0.000 N 
ATOM     68  H   UNL     1      -7.247   0.142 124.992  0.00  0.00    +0.000 HD
BRANCH  67  69
ATOM     69  C   UNL     1      -8.848   1.564 125.230  0.00  0.00    +0.000 C 
BRANCH  69  70
ATOM     70  C   UNL     1      -9.753   1.731 123.974  0.00  0.00    +0.000 C 
ATOM     71  N   UNL     1     -11.095   1.509 124.095  0.00  0.00    +0.000 N 
ATOM     72  O   UNL     1      -9.310   2.034 122.867  0.00  0.00    +0.000 OA
ATOM     73  H   UNL     1     -11.582   1.254 124.934  0.00  0.00    +0.000 HD
ATOM     74  H   UNL     1     -11.649   1.607 123.253  0.00  0.00    +0.000 HD
ENDBRANCH  69  70
BRANCH  69  75
ATOM     75  C   UNL     1      -7.814   2.716 125.212  0.00  0.00    +0.000 C 
BRANCH  75  76
ATOM     76  C   UNL     1      -6.587   2.384 124.369  0.00  0.00    +0.000 C 
BRANCH  76  77
ATOM     77  C   UNL     1      -5.916   3.558 123.717  0.00  0.00    +0.000 C 
BRANCH  77  78
ATOM     78  N   UNL     1      -6.319   3.572 122.308  0.00  0.00    +0.000 NA
ATOM     79  C   UNL     1      -5.550   4.207 121.504  0.00  0.00    +0.000 C 
ATOM     80  N   UNL     1      -4.410   4.838 121.828  0.00  0.00    +0.000 N 
ATOM     81  N   UNL     1      -5.866   4.305 120.202  0.00  0.00    +0.000 N 
ATOM     82  H   UNL     1      -4.104   4.825 122.789  0.00  0.00    +0.000 HD
ATOM     83  H   UNL     1      -3.816   5.288 121.157  0.00  0.00    +0.000 HD
ATOM     84  H   UNL     1      -6.702   3.822 119.899  0.00  0.00    +0.000 HD
ATOM     85  H   UNL     1      -5.266   4.721 119.512  0.00  0.00    +0.000 HD
ENDBRANCH  77  78
ENDBRANCH  76  77
ENDBRANCH  75  76
ENDBRANCH  69  75
ENDBRANCH  67  69
ENDBRANCH  64  65
ENDBRANCH  57  58
BRANCH  57  86
ATOM     86  C   UNL     1      -4.684  -3.240 128.501  0.00  0.00    +0.000 C 
BRANCH  86  87
ATOM     87  C   UNL     1      -4.397  -3.828 129.861  0.00  0.00    +0.000 C 
BRANCH  87  88
ATOM     88  C   UNL     1      -5.557  -4.599 130.417  0.00  0.00    +0.000 C 
BRANCH  88  89
ATOM     89  N   UNL     1      -5.156  -5.040 131.748  0.00  0.00    +0.000 NA
ATOM     90  C   UNL     1      -5.849  -4.578 132.722  0.00  0.00    +0.000 C 
ATOM     91  N   UNL     1      -6.894  -3.741 132.628  0.00  0.00    +0.000 N 
ATOM     92  N   UNL     1      -5.512  -4.889 133.983  0.00  0.00    +0.000 N 
ATOM     93  H   UNL     1      -7.210  -3.443 131.717  0.00  0.00    +0.000 HD
ATOM     94  H   UNL     1      -7.436  -3.449 133.420  0.00  0.00    +0.000 HD
ATOM     95  H   UNL     1      -4.790  -5.591 134.099  0.00  0.00    +0.000 HD
ATOM     96  H   UNL     1      -6.096  -4.680 134.774  0.00  0.00    +0.000 HD
ENDBRANCH  88  89
ENDBRANCH  87  88
ENDBRANCH  86  87
ENDBRANCH  57  86
ENDBRANCH  55  57
ENDBRANCH  52  53
BRANCH  52  97
ATOM     97  C   UNL     1      -4.633  -1.184 132.577  0.00  0.00    +0.000 C 
BRANCH  97  98
ATOM     98  C   UNL     1      -3.494  -1.814 133.323  0.00  0.00    +0.000 C 
ATOM     99  N   UNL     1      -2.268  -1.781 132.736  0.00  0.00    +0.000 N 
ATOM    100  O   UNL     1      -3.646  -2.374 134.403  0.00  0.00    +0.000 OA
ATOM    101  H   UNL     1      -2.086  -0.933 132.194  0.00  0.00    +0.000 HD
ATOM    102  H   UNL     1      -1.570  -1.706 133.475  0.00  0.00    +0.000 HD
ENDBRANCH  97  98
ENDBRANCH  52  97
ENDBRANCH   3  52
TORSDOF 34
ENDMDL
MODEL 9
REMARK VINA RESULT:      -8.3      2.369      4.052
REMARK  Name = CHEMBL269012
REMARK  35 active torsions:
REMARK  status: ('A' for Active; 'I' for Inactive)
REMARK    1  A    between atoms: C_1  and  N_2
REMARK    2  A    between atoms: N_2  and  C_13
REMARK    3  A    between atoms: C_3  and  C_5
REMARK    4  A    between atoms: C_5  and  C_6
REMARK    5  A    between atoms: C_9  and  O_10
REMARK    6  A    between atoms: C_13  and  C_14
REMARK    7  A    between atoms: C_13  and  C_22
REMARK    8  A    between atoms: C_14  and  C_15
REMARK    9  A    between atoms: C_18  and  O_19
REMARK   10  A    between atoms: N_24  and  C_25
REMARK   11  A    between atoms: C_25  and  C_26
REMARK   12  A    between atoms: C_25  and  C_33
REMARK   13  A    between atoms: C_26  and  C_27
REMARK   14  A    between atoms: N_35  and  C_36
REMARK   15  A    between atoms: C_36  and  C_37
REMARK   16  A    between atoms: C_36  and  C_42
REMARK   17  A    between atoms: C_37  and  C_38
REMARK   18  A    between atoms: C_38  and  C_39
REMARK   19  A    between atoms: N_44  and  C_45
REMARK   20  A    between atoms: C_45  and  C_46
REMARK   21  A    between atoms: C_45  and  C_50
REMARK   22  A    between atoms: C_46  and  C_47
REMARK   23  A    between atoms: N_52  and  C_53
REMARK   24  A    between atoms: C_53  and  C_54
REMARK   25  A    between atoms: C_53  and  C_61
REMARK   26  A    between atoms: C_54  and  C_55
REMARK   27  A    between atoms: C_55  and  C_56
REMARK   28  A    between atoms: C_56  and  N_57
REMARK   29  A    between atoms: C_67  and  C_68
REMARK   30  A    between atoms: N_70  and  C_71
REMARK   31  A    between atoms: C_71  and  C_72
REMARK   32  A    between atoms: C_71  and  C_79
REMARK   33  A    between atoms: C_72  and  C_73
REMARK   34  A    between atoms: C_73  and  C_74
REMARK   35  A    between atoms: C_74  and  N_75
REMARK                            x       y       z     vdW  Elec       q    Type
REMARK                         _______ _______ _______ _____ _____    ______ ____
ROOT
ATOM      1  C   UNL     1      -5.834   4.212 126.334  0.00  0.00    +0.000 C 
ATOM      2  O   UNL     1      -6.488   5.219 126.050  0.00  0.00    +0.000 OA
ATOM      3  N   UNL     1      -6.396   2.950 126.450  0.00  0.00    +0.000 N 
ATOM      4  H   UNL     1      -5.882   2.212 126.932  0.00  0.00    +0.000 HD
ENDROOT
BRANCH   1   5
ATOM      5  C   UNL     1      -4.382   4.515 126.722  0.00  0.00    +0.000 C 
BRANCH   5   8
ATOM      6  C   UNL     1      -3.481   6.163 128.464  0.00  0.00    +0.000 C 
ATOM      7  O   UNL     1      -2.631   6.608 127.690  0.00  0.00    +0.000 OA
ATOM      8  N   UNL     1      -4.410   5.221 128.054  0.00  0.00    +0.000 N 
ATOM      9  H   UNL     1      -5.195   4.966 128.653  0.00  0.00    +0.000 HD
BRANCH   6  10
ATOM     10  C   UNL     1      -3.512   6.658 129.933  0.00  0.00    +0.000 C 
BRANCH  10  13
ATOM     11  C   UNL     1      -5.892   6.428 130.871  0.00  0.00    +0.000 C 
ATOM     12  O   UNL     1      -6.239   7.602 130.677  0.00  0.00    +0.000 OA
ATOM     13  N   UNL     1      -4.631   5.951 130.652  0.00  0.00    +0.000 N 
ATOM     14  H   UNL     1      -4.364   5.085 131.126  0.00  0.00    +0.000 HD
BRANCH  11  15
ATOM     15  C   UNL     1      -6.983   5.672 131.541  0.00  0.00    +0.000 C 
BRANCH  15  17
ATOM     16  C   UNL     1      -9.395   6.342 131.109  0.00  0.00    +0.000 C 
ATOM     17  N   UNL     1      -8.144   5.638 130.660  0.00  0.00    +0.000 N 
ATOM     18  C   UNL     1      -7.964   4.639 129.696  0.00  0.00    +0.000 C 
ATOM     19  O   UNL     1      -6.827   4.398 129.276  0.00  0.00    +0.000 OA
BRANCH  18  20
ATOM     20  C   UNL     1      -9.127   3.721 129.331  0.00  0.00    +0.000 C 
BRANCH  20  21
ATOM     21  C   UNL     1      -9.148   2.494 130.194  0.00  0.00    +0.000 A 
ATOM     22  C   UNL     1      -8.397   1.403 129.782  0.00  0.00    +0.000 A 
ATOM     23  C   UNL     1      -8.341   0.268 130.575  0.00  0.00    +0.000 A 
ATOM     24  C   UNL     1      -9.039   0.236 131.782  0.00  0.00    +0.000 A 
ATOM     25  C   UNL     1      -9.803   1.316 132.205  0.00  0.00    +0.000 A 
ATOM     26  C   UNL     1      -9.867   2.452 131.407  0.00  0.00    +0.000 A 
BRANCH  24  27
ATOM     27  O   UNL     1      -8.993  -0.855 132.597  0.00  0.00    +0.000 OA
ATOM     28  H   UNL     1      -9.533  -0.671 133.382  0.00  0.00    +0.000 HD
ENDBRANCH  24  27
ENDBRANCH  20  21
ENDBRANCH  18  20
ENDBRANCH  15  17
BRANCH  15  29
ATOM     29  C   UNL     1      -7.203   6.107 133.101  0.00  0.00    +0.000 C 
BRANCH  29  30
ATOM     30  C   UNL     1      -6.277   5.622 134.200  0.00  0.00    +0.000 A 
ATOM     31  C   UNL     1      -4.977   6.064 134.244  0.00  0.00    +0.000 A 
ATOM     32  C   UNL     1      -3.915   5.375 134.787  0.00  0.00    +0.000 A 
ATOM     33  C   UNL     1      -4.229   4.445 135.726  0.00  0.00    +0.000 A 
ATOM     34  C   UNL     1      -5.573   4.174 135.988  0.00  0.00    +0.000 A 
ATOM     35  C   UNL     1      -6.600   4.707 135.178  0.00  0.00    +0.000 A 
BRANCH  33  36
ATOM     36  O   UNL     1      -3.235   3.832 136.416  0.00  0.00    +0.000 OA
ATOM     37  H   UNL     1      -3.069   2.969 135.993  0.00  0.00    +0.000 HD
ENDBRANCH  33  36
ENDBRANCH  29  30
ENDBRANCH  15  29
ENDBRANCH  11  15
ENDBRANCH  10  13
BRANCH  10  38
ATOM     38  C   UNL     1      -2.098   6.400 130.477  0.00  0.00    +0.000 C 
BRANCH  38  39
ATOM     39  C   UNL     1      -1.739   7.065 131.783  0.00  0.00    +0.000 A 
ATOM     40  C   UNL     1      -0.536   6.777 132.471  0.00  0.00    +0.000 A 
ATOM     41  C   UNL     1      -0.054   7.652 133.448  0.00  0.00    +0.000 A 
ATOM     42  C   UNL     1      -0.850   8.708 133.870  0.00  0.00    +0.000 A 
ATOM     43  C   UNL     1      -2.116   8.898 133.309  0.00  0.00    +0.000 A 
ATOM     44  C   UNL     1      -2.542   8.116 132.236  0.00  0.00    +0.000 A 
ENDBRANCH  38  39
ENDBRANCH  10  38
ENDBRANCH   6  10
ENDBRANCH   5   8
BRANCH   5  45
ATOM     45  C   UNL     1      -3.786   3.124 126.873  0.00  0.00    +0.000 C 
BRANCH  45  46
ATOM     46  C   UNL     1      -3.090   2.960 128.199  0.00  0.00    +0.000 C 
BRANCH  46  47
ATOM     47  C   UNL     1      -3.940   2.593 129.365  0.00  0.00    +0.000 C 
ATOM     48  N   UNL     1      -4.921   1.682 129.145  0.00  0.00    +0.000 N 
ATOM     49  O   UNL     1      -3.808   3.138 130.455  0.00  0.00    +0.000 OA
ATOM     50  H   UNL     1      -5.093   1.233 128.259  0.00  0.00    +0.000 HD
ATOM     51  H   UNL     1      -5.530   1.468 129.919  0.00  0.00    +0.000 HD
ENDBRANCH  46  47
ENDBRANCH  45  46
ENDBRANCH   5  45
ENDBRANCH   1   5
BRANCH   3  52
ATOM     52  C   UNL     1      -7.802   2.510 126.025  0.00  0.00    +0.000 C 
BRANCH  52  53
ATOM     53  C   UNL     1      -7.939   0.955 126.105  0.00  0.00    +0.000 C 
ATOM     54  O   UNL     1      -8.999   0.460 125.710  0.00  0.00    +0.000 OA
ATOM     55  N   UNL     1      -6.888   0.187 126.628  0.00  0.00    +0.000 N 
ATOM     56  H   UNL     1      -6.157   0.608 127.196  0.00  0.00    +0.000 HD
BRANCH  55  57
ATOM     57  C   UNL     1      -6.828  -1.324 126.556  0.00  0.00    +0.000 C 
BRANCH  57  58
ATOM     58  C   UNL     1      -7.044  -2.067 127.958  0.00  0.00    +0.000 C 
ATOM     59  O   UNL     1      -8.188  -2.427 128.253  0.00  0.00    +0.000 OA
ATOM     60  N   UNL     1      -5.935  -2.489 128.708  0.00  0.00    +0.000 N 
ATOM     61  C   UNL     1      -4.742  -1.748 129.084  0.00  0.00    +0.000 C 
ATOM     62  C   UNL     1      -3.715  -2.842 129.251  0.00  0.00    +0.000 C 
ATOM     63  C   UNL     1      -4.488  -3.898 130.015  0.00  0.00    +0.000 C 
ATOM     64  C   UNL     1      -5.963  -3.695 129.579  0.00  0.00    +0.000 C 
BRANCH  64  65
ATOM     65  C   UNL     1      -6.702  -3.502 130.912  0.00  0.00    +0.000 C 
ATOM     66  O   UNL     1      -7.791  -2.935 130.959  0.00  0.00    +0.000 OA
ATOM     67  N   UNL     1      -5.996  -3.883 132.049  0.00  0.00    +0.000 N 
ATOM     68  H   UNL     1      -5.008  -4.045 131.968  0.00  0.00    +0.000 HD
BRANCH  67  69
ATOM     69  C   UNL     1      -6.631  -3.950 133.381  0.00  0.00    +0.000 C 
BRANCH  69  70
ATOM     70  C   UNL     1      -6.837  -2.574 134.080  0.00  0.00    +0.000 C 
ATOM     71  N   UNL     1      -6.178  -1.482 133.591  0.00  0.00    +0.000 N 
ATOM     72  O   UNL     1      -7.553  -2.428 135.070  0.00  0.00    +0.000 OA
ATOM     73  H   UNL     1      -5.565  -1.464 132.798  0.00  0.00    +0.000 HD
ATOM     74  H   UNL     1      -6.321  -0.608 134.084  0.00  0.00    +0.000 HD
ENDBRANCH  69  70
BRANCH  69  75
ATOM     75  C   UNL     1      -5.811  -4.841 134.347  0.00  0.00    +0.000 C 
BRANCH  75  76
ATOM     76  C   UNL     1      -4.686  -4.072 135.033  0.00  0.00    +0.000 C 
BRANCH  76  77
ATOM     77  C   UNL     1      -3.304  -4.362 134.525  0.00  0.00    +0.000 C 
BRANCH  77  78
ATOM     78  N   UNL     1      -3.106  -3.573 133.306  0.00  0.00    +0.000 NA
ATOM     79  C   UNL     1      -2.694  -2.371 133.467  0.00  0.00    +0.000 C 
ATOM     80  N   UNL     1      -2.409  -1.781 134.639  0.00  0.00    +0.000 N 
ATOM     81  N   UNL     1      -2.526  -1.565 132.406  0.00  0.00    +0.000 N 
ATOM     82  H   UNL     1      -2.519  -2.312 135.489  0.00  0.00    +0.000 HD
ATOM     83  H   UNL     1      -2.047  -0.849 134.716  0.00  0.00    +0.000 HD
ATOM     84  H   UNL     1      -2.699  -1.969 131.495  0.00  0.00    +0.000 HD
ATOM     85  H   UNL     1      -2.132  -0.642 132.463  0.00  0.00    +0.000 HD
ENDBRANCH  77  78
ENDBRANCH  76  77
ENDBRANCH  75  76
ENDBRANCH  69  75
ENDBRANCH  67  69
ENDBRANCH  64  65
ENDBRANCH  57  58
BRANCH  57  86
ATOM     86  C   UNL     1      -5.514  -1.725 125.894  0.00  0.00    +0.000 C 
BRANCH  86  87
ATOM     87  C   UNL     1      -5.658  -2.226 124.478  0.00  0.00    +0.000 C 
BRANCH  87  88
ATOM     88  C   UNL     1      -7.010  -2.812 124.203  0.00  0.00    +0.000 C 
BRANCH  88  89
ATOM     89  N   UNL     1      -7.746  -1.808 123.442  0.00  0.00    +0.000 NA
ATOM     90  C   UNL     1      -8.979  -2.072 123.216  0.00  0.00    +0.000 C 
ATOM     91  N   UNL     1      -9.645  -3.169 123.612  0.00  0.00    +0.000 N 
ATOM     92  N   UNL     1      -9.713  -1.228 122.475  0.00  0.00    +0.000 N 
ATOM     93  H   UNL     1      -9.167  -3.866 124.164  0.00  0.00    +0.000 HD
ATOM     94  H   UNL     1     -10.626  -3.303 123.453  0.00  0.00    +0.000 HD
ATOM     95  H   UNL     1      -9.282  -0.343 122.234  0.00  0.00    +0.000 HD
ATOM     96  H   UNL     1     -10.712  -1.303 122.386  0.00  0.00    +0.000 HD
ENDBRANCH  88  89
ENDBRANCH  87  88
ENDBRANCH  86  87
ENDBRANCH  57  86
ENDBRANCH  55  57
ENDBRANCH  52  53
BRANCH  52  97
ATOM     97  C   UNL     1      -8.081   2.818 124.562  0.00  0.00    +0.000 C 
BRANCH  97  98
ATOM     98  C   UNL     1      -7.034   2.386 123.579  0.00  0.00    +0.000 C 
ATOM     99  N   UNL     1      -7.105   1.111 123.110  0.00  0.00    +0.000 N 
ATOM    100  O   UNL     1      -6.119   3.122 123.227  0.00  0.00    +0.000 OA
ATOM    101  H   UNL     1      -8.059   0.762 122.990  0.00  0.00    +0.000 HD
ATOM    102  H   UNL     1      -6.766   1.113 122.148  0.00  0.00    +0.000 HD
ENDBRANCH  97  98
ENDBRANCH  52  97
ENDBRANCH   3  52
TORSDOF 34
ENDMDL
