MODEL 1
REMARK VINA RESULT:      -9.8      0.000      0.000
REMARK  Name = CHEMBL2172288
REMARK  29 active torsions:
REMARK  status: ('A' for Active; 'I' for Inactive)
REMARK    1  A    between atoms: C_2  and  C_3
REMARK    2  A    between atoms: C_3  and  C_4
REMARK    3  A    between atoms: C_4  and  C_5
REMARK    4  A    between atoms: N_7  and  C_8
REMARK    5  A    between atoms: C_13  and  C_15
REMARK    6  A    between atoms: C_18  and  N_19
REMARK    7  A    between atoms: C_20  and  C_22
REMARK    8  A    between atoms: C_27  and  C_28
REMARK    9  A    between atoms: N_42  and  C_43
REMARK   10  A    between atoms: C_43  and  C_44
REMARK   11  A    between atoms: N_46  and  C_47
REMARK   12  A    between atoms: C_47  and  C_48
REMARK   13  A    between atoms: C_48  and  O_49
REMARK   14  A    between atoms: O_49  and  C_50
REMARK   15  A    between atoms: C_50  and  C_51
REMARK   16  A    between atoms: C_51  and  O_52
REMARK   17  A    between atoms: O_52  and  C_53
REMARK   18  A    between atoms: C_53  and  C_54
REMARK   19  A    between atoms: C_54  and  O_55
REMARK   20  A    between atoms: O_55  and  C_56
REMARK   21  A    between atoms: C_56  and  C_57
REMARK   22  A    between atoms: C_57  and  N_58
REMARK   23  A    between atoms: N_58  and  C_59
REMARK   24  A    between atoms: C_59  and  N_61
REMARK   25  A    between atoms: N_61  and  C_62
REMARK   26  A    between atoms: C_65  and  C_66
REMARK   27  A    between atoms: C_77  and  O_78
REMARK   28  A    between atoms: C_82  and  C_83
REMARK   29  A    between atoms: C_83  and  O_85
REMARK                            x       y       z     vdW  Elec       q    Type
REMARK                         _______ _______ _______ _____ _____    ______ ____
ROOT
ATOM      1  C   UNL     1      -9.614   3.108 130.934  0.00  0.00    +0.000 A 
ATOM      2  C   UNL     1      -8.295   2.743 130.877  0.00  0.00    +0.000 A 
ATOM      3  N   UNL     1      -8.049   2.195 132.102  0.00  0.00    +0.000 N 
ATOM      4  N   UNL     1      -9.153   2.205 132.866  0.00  0.00    +0.000 NA
ATOM      5  N   UNL     1     -10.123   2.760 132.155  0.00  0.00    +0.000 NA
ENDROOT
BRANCH   3   6
ATOM      6  C   UNL     1      -6.805   1.653 132.600  0.00  0.00    +0.000 C 
BRANCH   6   7
ATOM      7  C   UNL     1      -6.653   1.943 134.081  0.00  0.00    +0.000 C 
BRANCH   7   8
ATOM      8  O   UNL     1      -6.045   0.860 134.760  0.00  0.00    +0.000 OA
BRANCH   8   9
ATOM      9  C   UNL     1      -6.319  -0.350 134.054  0.00  0.00    +0.000 C 
BRANCH   9  10
ATOM     10  C   UNL     1      -6.035  -1.523 134.961  0.00  0.00    +0.000 C 
BRANCH  10  11
ATOM     11  O   UNL     1      -7.256  -2.196 135.254  0.00  0.00    +0.000 OA
BRANCH  11  12
ATOM     12  C   UNL     1      -7.081  -3.598 135.073  0.00  0.00    +0.000 C 
BRANCH  12  13
ATOM     13  C   UNL     1      -6.781  -3.872 133.617  0.00  0.00    +0.000 C 
BRANCH  13  14
ATOM     14  O   UNL     1      -5.707  -4.797 133.521  0.00  0.00    +0.000 OA
BRANCH  14  15
ATOM     15  C   UNL     1      -5.344  -4.952 132.158  0.00  0.00    +0.000 C 
BRANCH  15  16
ATOM     16  C   UNL     1      -6.047  -3.915 131.341  0.00  0.00    +0.000 C 
BRANCH  16  17
ATOM     17  N   UNL     1      -5.125  -3.155 130.521  0.00  0.00    +0.000 N 
ATOM     18  H   UNL     1      -4.618  -3.597 129.770  0.00  0.00    +0.000 HD
BRANCH  17  19
ATOM     19  C   UNL     1      -4.835  -1.862 130.838  0.00  0.00    +0.000 C 
ATOM     20  S   UNL     1      -3.547  -1.523 131.914  0.00  0.00    +0.000 S 
BRANCH  19  21
ATOM     21  N   UNL     1      -5.676  -0.973 130.155  0.00  0.00    +0.000 N 
ATOM     22  H   UNL     1      -6.452  -0.480 130.580  0.00  0.00    +0.000 HD
BRANCH  21  23
ATOM     23  C   UNL     1      -5.384  -0.605 128.857  0.00  0.00    +0.000 A 
ATOM     24  C   UNL     1      -4.900   0.565 128.607  0.00  0.00    +0.000 A 
ATOM     25  C   UNL     1      -5.518   0.975 127.523  0.00  0.00    +0.000 A 
ATOM     26  C   UNL     1      -7.041   0.539 126.559  0.00  0.00    +0.000 A 
ATOM     27  C   UNL     1      -7.233  -0.681 126.310  0.00  0.00    +0.000 A 
ATOM     28  C   UNL     1      -6.117  -1.148 127.782  0.00  0.00    +0.000 A 
BRANCH  26  29
ATOM     29  C   UNL     1      -7.740   1.346 125.108  0.00  0.00    +0.000 A 
ATOM     30  C   UNL     1      -7.121   2.308 124.218  0.00  0.00    +0.000 A 
ATOM     31  C   UNL     1      -7.272   2.565 122.766  0.00  0.00    +0.000 A 
ATOM     32  C   UNL     1      -6.492   3.509 122.160  0.00  0.00    +0.000 A 
ATOM     33  C   UNL     1      -5.476   4.358 122.877  0.00  0.00    +0.000 A 
ATOM     34  O   UNL     1      -4.783   5.210 122.339  0.00  0.00    +0.000 OA
ATOM     35  C   UNL     1      -5.318   4.107 124.291  0.00  0.00    +0.000 A 
ATOM     36  C   UNL     1      -5.951   3.044 124.749  0.00  0.00    +0.000 A 
ATOM     37  O   UNL     1      -5.190   2.274 125.537  0.00  0.00    +0.000 OA
ATOM     38  C   UNL     1      -5.816   1.025 125.498  0.00  0.00    +0.000 A 
ATOM     39  C   UNL     1      -5.386  -0.757 125.360  0.00  0.00    +0.000 A 
ATOM     40  C   UNL     1      -6.322  -2.277 126.123  0.00  0.00    +0.000 A 
ATOM     41  C   UNL     1      -7.815  -2.001 127.410  0.00  0.00    +0.000 A 
ATOM     42  C   UNL     1      -8.294  -0.174 127.814  0.00  0.00    +0.000 A 
ATOM     43  C   UNL     1      -7.383   1.281 126.688  0.00  0.00    +0.000 A 
BRANCH  40  44
ATOM     44  O   UNL     1      -6.365  -3.263 125.175  0.00  0.00    +0.000 OA
ATOM     45  H   UNL     1      -5.670  -2.937 124.552  0.00  0.00    +0.000 HD
ENDBRANCH  40  44
ENDBRANCH  26  29
BRANCH  27  46
ATOM     46  C   UNL     1      -8.533  -1.542 125.320  0.00  0.00    +0.000 C 
ATOM     47  O   UNL     1      -9.676  -1.683 125.730  0.00  0.00    +0.000 OA
BRANCH  46  48
ATOM     48  O   UNL     1      -8.347  -1.881 123.950  0.00  0.00    +0.000 OA
ATOM     49  H   UNL     1      -8.746  -1.327 123.234  0.00  0.00    +0.000 HD
ENDBRANCH  46  48
ENDBRANCH  27  46
ENDBRANCH  21  23
ENDBRANCH  19  21
ENDBRANCH  17  19
ENDBRANCH  16  17
ENDBRANCH  15  16
ENDBRANCH  14  15
ENDBRANCH  13  14
ENDBRANCH  12  13
ENDBRANCH  11  12
ENDBRANCH  10  11
ENDBRANCH   9  10
ENDBRANCH   8   9
ENDBRANCH   7   8
ENDBRANCH   6   7
ENDBRANCH   3   6
BRANCH   1  50
ATOM     50  C   UNL     1     -10.431   3.786 129.916  0.00  0.00    +0.000 C 
BRANCH  50  53
ATOM     51  O   UNL     1     -12.398   6.464 131.654  0.00  0.00    +0.000 OA
ATOM     52  C   UNL     1     -11.598   5.867 130.964  0.00  0.00    +0.000 C 
ATOM     53  N   UNL     1     -11.509   4.543 130.619  0.00  0.00    +0.000 N 
ATOM     54  H   UNL     1     -12.247   4.011 131.041  0.00  0.00    +0.000 HD
BRANCH  52  55
ATOM     55  C   UNL     1     -10.427   6.569 130.644  0.00  0.00    +0.000 C 
BRANCH  55  56
ATOM     56  C   UNL     1      -8.844   6.407 131.918  0.00  0.00    +0.000 C 
BRANCH  56  57
ATOM     57  C   UNL     1      -7.077   6.593 131.324  0.00  0.00    +0.000 C 
ATOM     58  O   UNL     1      -6.678   7.572 130.766  0.00  0.00    +0.000 OA
ATOM     59  N   UNL     1      -5.922   5.974 131.172  0.00  0.00    +0.000 N 
ATOM     60  H   UNL     1      -5.784   5.560 132.057  0.00  0.00    +0.000 HD
BRANCH  59  61
ATOM     61  C   UNL     1      -4.915   6.815 130.214  0.00  0.00    +0.000 C 
ATOM     62  C   UNL     1      -4.469   5.964 128.766  0.00  0.00    +0.000 C 
ATOM     63  C   UNL     1      -4.334   4.347 128.856  0.00  0.00    +0.000 C 
ATOM     64  C   UNL     1      -2.953   3.845 129.754  0.00  0.00    +0.000 C 
ATOM     65  N   UNL     1      -2.606   4.333 131.258  0.00  0.00    +0.000 N 
ATOM     66  C   UNL     1      -3.531   3.728 132.038  0.00  0.00    +0.000 C 
ATOM     67  O   UNL     1      -4.086   2.722 131.383  0.00  0.00    +0.000 OA
ATOM     68  C   UNL     1      -2.622   5.770 131.718  0.00  0.00    +0.000 A 
ATOM     69  C   UNL     1      -1.649   5.865 132.689  0.00  0.00    +0.000 A 
ATOM     70  C   UNL     1      -1.177   7.129 132.848  0.00  0.00    +0.000 A 
ATOM     71  C   UNL     1      -1.802   8.271 132.239  0.00  0.00    +0.000 A 
ATOM     72  C   UNL     1      -2.982   8.245 131.462  0.00  0.00    +0.000 A 
ATOM     73  C   UNL     1      -3.477   6.983 131.194  0.00  0.00    +0.000 A 
BRANCH  66  74
ATOM     74  C   UNL     1      -4.005   4.603 133.749  0.00  0.00    +0.000 A 
ATOM     75  C   UNL     1      -5.171   5.344 134.096  0.00  0.00    +0.000 A 
ATOM     76  C   UNL     1      -5.426   5.831 135.412  0.00  0.00    +0.000 A 
ATOM     77  C   UNL     1      -4.751   5.332 136.520  0.00  0.00    +0.000 A 
ATOM     78  C   UNL     1      -4.026   4.223 136.358  0.00  0.00    +0.000 A 
ATOM     79  C   UNL     1      -3.562   4.074 135.086  0.00  0.00    +0.000 A 
BRANCH  77  80
ATOM     80  N   UNL     1      -4.710   5.980 137.749  0.00  0.00    +0.000 N 
ATOM     81  C   UNL     1      -5.380   5.483 138.870  0.00  0.00    +0.000 C 
ATOM     82  O   UNL     1      -6.133   4.516 138.928  0.00  0.00    +0.000 OA
ATOM     83  H   UNL     1      -4.031   6.721 137.823  0.00  0.00    +0.000 HD
BRANCH  81  84
ATOM     84  C   UNL     1      -5.148   6.176 140.135  0.00  0.00    +0.000 A 
ATOM     85  C   UNL     1      -4.281   5.605 141.066  0.00  0.00    +0.000 A 
ATOM     86  C   UNL     1      -4.170   6.181 142.323  0.00  0.00    +0.000 A 
ATOM     87  C   UNL     1      -4.734   7.428 142.562  0.00  0.00    +0.000 A 
ATOM     88  C   UNL     1      -5.403   8.101 141.541  0.00  0.00    +0.000 A 
ATOM     89  C   UNL     1      -5.734   7.441 140.352  0.00  0.00    +0.000 A 
BRANCH  89  90
ATOM     90  C   UNL     1      -6.652   8.067 139.381  0.00  0.00    +0.000 A 
ATOM     91  C   UNL     1      -6.405   9.350 138.853  0.00  0.00    +0.000 A 
ATOM     92  C   UNL     1      -7.416  10.060 138.203  0.00  0.00    +0.000 A 
ATOM     93  C   UNL     1      -8.600   9.417 137.877  0.00  0.00    +0.000 A 
ATOM     94  C   UNL     1      -8.765   8.072 138.199  0.00  0.00    +0.000 A 
ATOM     95  C   UNL     1      -7.849   7.436 139.034  0.00  0.00    +0.000 A 
ENDBRANCH  89  90
ENDBRANCH  81  84
ENDBRANCH  77  80
ENDBRANCH  66  74
ENDBRANCH  59  61
ENDBRANCH  56  57
ENDBRANCH  55  56
ENDBRANCH  52  55
ENDBRANCH  50  53
ENDBRANCH   1  50
TORSDOF 29
ENDMDL
MODEL 2
REMARK VINA RESULT:      -9.5      1.880      2.665
REMARK  Name = CHEMBL2172288
REMARK  29 active torsions:
REMARK  status: ('A' for Active; 'I' for Inactive)
REMARK    1  A    between atoms: C_2  and  C_3
REMARK    2  A    between atoms: C_3  and  C_4
REMARK    3  A    between atoms: C_4  and  C_5
REMARK    4  A    between atoms: N_7  and  C_8
REMARK    5  A    between atoms: C_13  and  C_15
REMARK    6  A    between atoms: C_18  and  N_19
REMARK    7  A    between atoms: C_20  and  C_22
REMARK    8  A    between atoms: C_27  and  C_28
REMARK    9  A    between atoms: N_42  and  C_43
REMARK   10  A    between atoms: C_43  and  C_44
REMARK   11  A    between atoms: N_46  and  C_47
REMARK   12  A    between atoms: C_47  and  C_48
REMARK   13  A    between atoms: C_48  and  O_49
REMARK   14  A    between atoms: O_49  and  C_50
REMARK   15  A    between atoms: C_50  and  C_51
REMARK   16  A    between atoms: C_51  and  O_52
REMARK   17  A    between atoms: O_52  and  C_53
REMARK   18  A    between atoms: C_53  and  C_54
REMARK   19  A    between atoms: C_54  and  O_55
REMARK   20  A    between atoms: O_55  and  C_56
REMARK   21  A    between atoms: C_56  and  C_57
REMARK   22  A    between atoms: C_57  and  N_58
REMARK   23  A    between atoms: N_58  and  C_59
REMARK   24  A    between atoms: C_59  and  N_61
REMARK   25  A    between atoms: N_61  and  C_62
REMARK   26  A    between atoms: C_65  and  C_66
REMARK   27  A    between atoms: C_77  and  O_78
REMARK   28  A    between atoms: C_82  and  C_83
REMARK   29  A    between atoms: C_83  and  O_85
REMARK                            x       y       z     vdW  Elec       q    Type
REMARK                         _______ _______ _______ _____ _____    ______ ____
ROOT
ATOM      1  C   UNL     1      -9.344   3.071 131.076  0.00  0.00    +0.000 A 
ATOM      2  C   UNL     1      -8.011   2.770 130.979  0.00  0.00    +0.000 A 
ATOM      3  N   UNL     1      -7.697   2.257 132.203  0.00  0.00    +0.000 N 
ATOM      4  N   UNL     1      -8.773   2.229 133.006  0.00  0.00    +0.000 NA
ATOM      5  N   UNL     1      -9.793   2.723 132.320  0.00  0.00    +0.000 NA
ENDROOT
BRANCH   3   6
ATOM      6  C   UNL     1      -6.411   1.786 132.666  0.00  0.00    +0.000 C 
BRANCH   6   7
ATOM      7  C   UNL     1      -6.344   1.825 134.181  0.00  0.00    +0.000 C 
BRANCH   7   8
ATOM      8  O   UNL     1      -5.751   0.649 134.702  0.00  0.00    +0.000 OA
BRANCH   8   9
ATOM      9  C   UNL     1      -6.324  -0.490 134.059  0.00  0.00    +0.000 C 
BRANCH   9  10
ATOM     10  C   UNL     1      -6.044  -1.717 134.894  0.00  0.00    +0.000 C 
BRANCH  10  11
ATOM     11  O   UNL     1      -7.275  -2.353 135.221  0.00  0.00    +0.000 OA
BRANCH  11  12
ATOM     12  C   UNL     1      -7.173  -3.749 134.958  0.00  0.00    +0.000 C 
BRANCH  12  13
ATOM     13  C   UNL     1      -6.768  -3.950 133.516  0.00  0.00    +0.000 C 
BRANCH  13  14
ATOM     14  O   UNL     1      -5.712  -4.898 133.449  0.00  0.00    +0.000 OA
BRANCH  14  15
ATOM     15  C   UNL     1      -5.295  -5.040 132.100  0.00  0.00    +0.000 C 
BRANCH  15  16
ATOM     16  C   UNL     1      -5.986  -4.011 131.262  0.00  0.00    +0.000 C 
BRANCH  16  17
ATOM     17  N   UNL     1      -5.047  -3.216 130.498  0.00  0.00    +0.000 N 
ATOM     18  H   UNL     1      -4.486  -3.636 129.772  0.00  0.00    +0.000 HD
BRANCH  17  19
ATOM     19  C   UNL     1      -4.816  -1.917 130.837  0.00  0.00    +0.000 C 
ATOM     20  S   UNL     1      -3.557  -1.540 131.934  0.00  0.00    +0.000 S 
BRANCH  19  21
ATOM     21  N   UNL     1      -5.687  -1.054 130.157  0.00  0.00    +0.000 N 
ATOM     22  H   UNL     1      -6.484  -0.595 130.582  0.00  0.00    +0.000 HD
BRANCH  21  23
ATOM     23  C   UNL     1      -5.402  -0.665 128.863  0.00  0.00    +0.000 A 
ATOM     24  C   UNL     1      -4.930   0.513 128.629  0.00  0.00    +0.000 A 
ATOM     25  C   UNL     1      -5.555   0.934 127.554  0.00  0.00    +0.000 A 
ATOM     26  C   UNL     1      -7.077   0.498 126.588  0.00  0.00    +0.000 A 
ATOM     27  C   UNL     1      -7.259  -0.720 126.321  0.00  0.00    +0.000 A 
ATOM     28  C   UNL     1      -6.135  -1.199 127.783  0.00  0.00    +0.000 A 
BRANCH  26  29
ATOM     29  C   UNL     1      -7.788   1.320 125.151  0.00  0.00    +0.000 A 
ATOM     30  C   UNL     1      -7.172   2.280 124.258  0.00  0.00    +0.000 A 
ATOM     31  C   UNL     1      -7.340   2.547 122.809  0.00  0.00    +0.000 A 
ATOM     32  C   UNL     1      -6.559   3.486 122.197  0.00  0.00    +0.000 A 
ATOM     33  C   UNL     1      -5.524   4.320 122.904  0.00  0.00    +0.000 A 
ATOM     34  O   UNL     1      -4.830   5.168 122.360  0.00  0.00    +0.000 OA
ATOM     35  C   UNL     1      -5.348   4.059 124.314  0.00  0.00    +0.000 A 
ATOM     36  C   UNL     1      -5.987   3.001 124.775  0.00  0.00    +0.000 A 
ATOM     37  O   UNL     1      -5.222   2.219 125.549  0.00  0.00    +0.000 OA
ATOM     38  C   UNL     1      -5.863   0.977 125.512  0.00  0.00    +0.000 A 
ATOM     39  C   UNL     1      -5.453  -0.809 125.358  0.00  0.00    +0.000 A 
ATOM     40  C   UNL     1      -6.394  -2.323 126.127  0.00  0.00    +0.000 A 
ATOM     41  C   UNL     1      -7.866  -2.038 127.436  0.00  0.00    +0.000 A 
ATOM     42  C   UNL     1      -8.320  -0.209 127.857  0.00  0.00    +0.000 A 
ATOM     43  C   UNL     1      -7.410   1.243 126.726  0.00  0.00    +0.000 A 
BRANCH  40  44
ATOM     44  O   UNL     1      -6.462  -3.303 125.175  0.00  0.00    +0.000 OA
ATOM     45  H   UNL     1      -5.772  -2.981 124.544  0.00  0.00    +0.000 HD
ENDBRANCH  40  44
ENDBRANCH  26  29
BRANCH  27  46
ATOM     46  C   UNL     1      -8.554  -1.578 125.323  0.00  0.00    +0.000 C 
ATOM     47  O   UNL     1      -9.686  -1.764 125.747  0.00  0.00    +0.000 OA
BRANCH  46  48
ATOM     48  O   UNL     1      -8.386  -1.860 123.938  0.00  0.00    +0.000 OA
ATOM     49  H   UNL     1      -7.608  -1.503 123.441  0.00  0.00    +0.000 HD
ENDBRANCH  46  48
ENDBRANCH  27  46
ENDBRANCH  21  23
ENDBRANCH  19  21
ENDBRANCH  17  19
ENDBRANCH  16  17
ENDBRANCH  15  16
ENDBRANCH  14  15
ENDBRANCH  13  14
ENDBRANCH  12  13
ENDBRANCH  11  12
ENDBRANCH  10  11
ENDBRANCH   9  10
ENDBRANCH   8   9
ENDBRANCH   7   8
ENDBRANCH   6   7
ENDBRANCH   3   6
BRANCH   1  50
ATOM     50  C   UNL     1     -10.227   3.690 130.076  0.00  0.00    +0.000 C 
BRANCH  50  53
ATOM     51  O   UNL     1     -12.116   6.298 131.997  0.00  0.00    +0.000 OA
ATOM     52  C   UNL     1     -11.318   5.724 131.286  0.00  0.00    +0.000 C 
ATOM     53  N   UNL     1     -11.293   4.440 130.803  0.00  0.00    +0.000 N 
ATOM     54  H   UNL     1     -12.085   3.918 131.129  0.00  0.00    +0.000 HD
BRANCH  52  55
ATOM     55  C   UNL     1     -10.090   6.374 131.101  0.00  0.00    +0.000 C 
BRANCH  55  56
ATOM     56  C   UNL     1      -8.679   6.169 132.558  0.00  0.00    +0.000 C 
BRANCH  56  57
ATOM     57  C   UNL     1      -6.851   6.367 132.195  0.00  0.00    +0.000 C 
ATOM     58  O   UNL     1      -6.438   6.844 131.180  0.00  0.00    +0.000 OA
ATOM     59  N   UNL     1      -5.633   6.093 132.622  0.00  0.00    +0.000 N 
ATOM     60  H   UNL     1      -5.672   6.370 133.568  0.00  0.00    +0.000 HD
BRANCH  59  61
ATOM     61  C   UNL     1      -4.521   6.366 131.471  0.00  0.00    +0.000 C 
ATOM     62  C   UNL     1      -3.811   4.911 130.838  0.00  0.00    +0.000 C 
ATOM     63  C   UNL     1      -3.624   3.661 131.858  0.00  0.00    +0.000 C 
ATOM     64  C   UNL     1      -2.387   3.935 133.025  0.00  0.00    +0.000 C 
ATOM     65  N   UNL     1      -2.309   5.226 133.998  0.00  0.00    +0.000 N 
ATOM     66  C   UNL     1      -3.322   5.055 134.878  0.00  0.00    +0.000 C 
ATOM     67  O   UNL     1      -3.721   3.794 134.868  0.00  0.00    +0.000 OA
ATOM     68  C   UNL     1      -2.460   6.655 133.539  0.00  0.00    +0.000 A 
ATOM     69  C   UNL     1      -1.661   7.405 134.376  0.00  0.00    +0.000 A 
ATOM     70  C   UNL     1      -1.275   8.586 133.825  0.00  0.00    +0.000 A 
ATOM     71  C   UNL     1      -1.840   9.093 132.606  0.00  0.00    +0.000 A 
ATOM     72  C   UNL     1      -2.877   8.484 131.864  0.00  0.00    +0.000 A 
ATOM     73  C   UNL     1      -3.269   7.239 132.322  0.00  0.00    +0.000 A 
BRANCH  66  74
ATOM     74  C   UNL     1      -4.103   6.673 135.707  0.00  0.00    +0.000 A 
ATOM     75  C   UNL     1      -5.427   6.900 136.183  0.00  0.00    +0.000 A 
ATOM     76  C   UNL     1      -5.822   8.092 136.860  0.00  0.00    +0.000 A 
ATOM     77  C   UNL     1      -4.890   8.963 137.412  0.00  0.00    +0.000 A 
ATOM     78  C   UNL     1      -3.626   8.543 137.504  0.00  0.00    +0.000 A 
ATOM     79  C   UNL     1      -3.301   7.628 136.549  0.00  0.00    +0.000 A 
BRANCH  77  80
ATOM     80  N   UNL     1      -5.184  10.271 137.776  0.00  0.00    +0.000 N 
ATOM     81  C   UNL     1      -4.939  10.754 139.063  0.00  0.00    +0.000 C 
ATOM     82  O   UNL     1      -4.539  10.125 140.039  0.00  0.00    +0.000 OA
ATOM     83  H   UNL     1      -5.415  10.889 137.014  0.00  0.00    +0.000 HD
BRANCH  81  84
ATOM     84  C   UNL     1      -5.162  12.181 139.284  0.00  0.00    +0.000 A 
ATOM     85  C   UNL     1      -4.175  13.085 138.890  0.00  0.00    +0.000 A 
ATOM     86  C   UNL     1      -4.315  14.423 139.227  0.00  0.00    +0.000 A 
ATOM     87  C   UNL     1      -5.522  14.882 139.741  0.00  0.00    +0.000 A 
ATOM     88  C   UNL     1      -6.590  14.001 139.910  0.00  0.00    +0.000 A 
ATOM     89  C   UNL     1      -6.396  12.620 139.808  0.00  0.00    +0.000 A 
BRANCH  89  90
ATOM     90  C   UNL     1      -7.456  11.683 140.230  0.00  0.00    +0.000 A 
ATOM     91  C   UNL     1      -8.437  11.225 139.328  0.00  0.00    +0.000 A 
ATOM     92  C   UNL     1      -9.602  10.613 139.793  0.00  0.00    +0.000 A 
ATOM     93  C   UNL     1      -9.697  10.252 141.129  0.00  0.00    +0.000 A 
ATOM     94  C   UNL     1      -8.629  10.501 141.987  0.00  0.00    +0.000 A 
ATOM     95  C   UNL     1      -7.568  11.302 141.569  0.00  0.00    +0.000 A 
ENDBRANCH  89  90
ENDBRANCH  81  84
ENDBRANCH  77  80
ENDBRANCH  66  74
ENDBRANCH  59  61
ENDBRANCH  56  57
ENDBRANCH  55  56
ENDBRANCH  52  55
ENDBRANCH  50  53
ENDBRANCH   1  50
TORSDOF 29
ENDMDL
MODEL 3
REMARK VINA RESULT:      -9.5      1.988      2.912
REMARK  Name = CHEMBL2172288
REMARK  29 active torsions:
REMARK  status: ('A' for Active; 'I' for Inactive)
REMARK    1  A    between atoms: C_2  and  C_3
REMARK    2  A    between atoms: C_3  and  C_4
REMARK    3  A    between atoms: C_4  and  C_5
REMARK    4  A    between atoms: N_7  and  C_8
REMARK    5  A    between atoms: C_13  and  C_15
REMARK    6  A    between atoms: C_18  and  N_19
REMARK    7  A    between atoms: C_20  and  C_22
REMARK    8  A    between atoms: C_27  and  C_28
REMARK    9  A    between atoms: N_42  and  C_43
REMARK   10  A    between atoms: C_43  and  C_44
REMARK   11  A    between atoms: N_46  and  C_47
REMARK   12  A    between atoms: C_47  and  C_48
REMARK   13  A    between atoms: C_48  and  O_49
REMARK   14  A    between atoms: O_49  and  C_50
REMARK   15  A    between atoms: C_50  and  C_51
REMARK   16  A    between atoms: C_51  and  O_52
REMARK   17  A    between atoms: O_52  and  C_53
REMARK   18  A    between atoms: C_53  and  C_54
REMARK   19  A    between atoms: C_54  and  O_55
REMARK   20  A    between atoms: O_55  and  C_56
REMARK   21  A    between atoms: C_56  and  C_57
REMARK   22  A    between atoms: C_57  and  N_58
REMARK   23  A    between atoms: N_58  and  C_59
REMARK   24  A    between atoms: C_59  and  N_61
REMARK   25  A    between atoms: N_61  and  C_62
REMARK   26  A    between atoms: C_65  and  C_66
REMARK   27  A    between atoms: C_77  and  O_78
REMARK   28  A    between atoms: C_82  and  C_83
REMARK   29  A    between atoms: C_83  and  O_85
REMARK                            x       y       z     vdW  Elec       q    Type
REMARK                         _______ _______ _______ _____ _____    ______ ____
ROOT
ATOM      1  C   UNL     1      -9.385   3.036 131.005  0.00  0.00    +0.000 A 
ATOM      2  C   UNL     1      -8.051   2.727 130.987  0.00  0.00    +0.000 A 
ATOM      3  N   UNL     1      -7.846   2.075 132.168  0.00  0.00    +0.000 N 
ATOM      4  N   UNL     1      -8.987   1.974 132.869  0.00  0.00    +0.000 NA
ATOM      5  N   UNL     1      -9.942   2.558 132.159  0.00  0.00    +0.000 NA
ENDROOT
BRANCH   3   6
ATOM      6  C   UNL     1      -6.608   1.535 132.682  0.00  0.00    +0.000 C 
BRANCH   6   7
ATOM      7  C   UNL     1      -6.373   2.003 134.105  0.00  0.00    +0.000 C 
BRANCH   7   8
ATOM      8  O   UNL     1      -5.817   0.973 134.903  0.00  0.00    +0.000 OA
BRANCH   8   9
ATOM      9  C   UNL     1      -5.983  -0.278 134.236  0.00  0.00    +0.000 C 
BRANCH   9  10
ATOM     10  C   UNL     1      -5.800  -1.395 135.236  0.00  0.00    +0.000 C 
BRANCH  10  11
ATOM     11  O   UNL     1      -7.063  -1.998 135.501  0.00  0.00    +0.000 OA
BRANCH  11  12
ATOM     12  C   UNL     1      -6.910  -3.413 135.561  0.00  0.00    +0.000 C 
BRANCH  12  13
ATOM     13  C   UNL     1      -6.665  -3.941 134.166  0.00  0.00    +0.000 C 
BRANCH  13  14
ATOM     14  O   UNL     1      -5.439  -4.658 134.140  0.00  0.00    +0.000 OA
BRANCH  14  15
ATOM     15  C   UNL     1      -5.183  -5.101 132.816  0.00  0.00    +0.000 C 
BRANCH  15  16
ATOM     16  C   UNL     1      -6.105  -4.392 131.876  0.00  0.00    +0.000 C 
BRANCH  16  17
ATOM     17  N   UNL     1      -5.658  -4.493 130.501  0.00  0.00    +0.000 N 
ATOM     18  H   UNL     1      -5.693  -5.373 130.010  0.00  0.00    +0.000 HD
BRANCH  17  19
ATOM     19  C   UNL     1      -5.062  -3.427 129.897  0.00  0.00    +0.000 C 
ATOM     20  S   UNL     1      -3.358  -3.270 129.946  0.00  0.00    +0.000 S 
BRANCH  19  21
ATOM     21  N   UNL     1      -6.010  -2.607 129.268  0.00  0.00    +0.000 N 
ATOM     22  H   UNL     1      -6.905  -2.357 129.671  0.00  0.00    +0.000 HD
BRANCH  21  23
ATOM     23  C   UNL     1      -5.693  -1.964 128.088  0.00  0.00    +0.000 A 
ATOM     24  C   UNL     1      -5.250  -0.752 128.108  0.00  0.00    +0.000 A 
ATOM     25  C   UNL     1      -5.851  -0.143 127.112  0.00  0.00    +0.000 A 
ATOM     26  C   UNL     1      -7.324  -0.418 126.018  0.00  0.00    +0.000 A 
ATOM     27  C   UNL     1      -7.457  -1.564 125.511  0.00  0.00    +0.000 A 
ATOM     28  C   UNL     1      -6.369  -2.293 126.896  0.00  0.00    +0.000 A 
BRANCH  26  29
ATOM     29  C   UNL     1      -8.010   0.653 124.742  0.00  0.00    +0.000 A 
ATOM     30  C   UNL     1      -7.400   1.794 124.091  0.00  0.00    +0.000 A 
ATOM     31  C   UNL     1      -7.520   2.343 122.719  0.00  0.00    +0.000 A 
ATOM     32  C   UNL     1      -6.756   3.413 122.347  0.00  0.00    +0.000 A 
ATOM     33  C   UNL     1      -5.788   4.122 123.258  0.00  0.00    +0.000 A 
ATOM     34  O   UNL     1      -5.109   5.086 122.930  0.00  0.00    +0.000 OA
ATOM     35  C   UNL     1      -5.660   3.588 124.594  0.00  0.00    +0.000 A 
ATOM     36  C   UNL     1      -6.269   2.437 124.801  0.00  0.00    +0.000 A 
ATOM     37  O   UNL     1      -5.504   1.541 125.438  0.00  0.00    +0.000 OA
ATOM     38  C   UNL     1      -6.088   0.311 125.122  0.00  0.00    +0.000 A 
ATOM     39  C   UNL     1      -5.594  -1.392 124.633  0.00  0.00    +0.000 A 
ATOM     40  C   UNL     1      -6.499  -3.062 125.035  0.00  0.00    +0.000 A 
ATOM     41  C   UNL     1      -8.035  -3.099 126.300  0.00  0.00    +0.000 A 
ATOM     42  C   UNL     1      -8.585  -1.409 127.056  0.00  0.00    +0.000 A 
ATOM     43  C   UNL     1      -7.694   0.272 126.286  0.00  0.00    +0.000 A 
BRANCH  40  44
ATOM     44  O   UNL     1      -6.485  -3.831 123.903  0.00  0.00    +0.000 OA
ATOM     45  H   UNL     1      -7.030  -4.599 124.207  0.00  0.00    +0.000 HD
ENDBRANCH  40  44
ENDBRANCH  26  29
BRANCH  27  46
ATOM     46  C   UNL     1      -8.688  -2.240 124.313  0.00  0.00    +0.000 C 
ATOM     47  O   UNL     1      -9.760  -2.706 124.674  0.00  0.00    +0.000 OA
BRANCH  46  48
ATOM     48  O   UNL     1      -8.567  -2.049 122.907  0.00  0.00    +0.000 OA
ATOM     49  H   UNL     1      -8.481  -1.140 122.527  0.00  0.00    +0.000 HD
ENDBRANCH  46  48
ENDBRANCH  27  46
ENDBRANCH  21  23
ENDBRANCH  19  21
ENDBRANCH  17  19
ENDBRANCH  16  17
ENDBRANCH  15  16
ENDBRANCH  14  15
ENDBRANCH  13  14
ENDBRANCH  12  13
ENDBRANCH  11  12
ENDBRANCH  10  11
ENDBRANCH   9  10
ENDBRANCH   8   9
ENDBRANCH   7   8
ENDBRANCH   6   7
ENDBRANCH   3   6
BRANCH   1  50
ATOM     50  C   UNL     1     -10.176   3.778 130.010  0.00  0.00    +0.000 C 
BRANCH  50  53
ATOM     51  O   UNL     1     -12.136   6.319 131.950  0.00  0.00    +0.000 OA
ATOM     52  C   UNL     1     -11.316   5.770 131.243  0.00  0.00    +0.000 C 
ATOM     53  N   UNL     1     -11.265   4.498 130.731  0.00  0.00    +0.000 N 
ATOM     54  H   UNL     1     -12.059   3.960 131.027  0.00  0.00    +0.000 HD
BRANCH  52  55
ATOM     55  C   UNL     1     -10.091   6.438 131.100  0.00  0.00    +0.000 C 
BRANCH  55  56
ATOM     56  C   UNL     1      -8.673   6.135 132.532  0.00  0.00    +0.000 C 
BRANCH  56  57
ATOM     57  C   UNL     1      -6.843   6.225 132.141  0.00  0.00    +0.000 C 
ATOM     58  O   UNL     1      -6.404   6.850 131.221  0.00  0.00    +0.000 OA
ATOM     59  N   UNL     1      -5.650   5.758 132.457  0.00  0.00    +0.000 N 
ATOM     60  H   UNL     1      -5.640   5.846 133.440  0.00  0.00    +0.000 HD
BRANCH  59  61
ATOM     61  C   UNL     1      -4.540   6.144 131.337  0.00  0.00    +0.000 C 
ATOM     62  C   UNL     1      -3.697   4.765 130.696  0.00  0.00    +0.000 C 
ATOM     63  C   UNL     1      -3.428   3.516 131.700  0.00  0.00    +0.000 C 
ATOM     64  C   UNL     1      -2.244   3.871 132.899  0.00  0.00    +0.000 C 
ATOM     65  N   UNL     1      -2.295   5.145 133.896  0.00  0.00    +0.000 N 
ATOM     66  C   UNL     1      -3.309   4.874 134.749  0.00  0.00    +0.000 C 
ATOM     67  O   UNL     1      -3.601   3.585 134.709  0.00  0.00    +0.000 OA
ATOM     68  C   UNL     1      -2.555   6.566 133.457  0.00  0.00    +0.000 A 
ATOM     69  C   UNL     1      -1.841   7.364 134.324  0.00  0.00    +0.000 A 
ATOM     70  C   UNL     1      -1.542   8.583 133.802  0.00  0.00    +0.000 A 
ATOM     71  C   UNL     1      -2.122   9.064 132.579  0.00  0.00    +0.000 A 
ATOM     72  C   UNL     1      -3.088   8.383 131.803  0.00  0.00    +0.000 A 
ATOM     73  C   UNL     1      -3.384   7.103 132.231  0.00  0.00    +0.000 A 
BRANCH  66  74
ATOM     74  C   UNL     1      -4.241   6.407 135.586  0.00  0.00    +0.000 A 
ATOM     75  C   UNL     1      -5.616   6.555 135.929  0.00  0.00    +0.000 A 
ATOM     76  C   UNL     1      -6.130   7.685 136.630  0.00  0.00    +0.000 A 
ATOM     77  C   UNL     1      -5.300   8.550 137.334  0.00  0.00    +0.000 A 
ATOM     78  C   UNL     1      -4.036   8.169 137.537  0.00  0.00    +0.000 A 
ATOM     79  C   UNL     1      -3.573   7.330 136.568  0.00  0.00    +0.000 A 
BRANCH  77  80
ATOM     80  N   UNL     1      -5.685   9.820 137.744  0.00  0.00    +0.000 N 
ATOM     81  C   UNL     1      -6.265  10.050 138.993  0.00  0.00    +0.000 C 
ATOM     82  O   UNL     1      -6.591   9.219 139.836  0.00  0.00    +0.000 OA
ATOM     83  H   UNL     1      -5.360  10.577 137.164  0.00  0.00    +0.000 HD
BRANCH  81  84
ATOM     84  C   UNL     1      -6.500  11.444 139.363  0.00  0.00    +0.000 A 
ATOM     85  C   UNL     1      -7.798  11.848 139.676  0.00  0.00    +0.000 A 
ATOM     86  C   UNL     1      -8.051  13.196 139.884  0.00  0.00    +0.000 A 
ATOM     87  C   UNL     1      -6.991  14.085 140.008  0.00  0.00    +0.000 A 
ATOM     88  C   UNL     1      -5.678  13.623 139.928  0.00  0.00    +0.000 A 
ATOM     89  C   UNL     1      -5.405  12.326 139.480  0.00  0.00    +0.000 A 
BRANCH  89  90
ATOM     90  C   UNL     1      -4.023  11.922 139.157  0.00  0.00    +0.000 A 
ATOM     91  C   UNL     1      -3.223  11.226 140.086  0.00  0.00    +0.000 A 
ATOM     92  C   UNL     1      -1.841  11.134 139.907  0.00  0.00    +0.000 A 
ATOM     93  C   UNL     1      -1.281  11.533 138.703  0.00  0.00    +0.000 A 
ATOM     94  C   UNL     1      -2.101  12.016 137.688  0.00  0.00    +0.000 A 
ATOM     95  C   UNL     1      -3.439  12.307 137.949  0.00  0.00    +0.000 A 
ENDBRANCH  89  90
ENDBRANCH  81  84
ENDBRANCH  77  80
ENDBRANCH  66  74
ENDBRANCH  59  61
ENDBRANCH  56  57
ENDBRANCH  55  56
ENDBRANCH  52  55
ENDBRANCH  50  53
ENDBRANCH   1  50
TORSDOF 29
ENDMDL
MODEL 4
REMARK VINA RESULT:      -9.3      3.370      6.838
REMARK  Name = CHEMBL2172288
REMARK  29 active torsions:
REMARK  status: ('A' for Active; 'I' for Inactive)
REMARK    1  A    between atoms: C_2  and  C_3
REMARK    2  A    between atoms: C_3  and  C_4
REMARK    3  A    between atoms: C_4  and  C_5
REMARK    4  A    between atoms: N_7  and  C_8
REMARK    5  A    between atoms: C_13  and  C_15
REMARK    6  A    between atoms: C_18  and  N_19
REMARK    7  A    between atoms: C_20  and  C_22
REMARK    8  A    between atoms: C_27  and  C_28
REMARK    9  A    between atoms: N_42  and  C_43
REMARK   10  A    between atoms: C_43  and  C_44
REMARK   11  A    between atoms: N_46  and  C_47
REMARK   12  A    between atoms: C_47  and  C_48
REMARK   13  A    between atoms: C_48  and  O_49
REMARK   14  A    between atoms: O_49  and  C_50
REMARK   15  A    between atoms: C_50  and  C_51
REMARK   16  A    between atoms: C_51  and  O_52
REMARK   17  A    between atoms: O_52  and  C_53
REMARK   18  A    between atoms: C_53  and  C_54
REMARK   19  A    between atoms: C_54  and  O_55
REMARK   20  A    between atoms: O_55  and  C_56
REMARK   21  A    between atoms: C_56  and  C_57
REMARK   22  A    between atoms: C_57  and  N_58
REMARK   23  A    between atoms: N_58  and  C_59
REMARK   24  A    between atoms: C_59  and  N_61
REMARK   25  A    between atoms: N_61  and  C_62
REMARK   26  A    between atoms: C_65  and  C_66
REMARK   27  A    between atoms: C_77  and  O_78
REMARK   28  A    between atoms: C_82  and  C_83
REMARK   29  A    between atoms: C_83  and  O_85
REMARK                            x       y       z     vdW  Elec       q    Type
REMARK                         _______ _______ _______ _____ _____    ______ ____
ROOT
ATOM      1  C   UNL     1      -3.670  -0.219 136.615  0.00  0.00    +0.000 A 
ATOM      2  C   UNL     1      -3.435  -1.127 137.614  0.00  0.00    +0.000 A 
ATOM      3  N   UNL     1      -3.078  -2.264 136.951  0.00  0.00    +0.000 N 
ATOM      4  N   UNL     1      -3.078  -2.070 135.623  0.00  0.00    +0.000 NA
ATOM      5  N   UNL     1      -3.436  -0.813 135.406  0.00  0.00    +0.000 NA
ENDROOT
BRANCH   3   6
ATOM      6  C   UNL     1      -2.733  -3.550 137.515  0.00  0.00    +0.000 C 
BRANCH   6   7
ATOM      7  C   UNL     1      -3.350  -4.671 136.700  0.00  0.00    +0.000 C 
BRANCH   7   8
ATOM      8  O   UNL     1      -2.356  -5.458 136.068  0.00  0.00    +0.000 OA
BRANCH   8   9
ATOM      9  C   UNL     1      -2.871  -5.961 134.835  0.00  0.00    +0.000 C 
BRANCH   9  10
ATOM     10  C   UNL     1      -4.306  -5.516 134.685  0.00  0.00    +0.000 C 
BRANCH  10  11
ATOM     11  O   UNL     1      -4.546  -5.155 133.329  0.00  0.00    +0.000 OA
BRANCH  11  12
ATOM     12  C   UNL     1      -3.440  -4.406 132.834  0.00  0.00    +0.000 C 
BRANCH  12  13
ATOM     13  C   UNL     1      -3.958  -3.179 132.120  0.00  0.00    +0.000 C 
BRANCH  13  14
ATOM     14  O   UNL     1      -3.398  -3.119 130.815  0.00  0.00    +0.000 OA
BRANCH  14  15
ATOM     15  C   UNL     1      -4.302  -3.704 129.891  0.00  0.00    +0.000 C 
BRANCH  15  16
ATOM     16  C   UNL     1      -4.515  -2.761 128.749  0.00  0.00    +0.000 C 
BRANCH  16  17
ATOM     17  N   UNL     1      -5.910  -2.397 128.601  0.00  0.00    +0.000 N 
ATOM     18  H   UNL     1      -6.631  -2.904 129.093  0.00  0.00    +0.000 HD
BRANCH  17  19
ATOM     19  C   UNL     1      -6.276  -1.448 127.695  0.00  0.00    +0.000 C 
ATOM     20  S   UNL     1      -7.838  -1.504 126.995  0.00  0.00    +0.000 S 
BRANCH  19  21
ATOM     21  N   UNL     1      -5.253  -0.508 127.505  0.00  0.00    +0.000 N 
ATOM     22  H   UNL     1      -4.467  -0.638 126.880  0.00  0.00    +0.000 HD
BRANCH  21  23
ATOM     23  C   UNL     1      -5.352   0.745 128.077  0.00  0.00    +0.000 A 
ATOM     24  C   UNL     1      -5.903   0.888 129.236  0.00  0.00    +0.000 A 
ATOM     25  C   UNL     1      -6.639   1.971 129.142  0.00  0.00    +0.000 A 
ATOM     26  C   UNL     1      -7.348   3.042 127.804  0.00  0.00    +0.000 A 
ATOM     27  C   UNL     1      -6.573   3.384 126.871  0.00  0.00    +0.000 A 
ATOM     28  C   UNL     1      -5.456   1.891 127.263  0.00  0.00    +0.000 A 
BRANCH  26  29
ATOM     29  C   UNL     1      -8.439   4.468 127.946  0.00  0.00    +0.000 A 
ATOM     30  C   UNL     1      -8.930   5.120 129.143  0.00  0.00    +0.000 A 
ATOM     31  C   UNL     1      -9.262   6.533 129.447  0.00  0.00    +0.000 A 
ATOM     32  C   UNL     1      -9.644   6.883 130.711  0.00  0.00    +0.000 A 
ATOM     33  C   UNL     1      -9.786   5.913 131.854  0.00  0.00    +0.000 A 
ATOM     34  O   UNL     1     -10.138   6.223 132.984  0.00  0.00    +0.000 OA
ATOM     35  C   UNL     1      -9.457   4.536 131.568  0.00  0.00    +0.000 A 
ATOM     36  C   UNL     1      -8.900   4.323 130.391  0.00  0.00    +0.000 A 
ATOM     37  O   UNL     1      -7.821   3.531 130.454  0.00  0.00    +0.000 OA
ATOM     38  C   UNL     1      -7.115   3.828 129.284  0.00  0.00    +0.000 A 
ATOM     39  C   UNL     1      -5.388   4.125 128.725  0.00  0.00    +0.000 A 
ATOM     40  C   UNL     1      -4.605   3.718 126.995  0.00  0.00    +0.000 A 
ATOM     41  C   UNL     1      -5.618   2.656 125.652  0.00  0.00    +0.000 A 
ATOM     42  C   UNL     1      -7.402   2.100 126.142  0.00  0.00    +0.000 A 
ATOM     43  C   UNL     1      -8.154   2.874 127.889  0.00  0.00    +0.000 A 
BRANCH  40  44
ATOM     44  O   UNL     1      -3.824   4.780 126.628  0.00  0.00    +0.000 OA
ATOM     45  H   UNL     1      -3.908   5.346 127.436  0.00  0.00    +0.000 HD
ENDBRANCH  40  44
ENDBRANCH  26  29
BRANCH  27  46
ATOM     46  C   UNL     1      -6.818   4.498 125.419  0.00  0.00    +0.000 C 
ATOM     47  O   UNL     1      -5.900   5.140 124.929  0.00  0.00    +0.000 OA
BRANCH  46  48
ATOM     48  O   UNL     1      -8.017   4.497 124.652  0.00  0.00    +0.000 OA
ATOM     49  H   UNL     1      -8.652   3.739 124.708  0.00  0.00    +0.000 HD
ENDBRANCH  46  48
ENDBRANCH  27  46
ENDBRANCH  21  23
ENDBRANCH  19  21
ENDBRANCH  17  19
ENDBRANCH  16  17
ENDBRANCH  15  16
ENDBRANCH  14  15
ENDBRANCH  13  14
ENDBRANCH  12  13
ENDBRANCH  11  12
ENDBRANCH  10  11
ENDBRANCH   9  10
ENDBRANCH   8   9
ENDBRANCH   7   8
ENDBRANCH   6   7
ENDBRANCH   3   6
BRANCH   1  50
ATOM     50  C   UNL     1      -4.126   1.175 136.721  0.00  0.00    +0.000 C 
BRANCH  50  53
ATOM     51  O   UNL     1      -2.190   3.649 138.769  0.00  0.00    +0.000 OA
ATOM     52  C   UNL     1      -3.044   2.893 138.355  0.00  0.00    +0.000 C 
ATOM     53  N   UNL     1      -3.026   1.974 137.336  0.00  0.00    +0.000 N 
ATOM     54  H   UNL     1      -2.135   1.968 136.874  0.00  0.00    +0.000 HD
BRANCH  52  55
ATOM     55  C   UNL     1      -4.346   3.137 138.813  0.00  0.00    +0.000 C 
BRANCH  55  56
ATOM     56  C   UNL     1      -5.463   4.516 137.810  0.00  0.00    +0.000 C 
BRANCH  56  57
ATOM     57  C   UNL     1      -5.631   4.479 135.944  0.00  0.00    +0.000 C 
ATOM     58  O   UNL     1      -6.643   4.763 135.376  0.00  0.00    +0.000 OA
ATOM     59  N   UNL     1      -5.031   4.149 134.816  0.00  0.00    +0.000 N 
ATOM     60  H   UNL     1      -4.139   4.561 134.920  0.00  0.00    +0.000 HD
BRANCH  59  61
ATOM     61  C   UNL     1      -6.068   4.145 133.567  0.00  0.00    +0.000 C 
ATOM     62  C   UNL     1      -6.094   2.641 132.696  0.00  0.00    +0.000 C 
ATOM     63  C   UNL     1      -4.701   1.810 132.590  0.00  0.00    +0.000 C 
ATOM     64  C   UNL     1      -3.555   2.564 131.550  0.00  0.00    +0.000 C 
ATOM     65  N   UNL     1      -3.063   4.101 131.681  0.00  0.00    +0.000 N 
ATOM     66  C   UNL     1      -2.302   4.124 132.799  0.00  0.00    +0.000 C 
ATOM     67  O   UNL     1      -1.940   2.895 133.124  0.00  0.00    +0.000 OA
ATOM     68  C   UNL     1      -3.986   5.285 131.841  0.00  0.00    +0.000 A 
ATOM     69  C   UNL     1      -3.358   6.339 131.213  0.00  0.00    +0.000 A 
ATOM     70  C   UNL     1      -4.220   7.311 130.815  0.00  0.00    +0.000 A 
ATOM     71  C   UNL     1      -5.596   7.341 131.227  0.00  0.00    +0.000 A 
ATOM     72  C   UNL     1      -6.210   6.427 132.113  0.00  0.00    +0.000 A 
ATOM     73  C   UNL     1      -5.414   5.364 132.498  0.00  0.00    +0.000 A 
BRANCH  66  74
ATOM     74  C   UNL     1      -2.156   5.839 133.777  0.00  0.00    +0.000 A 
ATOM     75  C   UNL     1      -2.663   6.198 135.059  0.00  0.00    +0.000 A 
ATOM     76  C   UNL     1      -2.387   7.448 135.688  0.00  0.00    +0.000 A 
ATOM     77  C   UNL     1      -1.338   8.261 135.272  0.00  0.00    +0.000 A 
ATOM     78  C   UNL     1      -0.447   7.739 134.426  0.00  0.00    +0.000 A 
ATOM     79  C   UNL     1      -0.973   6.758 133.640  0.00  0.00    +0.000 A 
BRANCH  77  80
ATOM     80  N   UNL     1      -1.228   9.604 135.609  0.00  0.00    +0.000 N 
ATOM     81  C   UNL     1      -1.948  10.595 134.938  0.00  0.00    +0.000 C 
ATOM     82  O   UNL     1      -2.672  10.465 133.956  0.00  0.00    +0.000 OA
ATOM     83  H   UNL     1      -0.741   9.794 136.470  0.00  0.00    +0.000 HD
BRANCH  81  84
ATOM     84  C   UNL     1      -1.853  11.952 135.473  0.00  0.00    +0.000 A 
ATOM     85  C   UNL     1      -2.418  12.226 136.719  0.00  0.00    +0.000 A 
ATOM     86  C   UNL     1      -2.459  13.538 137.164  0.00  0.00    +0.000 A 
ATOM     87  C   UNL     1      -1.746  14.520 136.487  0.00  0.00    +0.000 A 
ATOM     88  C   UNL     1      -0.987  14.184 135.366  0.00  0.00    +0.000 A 
ATOM     89  C   UNL     1      -1.124  12.930 134.763  0.00  0.00    +0.000 A 
BRANCH  89  90
ATOM     90  C   UNL     1      -0.516  12.664 133.445  0.00  0.00    +0.000 A 
ATOM     91  C   UNL     1       0.686  11.938 133.320  0.00  0.00    +0.000 A 
ATOM     92  C   UNL     1       1.415  11.968 132.130  0.00  0.00    +0.000 A 
ATOM     93  C   UNL     1       0.847  12.527 130.995  0.00  0.00    +0.000 A 
ATOM     94  C   UNL     1      -0.442  13.049 131.056  0.00  0.00    +0.000 A 
ATOM     95  C   UNL     1      -1.073  13.212 132.288  0.00  0.00    +0.000 A 
ENDBRANCH  89  90
ENDBRANCH  81  84
ENDBRANCH  77  80
ENDBRANCH  66  74
ENDBRANCH  59  61
ENDBRANCH  56  57
ENDBRANCH  55  56
ENDBRANCH  52  55
ENDBRANCH  50  53
ENDBRANCH   1  50
TORSDOF 29
ENDMDL
MODEL 5
REMARK VINA RESULT:      -9.2      1.165      2.270
REMARK  Name = CHEMBL2172288
REMARK  29 active torsions:
REMARK  status: ('A' for Active; 'I' for Inactive)
REMARK    1  A    between atoms: C_2  and  C_3
REMARK    2  A    between atoms: C_3  and  C_4
REMARK    3  A    between atoms: C_4  and  C_5
REMARK    4  A    between atoms: N_7  and  C_8
REMARK    5  A    between atoms: C_13  and  C_15
REMARK    6  A    between atoms: C_18  and  N_19
REMARK    7  A    between atoms: C_20  and  C_22
REMARK    8  A    between atoms: C_27  and  C_28
REMARK    9  A    between atoms: N_42  and  C_43
REMARK   10  A    between atoms: C_43  and  C_44
REMARK   11  A    between atoms: N_46  and  C_47
REMARK   12  A    between atoms: C_47  and  C_48
REMARK   13  A    between atoms: C_48  and  O_49
REMARK   14  A    between atoms: O_49  and  C_50
REMARK   15  A    between atoms: C_50  and  C_51
REMARK   16  A    between atoms: C_51  and  O_52
REMARK   17  A    between atoms: O_52  and  C_53
REMARK   18  A    between atoms: C_53  and  C_54
REMARK   19  A    between atoms: C_54  and  O_55
REMARK   20  A    between atoms: O_55  and  C_56
REMARK   21  A    between atoms: C_56  and  C_57
REMARK   22  A    between atoms: C_57  and  N_58
REMARK   23  A    between atoms: N_58  and  C_59
REMARK   24  A    between atoms: C_59  and  N_61
REMARK   25  A    between atoms: N_61  and  C_62
REMARK   26  A    between atoms: C_65  and  C_66
REMARK   27  A    between atoms: C_77  and  O_78
REMARK   28  A    between atoms: C_82  and  C_83
REMARK   29  A    between atoms: C_83  and  O_85
REMARK                            x       y       z     vdW  Elec       q    Type
REMARK                         _______ _______ _______ _____ _____    ______ ____
ROOT
ATOM      1  C   UNL     1      -9.432   2.925 131.047  0.00  0.00    +0.000 A 
ATOM      2  C   UNL     1      -8.102   2.597 131.001  0.00  0.00    +0.000 A 
ATOM      3  N   UNL     1      -7.846   2.077 132.236  0.00  0.00    +0.000 N 
ATOM      4  N   UNL     1      -8.953   2.069 132.996  0.00  0.00    +0.000 NA
ATOM      5  N   UNL     1      -9.936   2.584 132.272  0.00  0.00    +0.000 NA
ENDROOT
BRANCH   3   6
ATOM      6  C   UNL     1      -6.589   1.579 132.747  0.00  0.00    +0.000 C 
BRANCH   6   7
ATOM      7  C   UNL     1      -6.439   1.923 134.217  0.00  0.00    +0.000 C 
BRANCH   7   8
ATOM      8  O   UNL     1      -5.971   0.813 134.962  0.00  0.00    +0.000 OA
BRANCH   8   9
ATOM      9  C   UNL     1      -6.188  -0.381 134.211  0.00  0.00    +0.000 C 
BRANCH   9  10
ATOM     10  C   UNL     1      -6.061  -1.570 135.133  0.00  0.00    +0.000 C 
BRANCH  10  11
ATOM     11  O   UNL     1      -7.333  -2.193 135.273  0.00  0.00    +0.000 OA
BRANCH  11  12
ATOM     12  C   UNL     1      -7.199  -3.598 135.075  0.00  0.00    +0.000 C 
BRANCH  12  13
ATOM     13  C   UNL     1      -6.901  -3.862 133.617  0.00  0.00    +0.000 C 
BRANCH  13  14
ATOM     14  O   UNL     1      -5.803  -4.758 133.513  0.00  0.00    +0.000 OA
BRANCH  14  15
ATOM     15  C   UNL     1      -5.416  -4.869 132.152  0.00  0.00    +0.000 C 
BRANCH  15  16
ATOM     16  C   UNL     1      -6.110  -3.809 131.357  0.00  0.00    +0.000 C 
BRANCH  16  17
ATOM     17  N   UNL     1      -5.191  -3.081 130.507  0.00  0.00    +0.000 N 
ATOM     18  H   UNL     1      -4.718  -3.541 129.744  0.00  0.00    +0.000 HD
BRANCH  17  19
ATOM     19  C   UNL     1      -4.853  -1.796 130.808  0.00  0.00    +0.000 C 
ATOM     20  S   UNL     1      -3.533  -1.490 131.855  0.00  0.00    +0.000 S 
BRANCH  19  21
ATOM     21  N   UNL     1      -5.681  -0.885 130.136  0.00  0.00    +0.000 N 
ATOM     22  H   UNL     1      -6.442  -0.377 130.571  0.00  0.00    +0.000 HD
BRANCH  21  23
ATOM     23  C   UNL     1      -5.394  -0.519 128.836  0.00  0.00    +0.000 A 
ATOM     24  C   UNL     1      -4.915   0.652 128.582  0.00  0.00    +0.000 A 
ATOM     25  C   UNL     1      -5.538   1.057 127.499  0.00  0.00    +0.000 A 
ATOM     26  C   UNL     1      -7.061   0.612 126.539  0.00  0.00    +0.000 A 
ATOM     27  C   UNL     1      -7.249  -0.610 126.294  0.00  0.00    +0.000 A 
ATOM     28  C   UNL     1      -6.128  -1.069 127.765  0.00  0.00    +0.000 A 
BRANCH  26  29
ATOM     29  C   UNL     1      -7.767   1.412 125.088  0.00  0.00    +0.000 A 
ATOM     30  C   UNL     1      -7.146   2.355 124.181  0.00  0.00    +0.000 A 
ATOM     31  C   UNL     1      -7.311   2.599 122.727  0.00  0.00    +0.000 A 
ATOM     32  C   UNL     1      -6.526   3.526 122.101  0.00  0.00    +0.000 A 
ATOM     33  C   UNL     1      -5.490   4.368 122.797  0.00  0.00    +0.000 A 
ATOM     34  O   UNL     1      -4.792   5.206 122.241  0.00  0.00    +0.000 OA
ATOM     35  C   UNL     1      -5.318   4.131 124.212  0.00  0.00    +0.000 A 
ATOM     36  C   UNL     1      -5.960   3.082 124.689  0.00  0.00    +0.000 A 
ATOM     37  O   UNL     1      -5.199   2.310 125.476  0.00  0.00    +0.000 OA
ATOM     38  C   UNL     1      -5.843   1.070 125.458  0.00  0.00    +0.000 A 
ATOM     39  C   UNL     1      -5.437  -0.720 125.335  0.00  0.00    +0.000 A 
ATOM     40  C   UNL     1      -6.385  -2.219 126.127  0.00  0.00    +0.000 A 
ATOM     41  C   UNL     1      -7.858  -1.909 127.428  0.00  0.00    +0.000 A 
ATOM     42  C   UNL     1      -8.308  -0.071 127.817  0.00  0.00    +0.000 A 
ATOM     43  C   UNL     1      -7.392   1.360 126.664  0.00  0.00    +0.000 A 
BRANCH  40  44
ATOM     44  O   UNL     1      -6.453  -3.214 125.190  0.00  0.00    +0.000 OA
ATOM     45  H   UNL     1      -5.760  -2.904 124.555  0.00  0.00    +0.000 HD
ENDBRANCH  40  44
ENDBRANCH  26  29
BRANCH  27  46
ATOM     46  C   UNL     1      -8.547  -1.479 125.310  0.00  0.00    +0.000 C 
ATOM     47  O   UNL     1      -9.684  -1.639 125.730  0.00  0.00    +0.000 OA
BRANCH  46  48
ATOM     48  O   UNL     1      -8.372  -1.801 123.934  0.00  0.00    +0.000 OA
ATOM     49  H   UNL     1      -8.761  -2.629 123.557  0.00  0.00    +0.000 HD
ENDBRANCH  46  48
ENDBRANCH  27  46
ENDBRANCH  21  23
ENDBRANCH  19  21
ENDBRANCH  17  19
ENDBRANCH  16  17
ENDBRANCH  15  16
ENDBRANCH  14  15
ENDBRANCH  13  14
ENDBRANCH  12  13
ENDBRANCH  11  12
ENDBRANCH  10  11
ENDBRANCH   9  10
ENDBRANCH   8   9
ENDBRANCH   7   8
ENDBRANCH   6   7
ENDBRANCH   3   6
BRANCH   1  50
ATOM     50  C   UNL     1     -10.263   3.563 130.015  0.00  0.00    +0.000 C 
BRANCH  50  53
ATOM     51  O   UNL     1     -11.910   6.446 131.757  0.00  0.00    +0.000 OA
ATOM     52  C   UNL     1     -11.173   5.760 131.080  0.00  0.00    +0.000 C 
ATOM     53  N   UNL     1     -11.253   4.444 130.699  0.00  0.00    +0.000 N 
ATOM     54  H   UNL     1     -12.073   4.010 131.080  0.00  0.00    +0.000 HD
BRANCH  52  55
ATOM     55  C   UNL     1      -9.905   6.301 130.821  0.00  0.00    +0.000 C 
BRANCH  55  56
ATOM     56  C   UNL     1      -8.503   6.179 132.296  0.00  0.00    +0.000 C 
BRANCH  56  57
ATOM     57  C   UNL     1      -6.673   6.343 131.931  0.00  0.00    +0.000 C 
ATOM     58  O   UNL     1      -6.230   7.152 131.171  0.00  0.00    +0.000 OA
ATOM     59  N   UNL     1      -5.483   5.811 132.136  0.00  0.00    +0.000 N 
ATOM     60  H   UNL     1      -5.473   5.682 133.115  0.00  0.00    +0.000 HD
BRANCH  59  61
ATOM     61  C   UNL     1      -4.371   6.427 131.126  0.00  0.00    +0.000 C 
ATOM     62  C   UNL     1      -3.493   5.214 130.243  0.00  0.00    +0.000 C 
ATOM     63  C   UNL     1      -3.208   3.800 130.989  0.00  0.00    +0.000 C 
ATOM     64  C   UNL     1      -2.043   3.937 132.249  0.00  0.00    +0.000 C 
ATOM     65  N   UNL     1      -2.129   4.994 133.473  0.00  0.00    +0.000 N 
ATOM     66  C   UNL     1      -3.145   4.544 134.244  0.00  0.00    +0.000 C 
ATOM     67  O   UNL     1      -3.410   3.282 133.952  0.00  0.00    +0.000 OA
ATOM     68  C   UNL     1      -2.415   6.467 133.314  0.00  0.00    +0.000 A 
ATOM     69  C   UNL     1      -1.725   7.096 134.328  0.00  0.00    +0.000 A 
ATOM     70  C   UNL     1      -1.447   8.397 134.056  0.00  0.00    +0.000 A 
ATOM     71  C   UNL     1      -2.026   9.095 132.941  0.00  0.00    +0.000 A 
ATOM     72  C   UNL     1      -2.970   8.560 132.036  0.00  0.00    +0.000 A 
ATOM     73  C   UNL     1      -3.243   7.216 132.205  0.00  0.00    +0.000 A 
BRANCH  66  74
ATOM     74  C   UNL     1      -4.117   5.868 135.350  0.00  0.00    +0.000 A 
ATOM     75  C   UNL     1      -5.488   6.251 135.311  0.00  0.00    +0.000 A 
ATOM     76  C   UNL     1      -6.077   7.150 136.248  0.00  0.00    +0.000 A 
ATOM     77  C   UNL     1      -5.466   7.447 137.461  0.00  0.00    +0.000 A 
ATOM     78  C   UNL     1      -4.431   6.692 137.835  0.00  0.00    +0.000 A 
ATOM     79  C   UNL     1      -3.751   6.162 136.779  0.00  0.00    +0.000 A 
BRANCH  77  80
ATOM     80  N   UNL     1      -5.809   8.541 138.245  0.00  0.00    +0.000 N 
ATOM     81  C   UNL     1      -6.845   8.484 139.181  0.00  0.00    +0.000 C 
ATOM     82  O   UNL     1      -7.624   7.558 139.385  0.00  0.00    +0.000 OA
ATOM     83  H   UNL     1      -5.157   9.309 138.223  0.00  0.00    +0.000 HD
BRANCH  81  84
ATOM     84  C   UNL     1      -7.019   9.653 140.040  0.00  0.00    +0.000 A 
ATOM     85  C   UNL     1      -7.741  10.743 139.555  0.00  0.00    +0.000 A 
ATOM     86  C   UNL     1      -7.787  11.908 140.306  0.00  0.00    +0.000 A 
ATOM     87  C   UNL     1      -7.318  11.904 141.614  0.00  0.00    +0.000 A 
ATOM     88  C   UNL     1      -6.809  10.731 142.171  0.00  0.00    +0.000 A 
ATOM     89  C   UNL     1      -6.532   9.622 141.364  0.00  0.00    +0.000 A 
BRANCH  89  90
ATOM     90  C   UNL     1      -5.767   8.480 141.901  0.00  0.00    +0.000 A 
ATOM     91  C   UNL     1      -6.354   7.549 142.781  0.00  0.00    +0.000 A 
ATOM     92  C   UNL     1      -5.560   6.677 143.529  0.00  0.00    +0.000 A 
ATOM     93  C   UNL     1      -4.207   6.571 143.242  0.00  0.00    +0.000 A 
ATOM     94  C   UNL     1      -3.659   7.331 142.212  0.00  0.00    +0.000 A 
ATOM     95  C   UNL     1      -4.406   8.349 141.622  0.00  0.00    +0.000 A 
ENDBRANCH  89  90
ENDBRANCH  81  84
ENDBRANCH  77  80
ENDBRANCH  66  74
ENDBRANCH  59  61
ENDBRANCH  56  57
ENDBRANCH  55  56
ENDBRANCH  52  55
ENDBRANCH  50  53
ENDBRANCH   1  50
TORSDOF 29
ENDMDL
MODEL 6
REMARK VINA RESULT:      -9.2      2.293      4.090
REMARK  Name = CHEMBL2172288
REMARK  29 active torsions:
REMARK  status: ('A' for Active; 'I' for Inactive)
REMARK    1  A    between atoms: C_2  and  C_3
REMARK    2  A    between atoms: C_3  and  C_4
REMARK    3  A    between atoms: C_4  and  C_5
REMARK    4  A    between atoms: N_7  and  C_8
REMARK    5  A    between atoms: C_13  and  C_15
REMARK    6  A    between atoms: C_18  and  N_19
REMARK    7  A    between atoms: C_20  and  C_22
REMARK    8  A    between atoms: C_27  and  C_28
REMARK    9  A    between atoms: N_42  and  C_43
REMARK   10  A    between atoms: C_43  and  C_44
REMARK   11  A    between atoms: N_46  and  C_47
REMARK   12  A    between atoms: C_47  and  C_48
REMARK   13  A    between atoms: C_48  and  O_49
REMARK   14  A    between atoms: O_49  and  C_50
REMARK   15  A    between atoms: C_50  and  C_51
REMARK   16  A    between atoms: C_51  and  O_52
REMARK   17  A    between atoms: O_52  and  C_53
REMARK   18  A    between atoms: C_53  and  C_54
REMARK   19  A    between atoms: C_54  and  O_55
REMARK   20  A    between atoms: O_55  and  C_56
REMARK   21  A    between atoms: C_56  and  C_57
REMARK   22  A    between atoms: C_57  and  N_58
REMARK   23  A    between atoms: N_58  and  C_59
REMARK   24  A    between atoms: C_59  and  N_61
REMARK   25  A    between atoms: N_61  and  C_62
REMARK   26  A    between atoms: C_65  and  C_66
REMARK   27  A    between atoms: C_77  and  O_78
REMARK   28  A    between atoms: C_82  and  C_83
REMARK   29  A    between atoms: C_83  and  O_85
REMARK                            x       y       z     vdW  Elec       q    Type
REMARK                         _______ _______ _______ _____ _____    ______ ____
ROOT
ATOM      1  C   UNL     1      -8.892   2.448 131.754  0.00  0.00    +0.000 A 
ATOM      2  C   UNL     1      -8.019   2.938 132.689  0.00  0.00    +0.000 A 
ATOM      3  N   UNL     1      -7.441   1.823 133.220  0.00  0.00    +0.000 N 
ATOM      4  N   UNL     1      -7.916   0.709 132.639  0.00  0.00    +0.000 NA
ATOM      5  N   UNL     1      -8.806   1.083 131.732  0.00  0.00    +0.000 NA
ENDROOT
BRANCH   3   6
ATOM      6  C   UNL     1      -6.447   1.749 134.268  0.00  0.00    +0.000 C 
BRANCH   6   7
ATOM      7  C   UNL     1      -5.976   0.320 134.455  0.00  0.00    +0.000 C 
BRANCH   7   8
ATOM      8  O   UNL     1      -5.014   0.224 135.489  0.00  0.00    +0.000 OA
BRANCH   8   9
ATOM      9  C   UNL     1      -3.713   0.115 134.911  0.00  0.00    +0.000 C 
BRANCH   9  10
ATOM     10  C   UNL     1      -3.043  -1.131 135.440  0.00  0.00    +0.000 C 
BRANCH  10  11
ATOM     11  O   UNL     1      -3.616  -1.473 136.698  0.00  0.00    +0.000 OA
BRANCH  11  12
ATOM     12  C   UNL     1      -2.690  -2.256 137.445  0.00  0.00    +0.000 C 
BRANCH  12  13
ATOM     13  C   UNL     1      -3.183  -3.684 137.496  0.00  0.00    +0.000 C 
BRANCH  13  14
ATOM     14  O   UNL     1      -2.415  -4.483 136.608  0.00  0.00    +0.000 OA
BRANCH  14  15
ATOM     15  C   UNL     1      -3.232  -4.894 135.523  0.00  0.00    +0.000 C 
BRANCH  15  16
ATOM     16  C   UNL     1      -4.602  -5.212 136.033  0.00  0.00    +0.000 C 
BRANCH  16  17
ATOM     17  N   UNL     1      -5.590  -5.204 134.974  0.00  0.00    +0.000 N 
ATOM     18  H   UNL     1      -5.546  -5.875 134.221  0.00  0.00    +0.000 HD
BRANCH  17  19
ATOM     19  C   UNL     1      -6.516  -4.207 134.911  0.00  0.00    +0.000 C 
ATOM     20  S   UNL     1      -6.771  -3.201 136.272  0.00  0.00    +0.000 S 
BRANCH  19  21
ATOM     21  N   UNL     1      -7.115  -4.152 133.644  0.00  0.00    +0.000 N 
ATOM     22  H   UNL     1      -7.815  -4.806 133.315  0.00  0.00    +0.000 HD
BRANCH  21  23
ATOM     23  C   UNL     1      -6.871  -3.079 132.810  0.00  0.00    +0.000 A 
ATOM     24  C   UNL     1      -7.838  -2.541 132.145  0.00  0.00    +0.000 A 
ATOM     25  C   UNL     1      -7.348  -2.296 130.952  0.00  0.00    +0.000 A 
ATOM     26  C   UNL     1      -5.893  -2.819 129.928  0.00  0.00    +0.000 A 
ATOM     27  C   UNL     1      -4.764  -2.809 130.487  0.00  0.00    +0.000 A 
ATOM     28  C   UNL     1      -5.615  -2.933 132.187  0.00  0.00    +0.000 A 
BRANCH  26  29
ATOM     29  C   UNL     1      -5.486  -2.392 128.226  0.00  0.00    +0.000 A 
ATOM     30  C   UNL     1      -6.011  -1.315 127.410  0.00  0.00    +0.000 A 
ATOM     31  C   UNL     1      -5.405  -0.486 126.341  0.00  0.00    +0.000 A 
ATOM     32  C   UNL     1      -6.126   0.530 125.780  0.00  0.00    +0.000 A 
ATOM     33  C   UNL     1      -7.544   0.870 126.153  0.00  0.00    +0.000 A 
ATOM     34  O   UNL     1      -8.195   1.774 125.646  0.00  0.00    +0.000 OA
ATOM     35  C   UNL     1      -8.139   0.072 127.200  0.00  0.00    +0.000 A 
ATOM     36  C   UNL     1      -7.311  -0.741 127.827  0.00  0.00    +0.000 A 
ATOM     37  O   UNL     1      -7.432  -0.692 129.160  0.00  0.00    +0.000 OA
ATOM     38  C   UNL     1      -6.211  -1.184 129.630  0.00  0.00    +0.000 A 
ATOM     39  C   UNL     1      -4.956  -0.822 130.925  0.00  0.00    +0.000 A 
ATOM     40  C   UNL     1      -3.815  -2.078 131.869  0.00  0.00    +0.000 A 
ATOM     41  C   UNL     1      -4.085  -4.038 131.665  0.00  0.00    +0.000 A 
ATOM     42  C   UNL     1      -5.490  -4.607 130.468  0.00  0.00    +0.000 A 
ATOM     43  C   UNL     1      -6.387  -3.140 129.347  0.00  0.00    +0.000 A 
BRANCH  40  44
ATOM     44  O   UNL     1      -2.563  -1.531 131.947  0.00  0.00    +0.000 OA
ATOM     45  H   UNL     1      -2.084  -2.097 131.291  0.00  0.00    +0.000 HD
ENDBRANCH  40  44
ENDBRANCH  26  29
BRANCH  27  46
ATOM     46  C   UNL     1      -3.069  -3.150 129.837  0.00  0.00    +0.000 C 
ATOM     47  O   UNL     1      -2.741  -4.252 129.420  0.00  0.00    +0.000 OA
BRANCH  46  48
ATOM     48  O   UNL     1      -2.133  -2.112 129.570  0.00  0.00    +0.000 OA
ATOM     49  H   UNL     1      -1.425  -2.233 128.890  0.00  0.00    +0.000 HD
ENDBRANCH  46  48
ENDBRANCH  27  46
ENDBRANCH  21  23
ENDBRANCH  19  21
ENDBRANCH  17  19
ENDBRANCH  16  17
ENDBRANCH  15  16
ENDBRANCH  14  15
ENDBRANCH  13  14
ENDBRANCH  12  13
ENDBRANCH  11  12
ENDBRANCH  10  11
ENDBRANCH   9  10
ENDBRANCH   8   9
ENDBRANCH   7   8
ENDBRANCH   6   7
ENDBRANCH   3   6
BRANCH   1  50
ATOM     50  C   UNL     1      -9.826   3.182 130.887  0.00  0.00    +0.000 C 
BRANCH  50  53
ATOM     51  O   UNL     1      -8.521   4.961 127.855  0.00  0.00    +0.000 OA
ATOM     52  C   UNL     1      -8.973   4.704 128.951  0.00  0.00    +0.000 C 
ATOM     53  N   UNL     1      -9.115   3.513 129.618  0.00  0.00    +0.000 N 
ATOM     54  H   UNL     1      -8.786   2.747 129.059  0.00  0.00    +0.000 HD
BRANCH  52  55
ATOM     55  C   UNL     1      -9.691   5.736 129.571  0.00  0.00    +0.000 C 
BRANCH  55  56
ATOM     56  C   UNL     1      -8.696   6.919 130.900  0.00  0.00    +0.000 C 
BRANCH  56  57
ATOM     57  C   UNL     1      -6.825   7.016 130.924  0.00  0.00    +0.000 C 
ATOM     58  O   UNL     1      -6.216   7.938 130.471  0.00  0.00    +0.000 OA
ATOM     59  N   UNL     1      -5.717   6.360 131.210  0.00  0.00    +0.000 N 
ATOM     60  H   UNL     1      -5.902   6.012 132.115  0.00  0.00    +0.000 HD
BRANCH  59  61
ATOM     61  C   UNL     1      -4.409   7.099 130.595  0.00  0.00    +0.000 C 
ATOM     62  C   UNL     1      -3.610   6.173 129.359  0.00  0.00    +0.000 C 
ATOM     63  C   UNL     1      -3.629   4.554 129.502  0.00  0.00    +0.000 C 
ATOM     64  C   UNL     1      -2.625   3.990 130.782  0.00  0.00    +0.000 C 
ATOM     65  N   UNL     1      -2.713   4.501 132.316  0.00  0.00    +0.000 N 
ATOM     66  C   UNL     1      -3.873   3.986 132.784  0.00  0.00    +0.000 C 
ATOM     67  O   UNL     1      -4.278   2.999 132.002  0.00  0.00    +0.000 OA
ATOM     68  C   UNL     1      -2.761   5.951 132.734  0.00  0.00    +0.000 A 
ATOM     69  C   UNL     1      -2.122   6.011 133.954  0.00  0.00    +0.000 A 
ATOM     70  C   UNL     1      -1.627   7.245 134.235  0.00  0.00    +0.000 A 
ATOM     71  C   UNL     1      -1.953   8.406 133.453  0.00  0.00    +0.000 A 
ATOM     72  C   UNL     1      -2.842   8.435 132.356  0.00  0.00    +0.000 A 
ATOM     73  C   UNL     1      -3.326   7.200 131.963  0.00  0.00    +0.000 A 
BRANCH  66  74
ATOM     74  C   UNL     1      -4.775   4.945 134.261  0.00  0.00    +0.000 A 
ATOM     75  C   UNL     1      -6.029   5.622 134.271  0.00  0.00    +0.000 A 
ATOM     76  C   UNL     1      -6.607   6.184 135.449  0.00  0.00    +0.000 A 
ATOM     77  C   UNL     1      -6.177   5.818 136.720  0.00  0.00    +0.000 A 
ATOM     78  C   UNL     1      -5.375   4.756 136.822  0.00  0.00    +0.000 A 
ATOM     79  C   UNL     1      -4.623   4.550 135.705  0.00  0.00    +0.000 A 
BRANCH  77  80
ATOM     80  N   UNL     1      -6.455   6.555 137.864  0.00  0.00    +0.000 N 
ATOM     81  C   UNL     1      -5.582   7.534 138.344  0.00  0.00    +0.000 C 
ATOM     82  O   UNL     1      -4.467   7.821 137.918  0.00  0.00    +0.000 OA
ATOM     83  H   UNL     1      -7.394   6.463 138.219  0.00  0.00    +0.000 HD
BRANCH  81  84
ATOM     84  C   UNL     1      -6.048   8.334 139.475  0.00  0.00    +0.000 A 
ATOM     85  C   UNL     1      -6.333   9.684 139.271  0.00  0.00    +0.000 A 
ATOM     86  C   UNL     1      -6.634  10.480 140.367  0.00  0.00    +0.000 A 
ATOM     87  C   UNL     1      -6.873   9.890 141.603  0.00  0.00    +0.000 A 
ATOM     88  C   UNL     1      -6.815   8.504 141.739  0.00  0.00    +0.000 A 
ATOM     89  C   UNL     1      -6.281   7.710 140.718  0.00  0.00    +0.000 A 
BRANCH  89  90
ATOM     90  C   UNL     1      -5.989   6.283 140.957  0.00  0.00    +0.000 A 
ATOM     91  C   UNL     1      -4.666   5.801 141.011  0.00  0.00    +0.000 A 
ATOM     92  C   UNL     1      -4.402   4.433 140.911  0.00  0.00    +0.000 A 
ATOM     93  C   UNL     1      -5.450   3.529 140.984  0.00  0.00    +0.000 A 
ATOM     94  C   UNL     1      -6.751   3.994 141.157  0.00  0.00    +0.000 A 
ATOM     95  C   UNL     1      -7.028   5.354 141.038  0.00  0.00    +0.000 A 
ENDBRANCH  89  90
ENDBRANCH  81  84
ENDBRANCH  77  80
ENDBRANCH  66  74
ENDBRANCH  59  61
ENDBRANCH  56  57
ENDBRANCH  55  56
ENDBRANCH  52  55
ENDBRANCH  50  53
ENDBRANCH   1  50
TORSDOF 29
ENDMDL
MODEL 7
REMARK VINA RESULT:      -9.0      3.026     10.049
REMARK  Name = CHEMBL2172288
REMARK  29 active torsions:
REMARK  status: ('A' for Active; 'I' for Inactive)
REMARK    1  A    between atoms: C_2  and  C_3
REMARK    2  A    between atoms: C_3  and  C_4
REMARK    3  A    between atoms: C_4  and  C_5
REMARK    4  A    between atoms: N_7  and  C_8
REMARK    5  A    between atoms: C_13  and  C_15
REMARK    6  A    between atoms: C_18  and  N_19
REMARK    7  A    between atoms: C_20  and  C_22
REMARK    8  A    between atoms: C_27  and  C_28
REMARK    9  A    between atoms: N_42  and  C_43
REMARK   10  A    between atoms: C_43  and  C_44
REMARK   11  A    between atoms: N_46  and  C_47
REMARK   12  A    between atoms: C_47  and  C_48
REMARK   13  A    between atoms: C_48  and  O_49
REMARK   14  A    between atoms: O_49  and  C_50
REMARK   15  A    between atoms: C_50  and  C_51
REMARK   16  A    between atoms: C_51  and  O_52
REMARK   17  A    between atoms: O_52  and  C_53
REMARK   18  A    between atoms: C_53  and  C_54
REMARK   19  A    between atoms: C_54  and  O_55
REMARK   20  A    between atoms: O_55  and  C_56
REMARK   21  A    between atoms: C_56  and  C_57
REMARK   22  A    between atoms: C_57  and  N_58
REMARK   23  A    between atoms: N_58  and  C_59
REMARK   24  A    between atoms: C_59  and  N_61
REMARK   25  A    between atoms: N_61  and  C_62
REMARK   26  A    between atoms: C_65  and  C_66
REMARK   27  A    between atoms: C_77  and  O_78
REMARK   28  A    between atoms: C_82  and  C_83
REMARK   29  A    between atoms: C_83  and  O_85
REMARK                            x       y       z     vdW  Elec       q    Type
REMARK                         _______ _______ _______ _____ _____    ______ ____
ROOT
ATOM      1  C   UNL     1      -1.663   6.247 132.346  0.00  0.00    +0.000 A 
ATOM      2  C   UNL     1      -2.249   6.323 133.582  0.00  0.00    +0.000 A 
ATOM      3  N   UNL     1      -1.317   6.955 134.353  0.00  0.00    +0.000 N 
ATOM      4  N   UNL     1      -0.226   7.265 133.635  0.00  0.00    +0.000 NA
ATOM      5  N   UNL     1      -0.430   6.838 132.397  0.00  0.00    +0.000 NA
ENDROOT
BRANCH   3   6
ATOM      6  C   UNL     1      -1.402   7.286 135.758  0.00  0.00    +0.000 C 
BRANCH   6   7
ATOM      7  C   UNL     1      -0.033   7.212 136.405  0.00  0.00    +0.000 C 
BRANCH   7   8
ATOM      8  O   UNL     1      -0.132   6.997 137.801  0.00  0.00    +0.000 OA
BRANCH   8   9
ATOM      9  C   UNL     1      -1.427   6.479 138.105  0.00  0.00    +0.000 C 
BRANCH   9  10
ATOM     10  C   UNL     1      -1.336   5.628 139.349  0.00  0.00    +0.000 C 
BRANCH  10  11
ATOM     11  O   UNL     1      -1.250   4.257 138.974  0.00  0.00    +0.000 OA
BRANCH  11  12
ATOM     12  C   UNL     1      -2.559   3.700 138.907  0.00  0.00    +0.000 C 
BRANCH  12  13
ATOM     13  C   UNL     1      -2.482   2.223 139.217  0.00  0.00    +0.000 C 
BRANCH  13  14
ATOM     14  O   UNL     1      -3.740   1.617 138.954  0.00  0.00    +0.000 OA
BRANCH  14  15
ATOM     15  C   UNL     1      -3.693   0.253 139.343  0.00  0.00    +0.000 C 
BRANCH  15  16
ATOM     16  C   UNL     1      -2.709  -0.470 138.480  0.00  0.00    +0.000 C 
BRANCH  16  17
ATOM     17  N   UNL     1      -2.939  -1.901 138.479  0.00  0.00    +0.000 N 
ATOM     18  H   UNL     1      -3.665  -2.308 139.050  0.00  0.00    +0.000 HD
BRANCH  17  19
ATOM     19  C   UNL     1      -2.093  -2.729 137.805  0.00  0.00    +0.000 C 
ATOM     20  S   UNL     1      -0.561  -2.150 137.305  0.00  0.00    +0.000 S 
BRANCH  19  21
ATOM     21  N   UNL     1      -2.648  -4.008 137.658  0.00  0.00    +0.000 N 
ATOM     22  H   UNL     1      -2.790  -4.660 138.421  0.00  0.00    +0.000 HD
BRANCH  21  23
ATOM     23  C   UNL     1      -3.177  -4.397 136.444  0.00  0.00    +0.000 A 
ATOM     24  C   UNL     1      -2.495  -4.242 135.359  0.00  0.00    +0.000 A 
ATOM     25  C   UNL     1      -3.355  -3.813 134.463  0.00  0.00    +0.000 A 
ATOM     26  C   UNL     1      -5.052  -3.065 134.432  0.00  0.00    +0.000 A 
ATOM     27  C   UNL     1      -5.935  -3.615 135.142  0.00  0.00    +0.000 A 
ATOM     28  C   UNL     1      -4.571  -4.373 136.236  0.00  0.00    +0.000 A 
BRANCH  26  29
ATOM     29  C   UNL     1      -6.003  -2.462 133.027  0.00  0.00    +0.000 A 
ATOM     30  C   UNL     1      -5.740  -2.632 131.612  0.00  0.00    +0.000 A 
ATOM     31  C   UNL     1      -6.637  -2.766 130.439  0.00  0.00    +0.000 A 
ATOM     32  C   UNL     1      -6.105  -2.993 129.201  0.00  0.00    +0.000 A 
ATOM     33  C   UNL     1      -4.629  -3.094 128.917  0.00  0.00    +0.000 A 
ATOM     34  O   UNL     1      -4.150  -3.287 127.808  0.00  0.00    +0.000 OA
ATOM     35  C   UNL     1      -3.750  -2.971 130.057  0.00  0.00    +0.000 A 
ATOM     36  C   UNL     1      -4.348  -2.966 131.232  0.00  0.00    +0.000 A 
ATOM     37  O   UNL     1      -3.767  -3.779 132.124  0.00  0.00    +0.000 OA
ATOM     38  C   UNL     1      -4.772  -4.023 133.065  0.00  0.00    +0.000 A 
ATOM     39  C   UNL     1      -5.475  -5.416 134.038  0.00  0.00    +0.000 A 
ATOM     40  C   UNL     1      -6.280  -5.355 135.805  0.00  0.00    +0.000 A 
ATOM     41  C   UNL     1      -6.201  -3.692 136.894  0.00  0.00    +0.000 A 
ATOM     42  C   UNL     1      -5.334  -2.163 136.093  0.00  0.00    +0.000 A 
ATOM     43  C   UNL     1      -4.809  -2.340 134.116  0.00  0.00    +0.000 A 
BRANCH  40  44
ATOM     44  O   UNL     1      -7.395  -6.148 135.785  0.00  0.00    +0.000 OA
ATOM     45  H   UNL     1      -7.862  -5.810 136.590  0.00  0.00    +0.000 HD
ENDBRANCH  40  44
ENDBRANCH  26  29
BRANCH  27  46
ATOM     46  C   UNL     1      -7.740  -3.277 135.336  0.00  0.00    +0.000 C 
ATOM     47  O   UNL     1      -8.584  -3.831 134.646  0.00  0.00    +0.000 OA
BRANCH  46  48
ATOM     48  O   UNL     1      -8.263  -2.540 136.435  0.00  0.00    +0.000 OA
ATOM     49  H   UNL     1      -7.998  -2.760 137.362  0.00  0.00    +0.000 HD
ENDBRANCH  46  48
ENDBRANCH  27  46
ENDBRANCH  21  23
ENDBRANCH  19  21
ENDBRANCH  17  19
ENDBRANCH  16  17
ENDBRANCH  15  16
ENDBRANCH  14  15
ENDBRANCH  13  14
ENDBRANCH  12  13
ENDBRANCH  11  12
ENDBRANCH  10  11
ENDBRANCH   9  10
ENDBRANCH   8   9
ENDBRANCH   7   8
ENDBRANCH   6   7
ENDBRANCH   3   6
BRANCH   1  50
ATOM     50  C   UNL     1      -2.180   5.632 131.115  0.00  0.00    +0.000 C 
BRANCH  50  53
ATOM     51  O   UNL     1      -1.882   7.389 127.816  0.00  0.00    +0.000 OA
ATOM     52  C   UNL     1      -2.310   6.870 128.826  0.00  0.00    +0.000 C 
ATOM     53  N   UNL     1      -1.673   6.423 129.956  0.00  0.00    +0.000 N 
ATOM     54  H   UNL     1      -0.681   6.559 129.886  0.00  0.00    +0.000 HD
BRANCH  52  55
ATOM     55  C   UNL     1      -3.637   6.424 128.765  0.00  0.00    +0.000 C 
BRANCH  55  56
ATOM     56  C   UNL     1      -5.001   7.337 129.975  0.00  0.00    +0.000 C 
BRANCH  56  57
ATOM     57  C   UNL     1      -6.157   6.354 131.074  0.00  0.00    +0.000 C 
ATOM     58  O   UNL     1      -7.322   6.601 131.179  0.00  0.00    +0.000 OA
ATOM     59  N   UNL     1      -6.227   5.398 131.980  0.00  0.00    +0.000 N 
ATOM     60  H   UNL     1      -5.693   4.676 131.570  0.00  0.00    +0.000 HD
BRANCH  59  61
ATOM     61  C   UNL     1      -7.676   5.373 132.712  0.00  0.00    +0.000 C 
ATOM     62  C   UNL     1      -7.596   5.710 134.415  0.00  0.00    +0.000 C 
ATOM     63  C   UNL     1      -6.277   5.204 135.220  0.00  0.00    +0.000 C 
ATOM     64  C   UNL     1      -6.229   3.493 135.405  0.00  0.00    +0.000 C 
ATOM     65  N   UNL     1      -6.354   2.431 134.190  0.00  0.00    +0.000 N 
ATOM     66  C   UNL     1      -5.192   2.550 133.508  0.00  0.00    +0.000 C 
ATOM     67  O   UNL     1      -4.287   3.154 134.259  0.00  0.00    +0.000 OA
ATOM     68  C   UNL     1      -7.415   2.478 133.117  0.00  0.00    +0.000 A 
ATOM     69  C   UNL     1      -7.657   1.166 132.771  0.00  0.00    +0.000 A 
ATOM     70  C   UNL     1      -8.887   0.978 132.224  0.00  0.00    +0.000 A 
ATOM     71  C   UNL     1      -9.734   2.071 131.831  0.00  0.00    +0.000 A 
ATOM     72  C   UNL     1      -9.397   3.441 131.907  0.00  0.00    +0.000 A 
ATOM     73  C   UNL     1      -8.191   3.713 132.525  0.00  0.00    +0.000 A 
BRANCH  66  74
ATOM     74  C   UNL     1      -5.203   2.083 131.585  0.00  0.00    +0.000 A 
ATOM     75  C   UNL     1      -5.114   2.931 130.444  0.00  0.00    +0.000 A 
ATOM     76  C   UNL     1      -5.027   2.441 129.107  0.00  0.00    +0.000 A 
ATOM     77  C   UNL     1      -4.672   1.125 128.833  0.00  0.00    +0.000 A 
ATOM     78  C   UNL     1      -4.184   0.391 129.836  0.00  0.00    +0.000 A 
ATOM     79  C   UNL     1      -4.642   0.790 131.056  0.00  0.00    +0.000 A 
BRANCH  77  80
ATOM     80  N   UNL     1      -4.892   0.511 127.606  0.00  0.00    +0.000 N 
ATOM     81  C   UNL     1      -6.166   0.108 127.199  0.00  0.00    +0.000 C 
ATOM     82  O   UNL     1      -7.208   0.143 127.846  0.00  0.00    +0.000 OA
ATOM     83  H   UNL     1      -4.115   0.536 126.966  0.00  0.00    +0.000 HD
BRANCH  81  84
ATOM     84  C   UNL     1      -6.290  -0.400 125.834  0.00  0.00    +0.000 A 
ATOM     85  C   UNL     1      -6.161  -1.771 125.613  0.00  0.00    +0.000 A 
ATOM     86  C   UNL     1      -6.132  -2.242 124.308  0.00  0.00    +0.000 A 
ATOM     87  C   UNL     1      -6.459  -1.389 123.260  0.00  0.00    +0.000 A 
ATOM     88  C   UNL     1      -6.819  -0.068 123.521  0.00  0.00    +0.000 A 
ATOM     89  C   UNL     1      -6.621   0.488 124.789  0.00  0.00    +0.000 A 
BRANCH  89  90
ATOM     90  C   UNL     1      -6.765   1.941 125.000  0.00  0.00    +0.000 A 
ATOM     91  C   UNL     1      -5.641   2.783 125.121  0.00  0.00    +0.000 A 
ATOM     92  C   UNL     1      -5.771   4.075 125.635  0.00  0.00    +0.000 A 
ATOM     93  C   UNL     1      -7.036   4.613 125.818  0.00  0.00    +0.000 A 
ATOM     94  C   UNL     1      -8.159   3.860 125.485  0.00  0.00    +0.000 A 
ATOM     95  C   UNL     1      -8.029   2.506 125.182  0.00  0.00    +0.000 A 
ENDBRANCH  89  90
ENDBRANCH  81  84
ENDBRANCH  77  80
ENDBRANCH  66  74
ENDBRANCH  59  61
ENDBRANCH  56  57
ENDBRANCH  55  56
ENDBRANCH  52  55
ENDBRANCH  50  53
ENDBRANCH   1  50
TORSDOF 29
ENDMDL
MODEL 8
REMARK VINA RESULT:      -9.0      2.971     10.102
REMARK  Name = CHEMBL2172288
REMARK  29 active torsions:
REMARK  status: ('A' for Active; 'I' for Inactive)
REMARK    1  A    between atoms: C_2  and  C_3
REMARK    2  A    between atoms: C_3  and  C_4
REMARK    3  A    between atoms: C_4  and  C_5
REMARK    4  A    between atoms: N_7  and  C_8
REMARK    5  A    between atoms: C_13  and  C_15
REMARK    6  A    between atoms: C_18  and  N_19
REMARK    7  A    between atoms: C_20  and  C_22
REMARK    8  A    between atoms: C_27  and  C_28
REMARK    9  A    between atoms: N_42  and  C_43
REMARK   10  A    between atoms: C_43  and  C_44
REMARK   11  A    between atoms: N_46  and  C_47
REMARK   12  A    between atoms: C_47  and  C_48
REMARK   13  A    between atoms: C_48  and  O_49
REMARK   14  A    between atoms: O_49  and  C_50
REMARK   15  A    between atoms: C_50  and  C_51
REMARK   16  A    between atoms: C_51  and  O_52
REMARK   17  A    between atoms: O_52  and  C_53
REMARK   18  A    between atoms: C_53  and  C_54
REMARK   19  A    between atoms: C_54  and  O_55
REMARK   20  A    between atoms: O_55  and  C_56
REMARK   21  A    between atoms: C_56  and  C_57
REMARK   22  A    between atoms: C_57  and  N_58
REMARK   23  A    between atoms: N_58  and  C_59
REMARK   24  A    between atoms: C_59  and  N_61
REMARK   25  A    between atoms: N_61  and  C_62
REMARK   26  A    between atoms: C_65  and  C_66
REMARK   27  A    between atoms: C_77  and  O_78
REMARK   28  A    between atoms: C_82  and  C_83
REMARK   29  A    between atoms: C_83  and  O_85
REMARK                            x       y       z     vdW  Elec       q    Type
REMARK                         _______ _______ _______ _____ _____    ______ ____
ROOT
ATOM      1  C   UNL     1      -1.752   6.279 132.463  0.00  0.00    +0.000 A 
ATOM      2  C   UNL     1      -2.433   6.496 133.632  0.00  0.00    +0.000 A 
ATOM      3  N   UNL     1      -1.538   7.159 134.419  0.00  0.00    +0.000 N 
ATOM      4  N   UNL     1      -0.377   7.355 133.773  0.00  0.00    +0.000 NA
ATOM      5  N   UNL     1      -0.500   6.821 132.566  0.00  0.00    +0.000 NA
ENDROOT
BRANCH   3   6
ATOM      6  C   UNL     1      -1.721   7.625 135.776  0.00  0.00    +0.000 C 
BRANCH   6   7
ATOM      7  C   UNL     1      -0.471   7.376 136.597  0.00  0.00    +0.000 C 
BRANCH   7   8
ATOM      8  O   UNL     1      -0.785   6.818 137.860  0.00  0.00    +0.000 OA
BRANCH   8   9
ATOM      9  C   UNL     1      -2.059   6.179 137.786  0.00  0.00    +0.000 C 
BRANCH   9  10
ATOM     10  C   UNL     1      -2.289   5.395 139.056  0.00  0.00    +0.000 C 
BRANCH  10  11
ATOM     11  O   UNL     1      -1.851   4.054 138.866  0.00  0.00    +0.000 OA
BRANCH  11  12
ATOM     12  C   UNL     1      -2.900   3.291 138.276  0.00  0.00    +0.000 C 
BRANCH  12  13
ATOM     13  C   UNL     1      -2.695   1.831 138.612  0.00  0.00    +0.000 C 
BRANCH  13  14
ATOM     14  O   UNL     1      -3.482   1.030 137.742  0.00  0.00    +0.000 OA
BRANCH  14  15
ATOM     15  C   UNL     1      -3.520  -0.299 138.238  0.00  0.00    +0.000 C 
BRANCH  15  16
ATOM     16  C   UNL     1      -2.185  -0.940 138.029  0.00  0.00    +0.000 C 
BRANCH  16  17
ATOM     17  N   UNL     1      -2.283  -2.384 137.957  0.00  0.00    +0.000 N 
ATOM     18  H   UNL     1      -2.571  -2.923 138.760  0.00  0.00    +0.000 HD
BRANCH  17  19
ATOM     19  C   UNL     1      -1.861  -3.043 136.842  0.00  0.00    +0.000 C 
ATOM     20  S   UNL     1      -0.617  -2.368 135.879  0.00  0.00    +0.000 S 
BRANCH  19  21
ATOM     21  N   UNL     1      -2.543  -4.259 136.685  0.00  0.00    +0.000 N 
ATOM     22  H   UNL     1      -2.661  -4.945 137.420  0.00  0.00    +0.000 HD
BRANCH  21  23
ATOM     23  C   UNL     1      -3.232  -4.519 135.517  0.00  0.00    +0.000 A 
ATOM     24  C   UNL     1      -2.724  -4.190 134.377  0.00  0.00    +0.000 A 
ATOM     25  C   UNL     1      -3.722  -3.700 133.678  0.00  0.00    +0.000 A 
ATOM     26  C   UNL     1      -5.431  -3.050 133.988  0.00  0.00    +0.000 A 
ATOM     27  C   UNL     1      -6.179  -3.734 134.737  0.00  0.00    +0.000 A 
ATOM     28  C   UNL     1      -4.641  -4.546 135.515  0.00  0.00    +0.000 A 
BRANCH  26  29
ATOM     29  C   UNL     1      -6.602  -2.327 132.826  0.00  0.00    +0.000 A 
ATOM     30  C   UNL     1      -6.574  -2.349 131.377  0.00  0.00    +0.000 A 
ATOM     31  C   UNL     1      -7.650  -2.383 130.358  0.00  0.00    +0.000 A 
ATOM     32  C   UNL     1      -7.328  -2.473 129.034  0.00  0.00    +0.000 A 
ATOM     33  C   UNL     1      -5.918  -2.516 128.505  0.00  0.00    +0.000 A 
ATOM     34  O   UNL     1      -5.627  -2.587 127.319  0.00  0.00    +0.000 OA
ATOM     35  C   UNL     1      -4.865  -2.491 129.493  0.00  0.00    +0.000 A 
ATOM     36  C   UNL     1      -5.262  -2.616 130.744  0.00  0.00    +0.000 A 
ATOM     37  O   UNL     1      -4.541  -3.503 131.442  0.00  0.00    +0.000 OA
ATOM     38  C   UNL     1      -5.377  -3.859 132.504  0.00  0.00    +0.000 A 
ATOM     39  C   UNL     1      -5.907  -5.357 133.431  0.00  0.00    +0.000 A 
ATOM     40  C   UNL     1      -6.410  -5.490 135.301  0.00  0.00    +0.000 A 
ATOM     41  C   UNL     1      -6.160  -3.943 136.527  0.00  0.00    +0.000 A 
ATOM     42  C   UNL     1      -5.440  -2.325 135.756  0.00  0.00    +0.000 A 
ATOM     43  C   UNL     1      -5.246  -2.291 133.713  0.00  0.00    +0.000 A 
BRANCH  40  44
ATOM     44  O   UNL     1      -7.512  -6.298 135.382  0.00  0.00    +0.000 OA
ATOM     45  H   UNL     1      -7.464  -6.562 136.335  0.00  0.00    +0.000 HD
ENDBRANCH  40  44
ENDBRANCH  26  29
BRANCH  27  46
ATOM     46  C   UNL     1      -7.946  -3.523 135.229  0.00  0.00    +0.000 C 
ATOM     47  O   UNL     1      -8.297  -2.694 136.056  0.00  0.00    +0.000 OA
BRANCH  46  48
ATOM     48  O   UNL     1      -9.013  -4.141 134.518  0.00  0.00    +0.000 OA
ATOM     49  H   UNL     1      -9.499  -3.651 133.809  0.00  0.00    +0.000 HD
ENDBRANCH  46  48
ENDBRANCH  27  46
ENDBRANCH  21  23
ENDBRANCH  19  21
ENDBRANCH  17  19
ENDBRANCH  16  17
ENDBRANCH  15  16
ENDBRANCH  14  15
ENDBRANCH  13  14
ENDBRANCH  12  13
ENDBRANCH  11  12
ENDBRANCH  10  11
ENDBRANCH   9  10
ENDBRANCH   8   9
ENDBRANCH   7   8
ENDBRANCH   6   7
ENDBRANCH   3   6
BRANCH   1  50
ATOM     50  C   UNL     1      -2.195   5.571 131.253  0.00  0.00    +0.000 C 
BRANCH  50  53
ATOM     51  O   UNL     1      -2.338   7.472 128.024  0.00  0.00    +0.000 OA
ATOM     52  C   UNL     1      -2.628   6.908 129.059  0.00  0.00    +0.000 C 
ATOM     53  N   UNL     1      -1.846   6.413 130.072  0.00  0.00    +0.000 N 
ATOM     54  H   UNL     1      -0.872   6.553 129.875  0.00  0.00    +0.000 HD
BRANCH  52  55
ATOM     55  C   UNL     1      -3.954   6.464 129.159  0.00  0.00    +0.000 C 
BRANCH  55  56
ATOM     56  C   UNL     1      -5.086   7.196 130.688  0.00  0.00    +0.000 C 
BRANCH  56  57
ATOM     57  C   UNL     1      -6.054   6.066 131.827  0.00  0.00    +0.000 C 
ATOM     58  O   UNL     1      -7.167   6.305 132.189  0.00  0.00    +0.000 OA
ATOM     59  N   UNL     1      -5.990   4.981 132.575  0.00  0.00    +0.000 N 
ATOM     60  H   UNL     1      -5.570   4.326 131.966  0.00  0.00    +0.000 HD
BRANCH  59  61
ATOM     61  C   UNL     1      -7.276   4.856 133.558  0.00  0.00    +0.000 C 
ATOM     62  C   UNL     1      -6.849   4.626 135.227  0.00  0.00    +0.000 C 
ATOM     63  C   UNL     1      -5.503   3.773 135.548  0.00  0.00    +0.000 C 
ATOM     64  C   UNL     1      -5.685   2.094 135.208  0.00  0.00    +0.000 C 
ATOM     65  N   UNL     1      -6.181   1.490 133.791  0.00  0.00    +0.000 N 
ATOM     66  C   UNL     1      -5.151   1.713 132.942  0.00  0.00    +0.000 C 
ATOM     67  O   UNL     1      -4.048   1.962 133.627  0.00  0.00    +0.000 OA
ATOM     68  C   UNL     1      -7.393   1.972 133.031  0.00  0.00    +0.000 A 
ATOM     69  C   UNL     1      -7.889   0.866 132.374  0.00  0.00    +0.000 A 
ATOM     70  C   UNL     1      -9.209   0.975 132.071  0.00  0.00    +0.000 A 
ATOM     71  C   UNL     1      -9.935   2.208 132.206  0.00  0.00    +0.000 A 
ATOM     72  C   UNL     1      -9.385   3.446 132.608  0.00  0.00    +0.000 A 
ATOM     73  C   UNL     1      -8.062   3.396 133.007  0.00  0.00    +0.000 A 
BRANCH  66  74
ATOM     74  C   UNL     1      -5.568   1.885 131.015  0.00  0.00    +0.000 A 
ATOM     75  C   UNL     1      -6.082   0.914 130.108  0.00  0.00    +0.000 A 
ATOM     76  C   UNL     1      -6.435   1.212 128.758  0.00  0.00    +0.000 A 
ATOM     77  C   UNL     1      -6.639   2.518 128.328  0.00  0.00    +0.000 A 
ATOM     78  C   UNL     1      -6.728   3.472 129.258  0.00  0.00    +0.000 A 
ATOM     79  C   UNL     1      -6.037   3.172 130.393  0.00  0.00    +0.000 A 
BRANCH  77  80
ATOM     80  N   UNL     1      -6.651   2.892 126.989  0.00  0.00    +0.000 N 
ATOM     81  C   UNL     1      -5.797   2.309 126.051  0.00  0.00    +0.000 C 
ATOM     82  O   UNL     1      -4.898   1.498 126.254  0.00  0.00    +0.000 OA
ATOM     83  H   UNL     1      -7.427   3.472 126.711  0.00  0.00    +0.000 HD
BRANCH  81  84
ATOM     84  C   UNL     1      -5.999   2.685 124.654  0.00  0.00    +0.000 A 
ATOM     85  C   UNL     1      -5.348   3.816 124.161  0.00  0.00    +0.000 A 
ATOM     86  C   UNL     1      -5.649   4.261 122.882  0.00  0.00    +0.000 A 
ATOM     87  C   UNL     1      -6.406   3.462 122.034  0.00  0.00    +0.000 A 
ATOM     88  C   UNL     1      -6.857   2.215 122.466  0.00  0.00    +0.000 A 
ATOM     89  C   UNL     1      -6.774   1.857 123.815  0.00  0.00    +0.000 A 
BRANCH  89  90
ATOM     90  C   UNL     1      -7.471   0.655 124.313  0.00  0.00    +0.000 A 
ATOM     91  C   UNL     1      -8.401   0.727 125.369  0.00  0.00    +0.000 A 
ATOM     92  C   UNL     1      -8.805  -0.428 126.043  0.00  0.00    +0.000 A 
ATOM     93  C   UNL     1      -8.466  -1.671 125.531  0.00  0.00    +0.000 A 
ATOM     94  C   UNL     1      -7.729  -1.752 124.352  0.00  0.00    +0.000 A 
ATOM     95  C   UNL     1      -7.149  -0.607 123.809  0.00  0.00    +0.000 A 
ENDBRANCH  89  90
ENDBRANCH  81  84
ENDBRANCH  77  80
ENDBRANCH  66  74
ENDBRANCH  59  61
ENDBRANCH  56  57
ENDBRANCH  55  56
ENDBRANCH  52  55
ENDBRANCH  50  53
ENDBRANCH   1  50
TORSDOF 29
ENDMDL
MODEL 9
REMARK VINA RESULT:      -9.0      3.355      6.509
REMARK  Name = CHEMBL2172288
REMARK  29 active torsions:
REMARK  status: ('A' for Active; 'I' for Inactive)
REMARK    1  A    between atoms: C_2  and  C_3
REMARK    2  A    between atoms: C_3  and  C_4
REMARK    3  A    between atoms: C_4  and  C_5
REMARK    4  A    between atoms: N_7  and  C_8
REMARK    5  A    between atoms: C_13  and  C_15
REMARK    6  A    between atoms: C_18  and  N_19
REMARK    7  A    between atoms: C_20  and  C_22
REMARK    8  A    between atoms: C_27  and  C_28
REMARK    9  A    between atoms: N_42  and  C_43
REMARK   10  A    between atoms: C_43  and  C_44
REMARK   11  A    between atoms: N_46  and  C_47
REMARK   12  A    between atoms: C_47  and  C_48
REMARK   13  A    between atoms: C_48  and  O_49
REMARK   14  A    between atoms: O_49  and  C_50
REMARK   15  A    between atoms: C_50  and  C_51
REMARK   16  A    between atoms: C_51  and  O_52
REMARK   17  A    between atoms: O_52  and  C_53
REMARK   18  A    between atoms: C_53  and  C_54
REMARK   19  A    between atoms: C_54  and  O_55
REMARK   20  A    between atoms: O_55  and  C_56
REMARK   21  A    between atoms: C_56  and  C_57
REMARK   22  A    between atoms: C_57  and  N_58
REMARK   23  A    between atoms: N_58  and  C_59
REMARK   24  A    between atoms: C_59  and  N_61
REMARK   25  A    between atoms: N_61  and  C_62
REMARK   26  A    between atoms: C_65  and  C_66
REMARK   27  A    between atoms: C_77  and  O_78
REMARK   28  A    between atoms: C_82  and  C_83
REMARK   29  A    between atoms: C_83  and  O_85
REMARK                            x       y       z     vdW  Elec       q    Type
REMARK                         _______ _______ _______ _____ _____    ______ ____
ROOT
ATOM      1  C   UNL     1      -5.168  -0.230 136.328  0.00  0.00    +0.000 A 
ATOM      2  C   UNL     1      -5.567  -1.062 137.341  0.00  0.00    +0.000 A 
ATOM      3  N   UNL     1      -5.726  -2.273 136.733  0.00  0.00    +0.000 N 
ATOM      4  N   UNL     1      -5.428  -2.200 135.426  0.00  0.00    +0.000 NA
ATOM      5  N   UNL     1      -5.079  -0.948 135.167  0.00  0.00    +0.000 NA
ENDROOT
BRANCH   3   6
ATOM      6  C   UNL     1      -6.153  -3.518 137.330  0.00  0.00    +0.000 C 
BRANCH   6   7
ATOM      7  C   UNL     1      -6.225  -4.613 136.284  0.00  0.00    +0.000 C 
BRANCH   7   8
ATOM      8  O   UNL     1      -5.137  -5.512 136.400  0.00  0.00    +0.000 OA
BRANCH   8   9
ATOM      9  C   UNL     1      -4.860  -6.081 135.120  0.00  0.00    +0.000 C 
BRANCH   9  10
ATOM     10  C   UNL     1      -5.841  -5.527 134.114  0.00  0.00    +0.000 C 
BRANCH  10  11
ATOM     11  O   UNL     1      -5.196  -5.397 132.852  0.00  0.00    +0.000 OA
BRANCH  11  12
ATOM     12  C   UNL     1      -4.033  -4.586 132.994  0.00  0.00    +0.000 C 
BRANCH  12  13
ATOM     13  C   UNL     1      -4.191  -3.347 132.143  0.00  0.00    +0.000 C 
BRANCH  13  14
ATOM     14  O   UNL     1      -3.303  -3.417 131.036  0.00  0.00    +0.000 OA
BRANCH  14  15
ATOM     15  C   UNL     1      -3.995  -3.941 129.914  0.00  0.00    +0.000 C 
BRANCH  15  16
ATOM     16  C   UNL     1      -4.286  -2.832 128.954  0.00  0.00    +0.000 C 
BRANCH  16  17
ATOM     17  N   UNL     1      -5.708  -2.592 128.818  0.00  0.00    +0.000 N 
ATOM     18  H   UNL     1      -6.377  -3.158 129.319  0.00  0.00    +0.000 HD
BRANCH  17  19
ATOM     19  C   UNL     1      -6.165  -1.684 127.911  0.00  0.00    +0.000 C 
ATOM     20  S   UNL     1      -7.748  -1.841 127.280  0.00  0.00    +0.000 S 
BRANCH  19  21
ATOM     21  N   UNL     1      -5.205  -0.692 127.662  0.00  0.00    +0.000 N 
ATOM     22  H   UNL     1      -4.447  -0.786 126.997  0.00  0.00    +0.000 HD
BRANCH  21  23
ATOM     23  C   UNL     1      -5.342   0.559 128.229  0.00  0.00    +0.000 A 
ATOM     24  C   UNL     1      -5.924   0.693 129.373  0.00  0.00    +0.000 A 
ATOM     25  C   UNL     1      -6.678   1.763 129.259  0.00  0.00    +0.000 A 
ATOM     26  C   UNL     1      -7.372   2.819 127.902  0.00  0.00    +0.000 A 
ATOM     27  C   UNL     1      -6.580   3.175 126.989  0.00  0.00    +0.000 A 
ATOM     28  C   UNL     1      -5.446   1.703 127.411  0.00  0.00    +0.000 A 
BRANCH  26  29
ATOM     29  C   UNL     1      -8.492   4.225 128.013  0.00  0.00    +0.000 A 
ATOM     30  C   UNL     1      -8.895   4.974 129.187  0.00  0.00    +0.000 A 
ATOM     31  C   UNL     1      -9.244   6.400 129.390  0.00  0.00    +0.000 A 
ATOM     32  C   UNL     1      -9.522   6.858 130.647  0.00  0.00    +0.000 A 
ATOM     33  C   UNL     1      -9.529   5.996 131.881  0.00  0.00    +0.000 A 
ATOM     34  O   UNL     1      -9.787   6.402 133.006  0.00  0.00    +0.000 OA
ATOM     35  C   UNL     1      -9.182   4.607 131.692  0.00  0.00    +0.000 A 
ATOM     36  C   UNL     1      -8.726   4.299 130.494  0.00  0.00    +0.000 A 
ATOM     37  O   UNL     1      -7.620   3.543 130.528  0.00  0.00    +0.000 OA
ATOM     38  C   UNL     1      -7.032   3.745 129.276  0.00  0.00    +0.000 A 
ATOM     39  C   UNL     1      -5.374   4.031 128.534  0.00  0.00    +0.000 A 
ATOM     40  C   UNL     1      -4.736   3.483 126.784  0.00  0.00    +0.000 A 
ATOM     41  C   UNL     1      -5.831   2.275 125.643  0.00  0.00    +0.000 A 
ATOM     42  C   UNL     1      -7.544   1.724 126.344  0.00  0.00    +0.000 A 
ATOM     43  C   UNL     1      -8.161   2.640 128.076  0.00  0.00    +0.000 A 
BRANCH  40  44
ATOM     44  O   UNL     1      -4.027   4.525 126.251  0.00  0.00    +0.000 OA
ATOM     45  H   UNL     1      -4.297   5.252 126.865  0.00  0.00    +0.000 HD
ENDBRANCH  40  44
ENDBRANCH  26  29
BRANCH  27  46
ATOM     46  C   UNL     1      -6.808   4.282 125.529  0.00  0.00    +0.000 C 
ATOM     47  O   UNL     1      -7.482   3.954 124.562  0.00  0.00    +0.000 OA
BRANCH  46  48
ATOM     48  O   UNL     1      -6.414   5.649 125.541  0.00  0.00    +0.000 OA
ATOM     49  H   UNL     1      -5.571   5.928 125.978  0.00  0.00    +0.000 HD
ENDBRANCH  46  48
ENDBRANCH  27  46
ENDBRANCH  21  23
ENDBRANCH  19  21
ENDBRANCH  17  19
ENDBRANCH  16  17
ENDBRANCH  15  16
ENDBRANCH  14  15
ENDBRANCH  13  14
ENDBRANCH  12  13
ENDBRANCH  11  12
ENDBRANCH  10  11
ENDBRANCH   9  10
ENDBRANCH   8   9
ENDBRANCH   7   8
ENDBRANCH   6   7
ENDBRANCH   3   6
BRANCH   1  50
ATOM     50  C   UNL     1      -4.882   1.212 136.374  0.00  0.00    +0.000 C 
BRANCH  50  53
ATOM     51  O   UNL     1      -2.263   2.408 138.775  0.00  0.00    +0.000 OA
ATOM     52  C   UNL     1      -3.318   2.129 138.245  0.00  0.00    +0.000 C 
ATOM     53  N   UNL     1      -3.602   1.405 137.114  0.00  0.00    +0.000 N 
ATOM     54  H   UNL     1      -2.760   1.080 136.676  0.00  0.00    +0.000 HD
BRANCH  52  55
ATOM     55  C   UNL     1      -4.436   2.841 138.701  0.00  0.00    +0.000 C 
BRANCH  55  56
ATOM     56  C   UNL     1      -4.839   4.637 137.826  0.00  0.00    +0.000 C 
BRANCH  56  57
ATOM     57  C   UNL     1      -5.241   4.775 136.001  0.00  0.00    +0.000 C 
ATOM     58  O   UNL     1      -6.354   4.924 135.589  0.00  0.00    +0.000 OA
ATOM     59  N   UNL     1      -4.747   4.692 134.781  0.00  0.00    +0.000 N 
ATOM     60  H   UNL     1      -3.936   5.251 134.841  0.00  0.00    +0.000 HD
BRANCH  59  61
ATOM     61  C   UNL     1      -5.923   4.629 133.663  0.00  0.00    +0.000 C 
ATOM     62  C   UNL     1      -6.239   3.021 133.083  0.00  0.00    +0.000 C 
ATOM     63  C   UNL     1      -4.982   1.996 132.989  0.00  0.00    +0.000 C 
ATOM     64  C   UNL     1      -3.889   2.399 131.721  0.00  0.00    +0.000 C 
ATOM     65  N   UNL     1      -3.201   3.851 131.524  0.00  0.00    +0.000 N 
ATOM     66  C   UNL     1      -2.311   3.950 132.538  0.00  0.00    +0.000 C 
ATOM     67  O   UNL     1      -2.064   2.752 133.041  0.00  0.00    +0.000 OA
ATOM     68  C   UNL     1      -3.946   5.164 131.561  0.00  0.00    +0.000 A 
ATOM     69  C   UNL     1      -3.276   6.000 130.694  0.00  0.00    +0.000 A 
ATOM     70  C   UNL     1      -4.055   7.006 130.216  0.00  0.00    +0.000 A 
ATOM     71  C   UNL     1      -5.356   7.298 130.752  0.00  0.00    +0.000 A 
ATOM     72  C   UNL     1      -5.963   6.637 131.844  0.00  0.00    +0.000 A 
ATOM     73  C   UNL     1      -5.261   5.551 132.333  0.00  0.00    +0.000 A 
BRANCH  66  74
ATOM     74  C   UNL     1      -1.838   5.764 133.173  0.00  0.00    +0.000 A 
ATOM     75  C   UNL     1      -1.971   6.334 134.472  0.00  0.00    +0.000 A 
ATOM     76  C   UNL     1      -1.485   7.632 134.811  0.00  0.00    +0.000 A 
ATOM     77  C   UNL     1      -0.550   8.292 134.023  0.00  0.00    +0.000 A 
ATOM     78  C   UNL     1       0.062   7.589 133.066  0.00  0.00    +0.000 A 
ATOM     79  C   UNL     1      -0.694   6.556 132.600  0.00  0.00    +0.000 A 
BRANCH  77  80
ATOM     80  N   UNL     1      -0.297   9.655 134.111  0.00  0.00    +0.000 N 
ATOM     81  C   UNL     1       0.420  10.207 135.175  0.00  0.00    +0.000 C 
ATOM     82  O   UNL     1       0.835   9.635 136.179  0.00  0.00    +0.000 OA
ATOM     83  H   UNL     1      -0.506  10.187 133.281  0.00  0.00    +0.000 HD
BRANCH  81  84
ATOM     84  C   UNL     1       0.738  11.630 135.086  0.00  0.00    +0.000 A 
ATOM     85  C   UNL     1       1.793  12.033 134.266  0.00  0.00    +0.000 A 
ATOM     86  C   UNL     1       2.192  13.361 134.289  0.00  0.00    +0.000 A 
ATOM     87  C   UNL     1       1.407  14.306 134.939  0.00  0.00    +0.000 A 
ATOM     88  C   UNL     1       0.220  13.921 135.560  0.00  0.00    +0.000 A 
ATOM     89  C   UNL     1      -0.074  12.568 135.756  0.00  0.00    +0.000 A 
BRANCH  89  90
ATOM     90  C   UNL     1      -1.196  12.166 136.627  0.00  0.00    +0.000 A 
ATOM     91  C   UNL     1      -2.215  11.308 136.167  0.00  0.00    +0.000 A 
ATOM     92  C   UNL     1      -3.419  11.193 136.866  0.00  0.00    +0.000 A 
ATOM     93  C   UNL     1      -3.529  11.748 138.131  0.00  0.00    +0.000 A 
ATOM     94  C   UNL     1      -2.439  12.411 138.690  0.00  0.00    +0.000 A 
ATOM     95  C   UNL     1      -1.326  12.708 137.907  0.00  0.00    +0.000 A 
ENDBRANCH  89  90
ENDBRANCH  81  84
ENDBRANCH  77  80
ENDBRANCH  66  74
ENDBRANCH  59  61
ENDBRANCH  56  57
ENDBRANCH  55  56
ENDBRANCH  52  55
ENDBRANCH  50  53
ENDBRANCH   1  50
TORSDOF 29
ENDMDL
