MODEL 1
REMARK VINA RESULT:     -10.7      0.000      0.000
REMARK  Name = CHEMBL66992
REMARK  7 active torsions:
REMARK  status: ('A' for Active; 'I' for Inactive)
REMARK    1  A    between atoms: C_1  and  O_2
REMARK    2  A    between atoms: O_2  and  C_3
REMARK    3  A    between atoms: C_5  and  O_6
REMARK    4  A    between atoms: O_6  and  C_7
REMARK    5  A    between atoms: N_10  and  C_11
REMARK    6  A    between atoms: C_27  and  C_28
REMARK    7  A    between atoms: C_33  and  N_34
REMARK                            x       y       z     vdW  Elec       q    Type
REMARK                         _______ _______ _______ _____ _____    ______ ____
ROOT
ATOM      1  C   UNL     1      -5.157   1.675 131.172  0.00  0.00    +0.000 A 
ATOM      2  C   UNL     1      -4.521   0.405 130.618  0.00  0.00    +0.000 A 
ATOM      3  C   UNL     1      -4.004  -0.562 131.405  0.00  0.00    +0.000 A 
ATOM      4  C   UNL     1      -4.246  -0.123 132.629  0.00  0.00    +0.000 A 
ATOM      5  F   UNL     1      -3.453  -0.696 133.404  0.00  0.00    +0.000 F 
ATOM      6  C   UNL     1      -5.050   0.904 133.141  0.00  0.00    +0.000 A 
ATOM      7  C   UNL     1      -5.446   1.924 132.488  0.00  0.00    +0.000 A 
ENDROOT
BRANCH   7   8
ATOM      8  C   UNL     1      -5.979   2.987 133.442  0.00  0.00    +0.000 C 
ATOM      9  O   UNL     1      -5.649   3.217 134.612  0.00  0.00    +0.000 OA
ATOM     10  N   UNL     1      -6.992   3.645 132.930  0.00  0.00    +0.000 N 
ATOM     11  C   UNL     1      -6.892   5.059 132.710  0.00  0.00    +0.000 C 
ATOM     12  C   UNL     1      -8.114   5.685 133.307  0.00  0.00    +0.000 C 
ATOM     13  C   UNL     1      -9.378   4.940 132.817  0.00  0.00    +0.000 C 
ATOM     14  C   UNL     1      -9.357   3.449 133.172  0.00  0.00    +0.000 C 
ATOM     15  C   UNL     1      -8.130   2.846 132.613  0.00  0.00    +0.000 C 
BRANCH  13  16
ATOM     16  N   UNL     1      -9.668   5.251 131.375  0.00  0.00    +0.000 N 
ATOM     17  C   UNL     1      -8.966   4.737 130.271  0.00  0.00    +0.000 C 
ATOM     18  O   UNL     1      -8.674   3.607 130.018  0.00  0.00    +0.000 OA
ATOM     19  O   UNL     1      -8.584   5.700 129.392  0.00  0.00    +0.000 OA
ATOM     20  C   UNL     1      -9.720   6.170 128.714  0.00  0.00    +0.000 C 
ATOM     21  C   UNL     1     -10.746   6.618 129.707  0.00  0.00    +0.000 A 
ATOM     22  C   UNL     1     -11.759   7.470 129.292  0.00  0.00    +0.000 A 
ATOM     23  C   UNL     1     -12.723   7.880 130.201  0.00  0.00    +0.000 A 
ATOM     24  C   UNL     1     -12.688   7.424 131.517  0.00  0.00    +0.000 A 
ATOM     25  C   UNL     1     -11.679   6.563 131.938  0.00  0.00    +0.000 A 
ATOM     26  C   UNL     1     -10.694   6.165 131.039  0.00  0.00    +0.000 A 
ENDBRANCH  13  16
ENDBRANCH   7   8
BRANCH   1  28
ATOM     27  C   UNL     1      -4.204   3.309 130.121  0.00  0.00    +0.000 C 
ATOM     28  O   UNL     1      -5.443   2.672 130.321  0.00  0.00    +0.000 OA
ENDBRANCH   1  28
BRANCH   3  29
ATOM     29  O   UNL     1      -3.249  -1.700 131.253  0.00  0.00    +0.000 OA
BRANCH  29  30
ATOM     30  C   UNL     1      -3.731  -3.064 130.628  0.00  0.00    +0.000 C 
ATOM     31  C   UNL     1      -3.785  -3.181 129.075  0.00  0.00    +0.000 C 
ATOM     32  C   UNL     1      -5.119  -2.715 128.479  0.00  0.00    +0.000 C 
ATOM     33  N   UNL     1      -6.470  -3.289 129.182  0.00  0.00    +0.000 NA
ATOM     34  C   UNL     1      -6.389  -3.381 130.704  0.00  0.00    +0.000 C 
ATOM     35  C   UNL     1      -4.994  -3.817 131.231  0.00  0.00    +0.000 C 
BRANCH  33  36
ATOM     36  C   UNL     1      -7.622  -2.436 128.668  0.00  0.00    +0.000 C 
ATOM     37  C   UNL     1      -8.639  -3.253 128.033  0.00  0.00    +0.000 C 
ATOM     38  C   UNL     1      -8.432  -3.665 126.487  0.00  0.00    +0.000 C 
ATOM     39  C   UNL     1      -9.120  -2.573 125.777  0.00  0.00    +0.000 C 
ATOM     40  C   UNL     1      -8.591  -1.341 126.439  0.00  0.00    +0.000 A 
ATOM     41  C   UNL     1      -7.802  -1.278 127.694  0.00  0.00    +0.000 A 
ATOM     42  C   UNL     1      -7.647  -0.053 128.295  0.00  0.00    +0.000 A 
ATOM     43  C   UNL     1      -8.135   1.067 127.660  0.00  0.00    +0.000 A 
ATOM     44  C   UNL     1      -8.823   0.982 126.447  0.00  0.00    +0.000 A 
ATOM     45  N   UNL     1      -9.098  -0.212 125.846  0.00  0.00    +0.000 N 
ATOM     46  O   UNL     1      -9.807  -0.255 124.791  0.00  0.00    +0.000 OA
ENDBRANCH  33  36
ENDBRANCH  29  30
ENDBRANCH   3  29
TORSDOF 6
ENDMDL
MODEL 2
REMARK VINA RESULT:     -10.5      3.614      8.719
REMARK  Name = CHEMBL66992
REMARK  7 active torsions:
REMARK  status: ('A' for Active; 'I' for Inactive)
REMARK    1  A    between atoms: C_1  and  O_2
REMARK    2  A    between atoms: O_2  and  C_3
REMARK    3  A    between atoms: C_5  and  O_6
REMARK    4  A    between atoms: O_6  and  C_7
REMARK    5  A    between atoms: N_10  and  C_11
REMARK    6  A    between atoms: C_27  and  C_28
REMARK    7  A    between atoms: C_33  and  N_34
REMARK                            x       y       z     vdW  Elec       q    Type
REMARK                         _______ _______ _______ _____ _____    ______ ____
ROOT
ATOM      1  C   UNL     1      -3.315   4.133 127.545  0.00  0.00    +0.000 A 
ATOM      2  C   UNL     1      -2.378   4.682 128.615  0.00  0.00    +0.000 A 
ATOM      3  C   UNL     1      -2.432   5.956 129.056  0.00  0.00    +0.000 A 
ATOM      4  C   UNL     1      -3.450   6.469 128.385  0.00  0.00    +0.000 A 
ATOM      5  F   UNL     1      -3.319   7.710 128.384  0.00  0.00    +0.000 F 
ATOM      6  C   UNL     1      -4.467   5.908 127.602  0.00  0.00    +0.000 A 
ATOM      7  C   UNL     1      -4.414   4.770 127.031  0.00  0.00    +0.000 A 
ENDROOT
BRANCH   7   8
ATOM      8  C   UNL     1      -5.519   4.650 125.988  0.00  0.00    +0.000 C 
ATOM      9  O   UNL     1      -6.031   5.536 125.293  0.00  0.00    +0.000 OA
ATOM     10  N   UNL     1      -6.026   3.441 125.944  0.00  0.00    +0.000 N 
ATOM     11  C   UNL     1      -5.929   2.666 124.742  0.00  0.00    +0.000 C 
ATOM     12  C   UNL     1      -7.298   2.138 124.446  0.00  0.00    +0.000 C 
ATOM     13  C   UNL     1      -7.892   1.479 125.714  0.00  0.00    +0.000 C 
ATOM     14  C   UNL     1      -7.975   2.451 126.897  0.00  0.00    +0.000 C 
ATOM     15  C   UNL     1      -6.628   2.996 127.159  0.00  0.00    +0.000 C 
BRANCH  13  16
ATOM     16  N   UNL     1      -7.222   0.166 126.008  0.00  0.00    +0.000 N 
ATOM     17  C   UNL     1      -6.938  -0.337 127.290  0.00  0.00    +0.000 C 
ATOM     18  O   UNL     1      -7.652  -0.432 128.242  0.00  0.00    +0.000 OA
ATOM     19  O   UNL     1      -5.653  -0.762 127.417  0.00  0.00    +0.000 OA
ATOM     20  C   UNL     1      -5.498  -1.953 126.689  0.00  0.00    +0.000 C 
ATOM     21  C   UNL     1      -5.934  -1.734 125.274  0.00  0.00    +0.000 A 
ATOM     22  C   UNL     1      -5.509  -2.619 124.294  0.00  0.00    +0.000 A 
ATOM     23  C   UNL     1      -5.919  -2.434 122.982  0.00  0.00    +0.000 A 
ATOM     24  C   UNL     1      -6.769  -1.381 122.652  0.00  0.00    +0.000 A 
ATOM     25  C   UNL     1      -7.206  -0.495 123.632  0.00  0.00    +0.000 A 
ATOM     26  C   UNL     1      -6.781  -0.659 124.947  0.00  0.00    +0.000 A 
ENDBRANCH  13  16
ENDBRANCH   7   8
BRANCH   1  28
ATOM     27  C   UNL     1      -1.712   3.042 126.583  0.00  0.00    +0.000 C 
ATOM     28  O   UNL     1      -3.047   2.929 127.015  0.00  0.00    +0.000 OA
ENDBRANCH   1  28
BRANCH   3  29
ATOM     29  O   UNL     1      -1.680   6.790 129.848  0.00  0.00    +0.000 OA
BRANCH  29  30
ATOM     30  C   UNL     1      -1.593   6.758 131.421  0.00  0.00    +0.000 C 
ATOM     31  C   UNL     1      -1.294   5.395 132.112  0.00  0.00    +0.000 C 
ATOM     32  C   UNL     1      -2.558   4.576 132.408  0.00  0.00    +0.000 C 
ATOM     33  N   UNL     1      -3.787   5.368 133.122  0.00  0.00    +0.000 NA
ATOM     34  C   UNL     1      -3.991   6.793 132.612  0.00  0.00    +0.000 C 
ATOM     35  C   UNL     1      -2.666   7.539 132.295  0.00  0.00    +0.000 C 
BRANCH  33  36
ATOM     36  C   UNL     1      -5.014   4.475 132.990  0.00  0.00    +0.000 C 
ATOM     37  C   UNL     1      -5.085   3.874 131.671  0.00  0.00    +0.000 C 
ATOM     38  C   UNL     1      -5.749   4.731 130.476  0.00  0.00    +0.000 C 
ATOM     39  C   UNL     1      -7.162   4.323 130.544  0.00  0.00    +0.000 C 
ATOM     40  C   UNL     1      -7.489   4.441 131.999  0.00  0.00    +0.000 A 
ATOM     41  C   UNL     1      -6.524   4.633 133.111  0.00  0.00    +0.000 A 
ATOM     42  C   UNL     1      -6.975   4.436 134.392  0.00  0.00    +0.000 A 
ATOM     43  C   UNL     1      -8.312   4.176 134.597  0.00  0.00    +0.000 A 
ATOM     44  C   UNL     1      -9.208   4.061 133.531  0.00  0.00    +0.000 A 
ATOM     45  N   UNL     1      -8.808   4.146 132.228  0.00  0.00    +0.000 N 
ATOM     46  O   UNL     1      -9.637   3.943 131.285  0.00  0.00    +0.000 OA
ENDBRANCH  33  36
ENDBRANCH  29  30
ENDBRANCH   3  29
TORSDOF 6
ENDMDL
MODEL 3
REMARK VINA RESULT:     -10.4      3.183      8.717
REMARK  Name = CHEMBL66992
REMARK  7 active torsions:
REMARK  status: ('A' for Active; 'I' for Inactive)
REMARK    1  A    between atoms: C_1  and  O_2
REMARK    2  A    between atoms: O_2  and  C_3
REMARK    3  A    between atoms: C_5  and  O_6
REMARK    4  A    between atoms: O_6  and  C_7
REMARK    5  A    between atoms: N_10  and  C_11
REMARK    6  A    between atoms: C_27  and  C_28
REMARK    7  A    between atoms: C_33  and  N_34
REMARK                            x       y       z     vdW  Elec       q    Type
REMARK                         _______ _______ _______ _____ _____    ______ ____
ROOT
ATOM      1  C   UNL     1      -8.647   4.829 128.808  0.00  0.00    +0.000 A 
ATOM      2  C   UNL     1      -9.017   4.525 130.256  0.00  0.00    +0.000 A 
ATOM      3  C   UNL     1      -8.475   3.505 130.955  0.00  0.00    +0.000 A 
ATOM      4  C   UNL     1      -7.611   2.977 130.104  0.00  0.00    +0.000 A 
ATOM      5  F   UNL     1      -7.383   1.806 130.471  0.00  0.00    +0.000 F 
ATOM      6  C   UNL     1      -7.084   3.404 128.878  0.00  0.00    +0.000 A 
ATOM      7  C   UNL     1      -7.627   4.253 128.098  0.00  0.00    +0.000 A 
ENDROOT
BRANCH   7   8
ATOM      8  C   UNL     1      -6.974   4.199 126.722  0.00  0.00    +0.000 C 
ATOM      9  O   UNL     1      -6.320   5.070 126.137  0.00  0.00    +0.000 OA
ATOM     10  N   UNL     1      -7.271   3.094 126.080  0.00  0.00    +0.000 N 
ATOM     11  C   UNL     1      -6.232   2.178 125.708  0.00  0.00    +0.000 C 
ATOM     12  C   UNL     1      -6.426   1.855 124.259  0.00  0.00    +0.000 C 
ATOM     13  C   UNL     1      -7.899   1.458 124.003  0.00  0.00    +0.000 C 
ATOM     14  C   UNL     1      -8.885   2.561 124.406  0.00  0.00    +0.000 C 
ATOM     15  C   UNL     1      -8.662   2.900 125.826  0.00  0.00    +0.000 C 
BRANCH  13  16
ATOM     16  N   UNL     1      -8.199   0.094 124.561  0.00  0.00    +0.000 N 
ATOM     17  C   UNL     1      -9.197  -0.200 125.506  0.00  0.00    +0.000 C 
ATOM     18  O   UNL     1     -10.351   0.109 125.511  0.00  0.00    +0.000 OA
ATOM     19  O   UNL     1      -8.736  -0.943 126.547  0.00  0.00    +0.000 OA
ATOM     20  C   UNL     1      -8.489  -2.249 126.094  0.00  0.00    +0.000 C 
ATOM     21  C   UNL     1      -7.566  -2.204 124.917  0.00  0.00    +0.000 A 
ATOM     22  C   UNL     1      -6.875  -3.352 124.558  0.00  0.00    +0.000 A 
ATOM     23  C   UNL     1      -6.028  -3.325 123.460  0.00  0.00    +0.000 A 
ATOM     24  C   UNL     1      -5.887  -2.160 122.709  0.00  0.00    +0.000 A 
ATOM     25  C   UNL     1      -6.583  -1.008 123.059  0.00  0.00    +0.000 A 
ATOM     26  C   UNL     1      -7.417  -1.018 124.173  0.00  0.00    +0.000 A 
ENDBRANCH  13  16
ENDBRANCH   7   8
BRANCH   1  28
ATOM     27  C   UNL     1     -10.029   6.462 129.141  0.00  0.00    +0.000 C 
ATOM     28  O   UNL     1      -9.391   5.717 128.130  0.00  0.00    +0.000 OA
ENDBRANCH   1  28
BRANCH   3  29
ATOM     29  O   UNL     1      -8.682   2.874 132.157  0.00  0.00    +0.000 OA
BRANCH  29  30
ATOM     30  C   UNL     1      -7.738   2.930 133.417  0.00  0.00    +0.000 C 
ATOM     31  C   UNL     1      -7.041   4.283 133.753  0.00  0.00    +0.000 C 
ATOM     32  C   UNL     1      -5.696   4.465 133.038  0.00  0.00    +0.000 C 
ATOM     33  N   UNL     1      -4.661   3.210 133.106  0.00  0.00    +0.000 NA
ATOM     34  C   UNL     1      -5.330   1.843 132.981  0.00  0.00    +0.000 C 
ATOM     35  C   UNL     1      -6.707   1.753 133.694  0.00  0.00    +0.000 C 
BRANCH  33  36
ATOM     36  C   UNL     1      -3.586   3.478 132.060  0.00  0.00    +0.000 C 
ATOM     37  C   UNL     1      -2.502   4.268 132.613  0.00  0.00    +0.000 C 
ATOM     38  C   UNL     1      -2.669   5.872 132.655  0.00  0.00    +0.000 C 
ATOM     39  C   UNL     1      -2.078   6.283 131.370  0.00  0.00    +0.000 C 
ATOM     40  C   UNL     1      -2.712   5.357 130.382  0.00  0.00    +0.000 A 
ATOM     41  C   UNL     1      -3.506   4.141 130.691  0.00  0.00    +0.000 A 
ATOM     42  C   UNL     1      -3.767   3.268 129.665  0.00  0.00    +0.000 A 
ATOM     43  C   UNL     1      -3.377   3.604 128.387  0.00  0.00    +0.000 A 
ATOM     44  C   UNL     1      -2.683   4.786 128.120  0.00  0.00    +0.000 A 
ATOM     45  N   UNL     1      -2.305   5.650 129.106  0.00  0.00    +0.000 N 
ATOM     46  O   UNL     1      -1.593   6.669 128.834  0.00  0.00    +0.000 OA
ENDBRANCH  33  36
ENDBRANCH  29  30
ENDBRANCH   3  29
TORSDOF 6
ENDMDL
MODEL 4
REMARK VINA RESULT:     -10.3      2.986      8.122
REMARK  Name = CHEMBL66992
REMARK  7 active torsions:
REMARK  status: ('A' for Active; 'I' for Inactive)
REMARK    1  A    between atoms: C_1  and  O_2
REMARK    2  A    between atoms: O_2  and  C_3
REMARK    3  A    between atoms: C_5  and  O_6
REMARK    4  A    between atoms: O_6  and  C_7
REMARK    5  A    between atoms: N_10  and  C_11
REMARK    6  A    between atoms: C_27  and  C_28
REMARK    7  A    between atoms: C_33  and  N_34
REMARK                            x       y       z     vdW  Elec       q    Type
REMARK                         _______ _______ _______ _____ _____    ______ ____
ROOT
ATOM      1  C   UNL     1      -7.071   0.960 132.708  0.00  0.00    +0.000 A 
ATOM      2  C   UNL     1      -7.654   2.342 132.984  0.00  0.00    +0.000 A 
ATOM      3  C   UNL     1      -8.874   2.724 132.551  0.00  0.00    +0.000 A 
ATOM      4  C   UNL     1      -9.337   1.644 131.946  0.00  0.00    +0.000 A 
ATOM      5  F   UNL     1     -10.234   2.003 131.157  0.00  0.00    +0.000 F 
ATOM      6  C   UNL     1      -8.921   0.306 131.913  0.00  0.00    +0.000 A 
ATOM      7  C   UNL     1      -7.740  -0.104 132.163  0.00  0.00    +0.000 A 
ENDROOT
BRANCH   7   8
ATOM      8  C   UNL     1      -7.567  -1.540 131.682  0.00  0.00    +0.000 C 
ATOM      9  O   UNL     1      -7.449  -2.574 132.350  0.00  0.00    +0.000 OA
ATOM     10  N   UNL     1      -7.427  -1.609 130.380  0.00  0.00    +0.000 N 
ATOM     11  C   UNL     1      -8.390  -2.324 129.592  0.00  0.00    +0.000 C 
ATOM     12  C   UNL     1      -7.625  -3.243 128.690  0.00  0.00    +0.000 C 
ATOM     13  C   UNL     1      -6.504  -2.458 127.969  0.00  0.00    +0.000 C 
ATOM     14  C   UNL     1      -5.529  -1.792 128.947  0.00  0.00    +0.000 C 
ATOM     15  C   UNL     1      -6.295  -0.917 129.858  0.00  0.00    +0.000 C 
BRANCH  13  16
ATOM     16  N   UNL     1      -7.070  -1.551 126.911  0.00  0.00    +0.000 N 
ATOM     17  C   UNL     1      -7.978  -0.502 127.135  0.00  0.00    +0.000 C 
ATOM     18  O   UNL     1      -7.932   0.383 127.936  0.00  0.00    +0.000 OA
ATOM     19  O   UNL     1      -9.047  -0.541 126.297  0.00  0.00    +0.000 OA
ATOM     20  C   UNL     1      -8.623  -0.176 125.008  0.00  0.00    +0.000 C 
ATOM     21  C   UNL     1      -7.484  -1.052 124.590  0.00  0.00    +0.000 A 
ATOM     22  C   UNL     1      -7.170  -1.152 123.242  0.00  0.00    +0.000 A 
ATOM     23  C   UNL     1      -6.108  -1.950 122.845  0.00  0.00    +0.000 A 
ATOM     24  C   UNL     1      -5.346  -2.630 123.793  0.00  0.00    +0.000 A 
ATOM     25  C   UNL     1      -5.650  -2.528 125.146  0.00  0.00    +0.000 A 
ATOM     26  C   UNL     1      -6.729  -1.748 125.553  0.00  0.00    +0.000 A 
ENDBRANCH  13  16
ENDBRANCH   7   8
BRANCH   1  28
ATOM     27  C   UNL     1      -5.106   1.756 132.266  0.00  0.00    +0.000 C 
ATOM     28  O   UNL     1      -5.775   0.745 132.984  0.00  0.00    +0.000 OA
ENDBRANCH   1  28
BRANCH   3  29
ATOM     29  O   UNL     1      -9.609   3.883 132.481  0.00  0.00    +0.000 OA
BRANCH  29  30
ATOM     30  C   UNL     1      -9.257   5.163 131.632  0.00  0.00    +0.000 C 
ATOM     31  C   UNL     1      -9.295   5.047 130.079  0.00  0.00    +0.000 C 
ATOM     32  C   UNL     1      -7.965   4.578 129.474  0.00  0.00    +0.000 C 
ATOM     33  N   UNL     1      -6.621   5.332 129.999  0.00  0.00    +0.000 NA
ATOM     34  C   UNL     1      -6.627   5.648 131.493  0.00  0.00    +0.000 C 
ATOM     35  C   UNL     1      -8.019   6.073 132.037  0.00  0.00    +0.000 C 
BRANCH  33  36
ATOM     36  C   UNL     1      -5.442   4.482 129.545  0.00  0.00    +0.000 C 
ATOM     37  C   UNL     1      -4.180   5.121 129.865  0.00  0.00    +0.000 C 
ATOM     38  C   UNL     1      -3.602   6.227 128.842  0.00  0.00    +0.000 C 
ATOM     39  C   UNL     1      -2.761   5.417 127.945  0.00  0.00    +0.000 C 
ATOM     40  C   UNL     1      -3.643   4.263 127.589  0.00  0.00    +0.000 A 
ATOM     41  C   UNL     1      -4.930   3.899 128.233  0.00  0.00    +0.000 A 
ATOM     42  C   UNL     1      -5.454   2.659 127.966  0.00  0.00    +0.000 A 
ATOM     43  C   UNL     1      -4.826   1.855 127.041  0.00  0.00    +0.000 A 
ATOM     44  C   UNL     1      -3.646   2.251 126.406  0.00  0.00    +0.000 A 
ATOM     45  N   UNL     1      -3.019   3.428 126.698  0.00  0.00    +0.000 N 
ATOM     46  O   UNL     1      -1.899   3.710 126.167  0.00  0.00    +0.000 OA
ENDBRANCH  33  36
ENDBRANCH  29  30
ENDBRANCH   3  29
TORSDOF 6
ENDMDL
MODEL 5
REMARK VINA RESULT:     -10.2      3.014      5.828
REMARK  Name = CHEMBL66992
REMARK  7 active torsions:
REMARK  status: ('A' for Active; 'I' for Inactive)
REMARK    1  A    between atoms: C_1  and  O_2
REMARK    2  A    between atoms: O_2  and  C_3
REMARK    3  A    between atoms: C_5  and  O_6
REMARK    4  A    between atoms: O_6  and  C_7
REMARK    5  A    between atoms: N_10  and  C_11
REMARK    6  A    between atoms: C_27  and  C_28
REMARK    7  A    between atoms: C_33  and  N_34
REMARK                            x       y       z     vdW  Elec       q    Type
REMARK                         _______ _______ _______ _____ _____    ______ ____
ROOT
ATOM      1  C   UNL     1      -6.035  -1.894 128.099  0.00  0.00    +0.000 A 
ATOM      2  C   UNL     1      -6.182  -2.198 126.612  0.00  0.00    +0.000 A 
ATOM      3  C   UNL     1      -7.309  -2.710 126.075  0.00  0.00    +0.000 A 
ATOM      4  C   UNL     1      -8.130  -2.795 127.108  0.00  0.00    +0.000 A 
ATOM      5  F   UNL     1      -9.012  -3.632 126.827  0.00  0.00    +0.000 F 
ATOM      6  C   UNL     1      -8.092  -2.282 128.412  0.00  0.00    +0.000 A 
ATOM      7  C   UNL     1      -7.038  -1.923 129.032  0.00  0.00    +0.000 A 
ENDROOT
BRANCH   7   8
ATOM      8  C   UNL     1      -7.328  -1.769 130.521  0.00  0.00    +0.000 C 
ATOM      9  O   UNL     1      -7.700  -2.626 131.332  0.00  0.00    +0.000 OA
ATOM     10  N   UNL     1      -7.255  -0.519 130.909  0.00  0.00    +0.000 N 
ATOM     11  C   UNL     1      -6.284  -0.128 131.890  0.00  0.00    +0.000 C 
ATOM     12  C   UNL     1      -7.008   0.665 132.935  0.00  0.00    +0.000 C 
ATOM     13  C   UNL     1      -7.871   1.757 132.260  0.00  0.00    +0.000 C 
ATOM     14  C   UNL     1      -8.893   1.176 131.276  0.00  0.00    +0.000 C 
ATOM     15  C   UNL     1      -8.176   0.364 130.272  0.00  0.00    +0.000 C 
BRANCH  13  16
ATOM     16  N   UNL     1      -7.015   2.866 131.714  0.00  0.00    +0.000 N 
ATOM     17  C   UNL     1      -5.667   2.746 131.335  0.00  0.00    +0.000 C 
ATOM     18  O   UNL     1      -5.146   1.933 130.632  0.00  0.00    +0.000 OA
ATOM     19  O   UNL     1      -4.879   3.715 131.871  0.00  0.00    +0.000 OA
ATOM     20  C   UNL     1      -5.165   4.934 131.234  0.00  0.00    +0.000 C 
ATOM     21  C   UNL     1      -6.632   5.214 131.327  0.00  0.00    +0.000 A 
ATOM     22  C   UNL     1      -7.084   6.511 131.133  0.00  0.00    +0.000 A 
ATOM     23  C   UNL     1      -8.443   6.780 131.204  0.00  0.00    +0.000 A 
ATOM     24  C   UNL     1      -9.351   5.752 131.446  0.00  0.00    +0.000 A 
ATOM     25  C   UNL     1      -8.906   4.448 131.633  0.00  0.00    +0.000 A 
ATOM     26  C   UNL     1      -7.542   4.172 131.587  0.00  0.00    +0.000 A 
ENDBRANCH  13  16
ENDBRANCH   7   8
BRANCH   1  28
ATOM     27  C   UNL     1      -4.256  -2.854 128.875  0.00  0.00    +0.000 C 
ATOM     28  O   UNL     1      -4.815  -1.597 128.574  0.00  0.00    +0.000 OA
ENDBRANCH   1  28
BRANCH   3  29
ATOM     29  O   UNL     1      -7.714  -3.231 124.870  0.00  0.00    +0.000 OA
BRANCH  29  30
ATOM     30  C   UNL     1      -7.755  -2.472 123.490  0.00  0.00    +0.000 C 
ATOM     31  C   UNL     1      -6.530  -1.593 123.099  0.00  0.00    +0.000 C 
ATOM     32  C   UNL     1      -6.628  -0.153 123.618  0.00  0.00    +0.000 C 
ATOM     33  N   UNL     1      -8.039   0.618 123.364  0.00  0.00    +0.000 NA
ATOM     34  C   UNL     1      -9.272  -0.265 123.542  0.00  0.00    +0.000 C 
ATOM     35  C   UNL     1      -9.078  -1.720 123.032  0.00  0.00    +0.000 C 
BRANCH  33  36
ATOM     36  C   UNL     1      -8.023   1.855 124.252  0.00  0.00    +0.000 C 
ATOM     37  C   UNL     1      -7.859   3.063 123.466  0.00  0.00    +0.000 C 
ATOM     38  C   UNL     1      -6.365   3.509 123.051  0.00  0.00    +0.000 C 
ATOM     39  C   UNL     1      -5.980   4.393 124.163  0.00  0.00    +0.000 C 
ATOM     40  C   UNL     1      -6.359   3.609 125.379  0.00  0.00    +0.000 A 
ATOM     41  C   UNL     1      -7.190   2.379 125.416  0.00  0.00    +0.000 A 
ATOM     42  C   UNL     1      -7.664   1.962 126.635  0.00  0.00    +0.000 A 
ATOM     43  C   UNL     1      -7.267   2.633 127.771  0.00  0.00    +0.000 A 
ATOM     44  C   UNL     1      -6.435   3.753 127.707  0.00  0.00    +0.000 A 
ATOM     45  N   UNL     1      -6.008   4.279 126.522  0.00  0.00    +0.000 N 
ATOM     46  O   UNL     1      -5.328   5.354 126.502  0.00  0.00    +0.000 OA
ENDBRANCH  33  36
ENDBRANCH  29  30
ENDBRANCH   3  29
TORSDOF 6
ENDMDL
MODEL 6
REMARK VINA RESULT:     -10.1      1.436      2.061
REMARK  Name = CHEMBL66992
REMARK  7 active torsions:
REMARK  status: ('A' for Active; 'I' for Inactive)
REMARK    1  A    between atoms: C_1  and  O_2
REMARK    2  A    between atoms: O_2  and  C_3
REMARK    3  A    between atoms: C_5  and  O_6
REMARK    4  A    between atoms: O_6  and  C_7
REMARK    5  A    between atoms: N_10  and  C_11
REMARK    6  A    between atoms: C_27  and  C_28
REMARK    7  A    between atoms: C_33  and  N_34
REMARK                            x       y       z     vdW  Elec       q    Type
REMARK                         _______ _______ _______ _____ _____    ______ ____
ROOT
ATOM      1  C   UNL     1      -6.004   0.261 133.352  0.00  0.00    +0.000 A 
ATOM      2  C   UNL     1      -5.508  -0.689 132.267  0.00  0.00    +0.000 A 
ATOM      3  C   UNL     1      -5.033  -0.261 131.078  0.00  0.00    +0.000 A 
ATOM      4  C   UNL     1      -5.087   1.056 131.182  0.00  0.00    +0.000 A 
ATOM      5  F   UNL     1      -5.089   1.530 130.028  0.00  0.00    +0.000 F 
ATOM      6  C   UNL     1      -5.294   1.928 132.259  0.00  0.00    +0.000 A 
ATOM      7  C   UNL     1      -5.875   1.625 133.352  0.00  0.00    +0.000 A 
ENDROOT
BRANCH   7   8
ATOM      8  C   UNL     1      -6.241   2.887 134.124  0.00  0.00    +0.000 C 
ATOM      9  O   UNL     1      -5.886   3.236 135.256  0.00  0.00    +0.000 OA
ATOM     10  N   UNL     1      -7.137   3.608 133.492  0.00  0.00    +0.000 N 
ATOM     11  C   UNL     1      -6.817   4.941 133.070  0.00  0.00    +0.000 C 
ATOM     12  C   UNL     1      -7.929   5.829 133.533  0.00  0.00    +0.000 C 
ATOM     13  C   UNL     1      -9.291   5.221 133.122  0.00  0.00    +0.000 C 
ATOM     14  C   UNL     1      -9.504   3.814 133.692  0.00  0.00    +0.000 C 
ATOM     15  C   UNL     1      -8.383   2.954 133.263  0.00  0.00    +0.000 C 
BRANCH  13  16
ATOM     16  N   UNL     1      -9.522   5.355 131.642  0.00  0.00    +0.000 N 
ATOM     17  C   UNL     1      -8.717   4.791 130.636  0.00  0.00    +0.000 C 
ATOM     18  O   UNL     1      -8.319   3.671 130.522  0.00  0.00    +0.000 OA
ATOM     19  O   UNL     1      -8.364   5.689 129.678  0.00  0.00    +0.000 OA
ATOM     20  C   UNL     1      -9.494   5.984 128.898  0.00  0.00    +0.000 C 
ATOM     21  C   UNL     1     -10.608   6.441 129.785  0.00  0.00    +0.000 A 
ATOM     22  C   UNL     1     -11.662   7.153 129.231  0.00  0.00    +0.000 A 
ATOM     23  C   UNL     1     -12.708   7.569 130.041  0.00  0.00    +0.000 A 
ATOM     24  C   UNL     1     -12.712   7.258 131.399  0.00  0.00    +0.000 A 
ATOM     25  C   UNL     1     -11.663   6.537 131.960  0.00  0.00    +0.000 A 
ATOM     26  C   UNL     1     -10.597   6.135 131.159  0.00  0.00    +0.000 A 
ENDBRANCH  13  16
ENDBRANCH   7   8
BRANCH   1  28
ATOM     27  C   UNL     1      -5.635  -0.545 135.327  0.00  0.00    +0.000 C 
ATOM     28  O   UNL     1      -6.658  -0.256 134.405  0.00  0.00    +0.000 OA
ENDBRANCH   1  28
BRANCH   3  29
ATOM     29  O   UNL     1      -4.674  -0.811 129.871  0.00  0.00    +0.000 OA
BRANCH  29  30
ATOM     30  C   UNL     1      -4.976  -2.279 129.386  0.00  0.00    +0.000 C 
ATOM     31  C   UNL     1      -4.765  -2.612 127.879  0.00  0.00    +0.000 C 
ATOM     32  C   UNL     1      -6.003  -2.332 127.018  0.00  0.00    +0.000 C 
ATOM     33  N   UNL     1      -7.422  -2.901 127.577  0.00  0.00    +0.000 NA
ATOM     34  C   UNL     1      -7.591  -2.776 129.090  0.00  0.00    +0.000 C 
ATOM     35  C   UNL     1      -6.282  -3.032 129.888  0.00  0.00    +0.000 C 
BRANCH  33  36
ATOM     36  C   UNL     1      -8.514  -2.213 126.768  0.00  0.00    +0.000 C 
ATOM     37  C   UNL     1      -9.227  -3.163 125.935  0.00  0.00    +0.000 C 
ATOM     38  C   UNL     1      -8.595  -3.547 124.501  0.00  0.00    +0.000 C 
ATOM     39  C   UNL     1      -9.224  -2.560 123.606  0.00  0.00    +0.000 C 
ATOM     40  C   UNL     1      -9.040  -1.265 124.331  0.00  0.00    +0.000 A 
ATOM     41  C   UNL     1      -8.598  -1.093 125.738  0.00  0.00    +0.000 A 
ATOM     42  C   UNL     1      -8.757   0.143 126.314  0.00  0.00    +0.000 A 
ATOM     43  C   UNL     1      -9.217   1.186 125.539  0.00  0.00    +0.000 A 
ATOM     44  C   UNL     1      -9.568   1.004 124.199  0.00  0.00    +0.000 A 
ATOM     45  N   UNL     1      -9.528  -0.218 123.593  0.00  0.00    +0.000 N 
ATOM     46  O   UNL     1      -9.944  -0.360 122.399  0.00  0.00    +0.000 OA
ENDBRANCH  33  36
ENDBRANCH  29  30
ENDBRANCH   3  29
TORSDOF 6
ENDMDL
MODEL 7
REMARK VINA RESULT:     -10.0      2.848      5.969
REMARK  Name = CHEMBL66992
REMARK  7 active torsions:
REMARK  status: ('A' for Active; 'I' for Inactive)
REMARK    1  A    between atoms: C_1  and  O_2
REMARK    2  A    between atoms: O_2  and  C_3
REMARK    3  A    between atoms: C_5  and  O_6
REMARK    4  A    between atoms: O_6  and  C_7
REMARK    5  A    between atoms: N_10  and  C_11
REMARK    6  A    between atoms: C_27  and  C_28
REMARK    7  A    between atoms: C_33  and  N_34
REMARK                            x       y       z     vdW  Elec       q    Type
REMARK                         _______ _______ _______ _____ _____    ______ ____
ROOT
ATOM      1  C   UNL     1      -7.001   4.109 127.835  0.00  0.00    +0.000 A 
ATOM      2  C   UNL     1      -7.903   3.972 126.613  0.00  0.00    +0.000 A 
ATOM      3  C   UNL     1      -7.570   3.234 125.533  0.00  0.00    +0.000 A 
ATOM      4  C   UNL     1      -6.401   2.712 125.867  0.00  0.00    +0.000 A 
ATOM      5  F   UNL     1      -5.816   2.383 124.816  0.00  0.00    +0.000 F 
ATOM      6  C   UNL     1      -5.697   2.625 127.075  0.00  0.00    +0.000 A 
ATOM      7  C   UNL     1      -5.859   3.392 128.080  0.00  0.00    +0.000 A 
ENDROOT
BRANCH   7   8
ATOM      8  C   UNL     1      -4.695   3.243 129.053  0.00  0.00    +0.000 C 
ATOM      9  O   UNL     1      -3.487   3.136 128.808  0.00  0.00    +0.000 OA
ATOM     10  N   UNL     1      -5.104   3.111 130.292  0.00  0.00    +0.000 N 
ATOM     11  C   UNL     1      -4.736   4.087 131.277  0.00  0.00    +0.000 C 
ATOM     12  C   UNL     1      -4.199   3.341 132.459  0.00  0.00    +0.000 C 
ATOM     13  C   UNL     1      -5.180   2.212 132.856  0.00  0.00    +0.000 C 
ATOM     14  C   UNL     1      -5.432   1.222 131.712  0.00  0.00    +0.000 C 
ATOM     15  C   UNL     1      -5.925   1.970 130.538  0.00  0.00    +0.000 C 
BRANCH  13  16
ATOM     16  N   UNL     1      -6.416   2.769 133.506  0.00  0.00    +0.000 N 
ATOM     17  C   UNL     1      -7.737   2.392 133.207  0.00  0.00    +0.000 C 
ATOM     18  O   UNL     1      -8.213   1.300 133.125  0.00  0.00    +0.000 OA
ATOM     19  O   UNL     1      -8.552   3.456 132.984  0.00  0.00    +0.000 OA
ATOM     20  C   UNL     1      -8.794   4.104 134.206  0.00  0.00    +0.000 C 
ATOM     21  C   UNL     1      -7.490   4.455 134.852  0.00  0.00    +0.000 A 
ATOM     22  C   UNL     1      -7.469   5.428 135.841  0.00  0.00    +0.000 A 
ATOM     23  C   UNL     1      -6.268   5.751 136.456  0.00  0.00    +0.000 A 
ATOM     24  C   UNL     1      -5.095   5.089 136.100  0.00  0.00    +0.000 A 
ATOM     25  C   UNL     1      -5.112   4.106 135.116  0.00  0.00    +0.000 A 
ATOM     26  C   UNL     1      -6.307   3.791 134.476  0.00  0.00    +0.000 A 
ENDBRANCH  13  16
ENDBRANCH   7   8
BRANCH   1  28
ATOM     27  C   UNL     1      -8.479   4.522 129.362  0.00  0.00    +0.000 C 
ATOM     28  O   UNL     1      -7.312   5.031 128.760  0.00  0.00    +0.000 OA
ENDBRANCH   1  28
BRANCH   3  29
ATOM     29  O   UNL     1      -8.040   3.030 124.259  0.00  0.00    +0.000 OA
BRANCH  29  30
ATOM     30  C   UNL     1      -8.950   1.836 123.779  0.00  0.00    +0.000 C 
ATOM     31  C   UNL     1      -9.899   1.172 124.821  0.00  0.00    +0.000 C 
ATOM     32  C   UNL     1      -9.236   0.032 125.604  0.00  0.00    +0.000 C 
ATOM     33  N   UNL     1      -8.419  -1.072 124.730  0.00  0.00    +0.000 NA
ATOM     34  C   UNL     1      -7.627  -0.482 123.565  0.00  0.00    +0.000 C 
ATOM     35  C   UNL     1      -8.347   0.695 122.851  0.00  0.00    +0.000 C 
BRANCH  33  36
ATOM     36  C   UNL     1      -7.577  -1.870 125.717  0.00  0.00    +0.000 C 
ATOM     37  C   UNL     1      -8.095  -3.215 125.880  0.00  0.00    +0.000 C 
ATOM     38  C   UNL     1      -9.300  -3.449 126.927  0.00  0.00    +0.000 C 
ATOM     39  C   UNL     1      -8.578  -3.767 128.171  0.00  0.00    +0.000 C 
ATOM     40  C   UNL     1      -7.536  -2.697 128.252  0.00  0.00    +0.000 A 
ATOM     41  C   UNL     1      -7.157  -1.746 127.176  0.00  0.00    +0.000 A 
ATOM     42  C   UNL     1      -5.998  -1.028 127.334  0.00  0.00    +0.000 A 
ATOM     43  C   UNL     1      -5.298  -1.142 128.515  0.00  0.00    +0.000 A 
ATOM     44  C   UNL     1      -5.714  -2.002 129.534  0.00  0.00    +0.000 A 
ATOM     45  N   UNL     1      -6.801  -2.817 129.403  0.00  0.00    +0.000 N 
ATOM     46  O   UNL     1      -7.094  -3.653 130.316  0.00  0.00    +0.000 OA
ENDBRANCH  33  36
ENDBRANCH  29  30
ENDBRANCH   3  29
TORSDOF 6
ENDMDL
MODEL 8
REMARK VINA RESULT:      -9.9      2.941      8.577
REMARK  Name = CHEMBL66992
REMARK  7 active torsions:
REMARK  status: ('A' for Active; 'I' for Inactive)
REMARK    1  A    between atoms: C_1  and  O_2
REMARK    2  A    between atoms: O_2  and  C_3
REMARK    3  A    between atoms: C_5  and  O_6
REMARK    4  A    between atoms: O_6  and  C_7
REMARK    5  A    between atoms: N_10  and  C_11
REMARK    6  A    between atoms: C_27  and  C_28
REMARK    7  A    between atoms: C_33  and  N_34
REMARK                            x       y       z     vdW  Elec       q    Type
REMARK                         _______ _______ _______ _____ _____    ______ ____
ROOT
ATOM      1  C   UNL     1      -5.878   3.637 126.656  0.00  0.00    +0.000 A 
ATOM      2  C   UNL     1      -4.997   4.819 127.045  0.00  0.00    +0.000 A 
ATOM      3  C   UNL     1      -3.687   4.691 127.346  0.00  0.00    +0.000 A 
ATOM      4  C   UNL     1      -3.456   3.402 127.166  0.00  0.00    +0.000 A 
ATOM      5  F   UNL     1      -2.432   3.104 127.815  0.00  0.00    +0.000 F 
ATOM      6  C   UNL     1      -4.186   2.368 126.566  0.00  0.00    +0.000 A 
ATOM      7  C   UNL     1      -5.449   2.363 126.391  0.00  0.00    +0.000 A 
ENDROOT
BRANCH   7   8
ATOM      8  C   UNL     1      -5.930   0.956 126.055  0.00  0.00    +0.000 C 
ATOM      9  O   UNL     1      -6.287   0.498 124.963  0.00  0.00    +0.000 OA
ATOM     10  N   UNL     1      -6.060   0.211 127.127  0.00  0.00    +0.000 N 
ATOM     11  C   UNL     1      -5.269  -0.977 127.275  0.00  0.00    +0.000 C 
ATOM     12  C   UNL     1      -6.204  -2.086 127.645  0.00  0.00    +0.000 C 
ATOM     13  C   UNL     1      -7.110  -1.639 128.817  0.00  0.00    +0.000 C 
ATOM     14  C   UNL     1      -7.928  -0.386 128.485  0.00  0.00    +0.000 C 
ATOM     15  C   UNL     1      -7.001   0.692 128.084  0.00  0.00    +0.000 C 
BRANCH  13  16
ATOM     16  N   UNL     1      -6.339  -1.579 130.107  0.00  0.00    +0.000 N 
ATOM     17  C   UNL     1      -6.046  -0.409 130.829  0.00  0.00    +0.000 C 
ATOM     18  O   UNL     1      -6.773   0.477 131.166  0.00  0.00    +0.000 OA
ATOM     19  O   UNL     1      -4.733  -0.314 131.169  0.00  0.00    +0.000 OA
ATOM     20  C   UNL     1      -4.459  -1.253 132.177  0.00  0.00    +0.000 C 
ATOM     21  C   UNL     1      -4.877  -2.615 131.718  0.00  0.00    +0.000 A 
ATOM     22  C   UNL     1      -4.354  -3.730 132.356  0.00  0.00    +0.000 A 
ATOM     23  C   UNL     1      -4.745  -4.997 131.948  0.00  0.00    +0.000 A 
ATOM     24  C   UNL     1      -5.673  -5.150 130.920  0.00  0.00    +0.000 A 
ATOM     25  C   UNL     1      -6.207  -4.035 130.283  0.00  0.00    +0.000 A 
ATOM     26  C   UNL     1      -5.804  -2.761 130.669  0.00  0.00    +0.000 A 
ENDBRANCH  13  16
ENDBRANCH   7   8
BRANCH   1  28
ATOM     27  C   UNL     1      -7.375   4.619 125.440  0.00  0.00    +0.000 C 
ATOM     28  O   UNL     1      -7.206   3.823 126.589  0.00  0.00    +0.000 OA
ENDBRANCH   1  28
BRANCH   3  29
ATOM     29  O   UNL     1      -2.684   5.473 127.867  0.00  0.00    +0.000 OA
BRANCH  29  30
ATOM     30  C   UNL     1      -2.539   5.927 129.369  0.00  0.00    +0.000 C 
ATOM     31  C   UNL     1      -2.717   4.852 130.482  0.00  0.00    +0.000 C 
ATOM     32  C   UNL     1      -4.175   4.679 130.929  0.00  0.00    +0.000 C 
ATOM     33  N   UNL     1      -5.001   6.042 131.257  0.00  0.00    +0.000 NA
ATOM     34  C   UNL     1      -4.703   7.197 130.303  0.00  0.00    +0.000 C 
ATOM     35  C   UNL     1      -3.215   7.277 129.863  0.00  0.00    +0.000 C 
BRANCH  33  36
ATOM     36  C   UNL     1      -6.471   5.652 131.327  0.00  0.00    +0.000 C 
ATOM     37  C   UNL     1      -7.021   5.908 132.645  0.00  0.00    +0.000 C 
ATOM     38  C   UNL     1      -6.810   4.792 133.791  0.00  0.00    +0.000 C 
ATOM     39  C   UNL     1      -8.017   3.961 133.645  0.00  0.00    +0.000 C 
ATOM     40  C   UNL     1      -8.089   3.708 132.172  0.00  0.00    +0.000 A 
ATOM     41  C   UNL     1      -7.299   4.390 131.117  0.00  0.00    +0.000 A 
ATOM     42  C   UNL     1      -7.698   4.231 129.813  0.00  0.00    +0.000 A 
ATOM     43  C   UNL     1      -8.738   3.372 129.533  0.00  0.00    +0.000 A 
ATOM     44  C   UNL     1      -9.424   2.698 130.546  0.00  0.00    +0.000 A 
ATOM     45  N   UNL     1      -9.144   2.886 131.869  0.00  0.00    +0.000 N 
ATOM     46  O   UNL     1      -9.852   2.325 132.764  0.00  0.00    +0.000 OA
ENDBRANCH  33  36
ENDBRANCH  29  30
ENDBRANCH   3  29
TORSDOF 6
ENDMDL
MODEL 9
REMARK VINA RESULT:      -9.9      4.149      8.638
REMARK  Name = CHEMBL66992
REMARK  7 active torsions:
REMARK  status: ('A' for Active; 'I' for Inactive)
REMARK    1  A    between atoms: C_1  and  O_2
REMARK    2  A    between atoms: O_2  and  C_3
REMARK    3  A    between atoms: C_5  and  O_6
REMARK    4  A    between atoms: O_6  and  C_7
REMARK    5  A    between atoms: N_10  and  C_11
REMARK    6  A    between atoms: C_27  and  C_28
REMARK    7  A    between atoms: C_33  and  N_34
REMARK                            x       y       z     vdW  Elec       q    Type
REMARK                         _______ _______ _______ _____ _____    ______ ____
ROOT
ATOM      1  C   UNL     1      -3.359   4.003 127.177  0.00  0.00    +0.000 A 
ATOM      2  C   UNL     1      -2.448   4.534 128.279  0.00  0.00    +0.000 A 
ATOM      3  C   UNL     1      -2.563   5.777 128.792  0.00  0.00    +0.000 A 
ATOM      4  C   UNL     1      -3.604   6.279 128.150  0.00  0.00    +0.000 A 
ATOM      5  F   UNL     1      -3.533   7.523 128.219  0.00  0.00    +0.000 F 
ATOM      6  C   UNL     1      -4.595   5.715 127.334  0.00  0.00    +0.000 A 
ATOM      7  C   UNL     1      -4.488   4.616 126.698  0.00  0.00    +0.000 A 
ENDROOT
BRANCH   7   8
ATOM      8  C   UNL     1      -5.588   4.503 125.649  0.00  0.00    +0.000 C 
ATOM      9  O   UNL     1      -6.026   5.373 124.887  0.00  0.00    +0.000 OA
ATOM     10  N   UNL     1      -6.179   3.332 125.679  0.00  0.00    +0.000 N 
ATOM     11  C   UNL     1      -6.124   2.471 124.533  0.00  0.00    +0.000 C 
ATOM     12  C   UNL     1      -7.525   2.023 124.252  0.00  0.00    +0.000 C 
ATOM     13  C   UNL     1      -8.178   1.496 125.552  0.00  0.00    +0.000 C 
ATOM     14  C   UNL     1      -8.205   2.550 126.665  0.00  0.00    +0.000 C 
ATOM     15  C   UNL     1      -6.825   3.015 126.911  0.00  0.00    +0.000 C 
BRANCH  13  16
ATOM     16  N   UNL     1      -7.608   0.162 125.945  0.00  0.00    +0.000 N 
ATOM     17  C   UNL     1      -6.794  -0.080 127.065  0.00  0.00    +0.000 C 
ATOM     18  O   UNL     1      -6.956   0.240 128.204  0.00  0.00    +0.000 OA
ATOM     19  O   UNL     1      -5.670  -0.781 126.760  0.00  0.00    +0.000 OA
ATOM     20  C   UNL     1      -6.029  -2.108 126.475  0.00  0.00    +0.000 C 
ATOM     21  C   UNL     1      -7.073  -2.124 125.402  0.00  0.00    +0.000 A 
ATOM     22  C   UNL     1      -7.287  -3.294 124.688  0.00  0.00    +0.000 A 
ATOM     23  C   UNL     1      -8.261  -3.324 123.701  0.00  0.00    +0.000 A 
ATOM     24  C   UNL     1      -9.035  -2.195 123.442  0.00  0.00    +0.000 A 
ATOM     25  C   UNL     1      -8.831  -1.022 124.160  0.00  0.00    +0.000 A 
ATOM     26  C   UNL     1      -7.840  -0.974 125.137  0.00  0.00    +0.000 A 
ENDBRANCH  13  16
ENDBRANCH   7   8
BRANCH   1  28
ATOM     27  C   UNL     1      -1.651   2.964 126.346  0.00  0.00    +0.000 C 
ATOM     28  O   UNL     1      -3.035   2.846 126.580  0.00  0.00    +0.000 OA
ENDBRANCH   1  28
BRANCH   3  29
ATOM     29  O   UNL     1      -1.850   6.599 129.631  0.00  0.00    +0.000 OA
BRANCH  29  30
ATOM     30  C   UNL     1      -2.051   6.747 131.187  0.00  0.00    +0.000 C 
ATOM     31  C   UNL     1      -1.327   5.733 132.120  0.00  0.00    +0.000 C 
ATOM     32  C   UNL     1      -2.143   4.460 132.381  0.00  0.00    +0.000 C 
ATOM     33  N   UNL     1      -3.702   4.668 132.798  0.00  0.00    +0.000 NA
ATOM     34  C   UNL     1      -4.403   5.796 132.044  0.00  0.00    +0.000 C 
ATOM     35  C   UNL     1      -3.498   7.031 131.781  0.00  0.00    +0.000 C 
BRANCH  33  36
ATOM     36  C   UNL     1      -4.374   3.309 132.656  0.00  0.00    +0.000 C 
ATOM     37  C   UNL     1      -4.861   2.828 133.935  0.00  0.00    +0.000 C 
ATOM     38  C   UNL     1      -3.826   2.063 134.908  0.00  0.00    +0.000 C 
ATOM     39  C   UNL     1      -4.004   0.656 134.512  0.00  0.00    +0.000 C 
ATOM     40  C   UNL     1      -3.938   0.704 133.018  0.00  0.00    +0.000 A 
ATOM     41  C   UNL     1      -3.983   1.920 132.168  0.00  0.00    +0.000 A 
ATOM     42  C   UNL     1      -4.194   1.754 130.821  0.00  0.00    +0.000 A 
ATOM     43  C   UNL     1      -4.249   0.477 130.307  0.00  0.00    +0.000 A 
ATOM     44  C   UNL     1      -4.143  -0.649 131.127  0.00  0.00    +0.000 A 
ATOM     45  N   UNL     1      -4.031  -0.556 132.484  0.00  0.00    +0.000 N 
ATOM     46  O   UNL     1      -4.031  -1.604 133.205  0.00  0.00    +0.000 OA
ENDBRANCH  33  36
ENDBRANCH  29  30
ENDBRANCH   3  29
TORSDOF 6
ENDMDL
