MODEL 1
REMARK VINA RESULT:      -8.1      0.000      0.000
REMARK  Name = CHEMBL1089272
REMARK  8 active torsions:
REMARK  status: ('A' for Active; 'I' for Inactive)
REMARK    1  A    between atoms: C_1  and  C_2
REMARK    2  A    between atoms: C_2  and  N_3
REMARK    3  A    between atoms: N_3  and  C_18
REMARK    4  A    between atoms: C_4  and  C_6
REMARK    5  A    between atoms: C_6  and  O_7
REMARK    6  A    between atoms: O_7  and  C_8
REMARK    7  A    between atoms: C_21  and  O_22
REMARK    8  A    between atoms: O_22  and  C_23
REMARK                            x       y       z     vdW  Elec       q    Type
REMARK                         _______ _______ _______ _____ _____    ______ ____
ROOT
ATOM      1  N   UNL     1      -8.149  -1.434 124.671  0.00  0.00    +0.000 N 
ATOM      2  C   UNL     1      -8.861  -0.210 124.611  0.00  0.00    +0.000 C 
ATOM      3  O   UNL     1      -9.223   0.386 125.638  0.00  0.00    +0.000 OA
ENDROOT
BRANCH   1   4
ATOM      4  C   UNL     1      -7.911  -2.008 125.992  0.00  0.00    +0.000 A 
ATOM      5  C   UNL     1      -6.744  -1.751 126.715  0.00  0.00    +0.000 A 
ATOM      6  C   UNL     1      -6.582  -2.258 128.014  0.00  0.00    +0.000 A 
ATOM      7  C   UNL     1      -7.574  -3.055 128.565  0.00  0.00    +0.000 A 
ATOM      8  N   UNL     1      -8.687  -3.369 127.878  0.00  0.00    +0.000 NA
ATOM      9  C   UNL     1      -8.838  -2.832 126.632  0.00  0.00    +0.000 A 
BRANCH   7  10
ATOM     10  O   UNL     1      -7.540  -3.591 129.824  0.00  0.00    +0.000 OA
ATOM     11  C   UNL     1      -6.279  -3.599 130.484  0.00  0.00    +0.000 C 
ENDBRANCH   7  10
ENDBRANCH   1   4
BRANCH   1  13
ATOM     12  C   UNL     1      -6.482  -1.731 122.702  0.00  0.00    +0.000 C 
ATOM     13  C   UNL     1      -7.623  -2.264 123.543  0.00  0.00    +0.000 C 
ENDBRANCH   1  13
BRANCH   2  14
ATOM     14  C   UNL     1      -9.173   0.443 123.248  0.00  0.00    +0.000 C 
BRANCH  14  15
ATOM     15  O   UNL     1      -9.453   1.838 123.257  0.00  0.00    +0.000 OA
BRANCH  15  16
ATOM     16  C   UNL     1      -8.428   2.614 122.767  0.00  0.00    +0.000 A 
ATOM     17  C   UNL     1      -7.208   2.827 123.411  0.00  0.00    +0.000 A 
ATOM     18  C   UNL     1      -6.180   3.521 122.758  0.00  0.00    +0.000 A 
ATOM     19  C   UNL     1      -6.353   3.993 121.447  0.00  0.00    +0.000 A 
ATOM     20  C   UNL     1      -5.311   4.627 120.751  0.00  0.00    +0.000 A 
ATOM     21  C   UNL     1      -5.499   5.079 119.444  0.00  0.00    +0.000 A 
ATOM     22  C   UNL     1      -6.732   4.909 118.821  0.00  0.00    +0.000 A 
ATOM     23  C   UNL     1      -7.777   4.281 119.500  0.00  0.00    +0.000 A 
ATOM     24  C   UNL     1      -7.600   3.805 120.808  0.00  0.00    +0.000 A 
ATOM     25  C   UNL     1      -8.625   3.123 121.483  0.00  0.00    +0.000 A 
ENDBRANCH  15  16
ENDBRANCH  14  15
ENDBRANCH   2  14
TORSDOF 6
ENDMDL
MODEL 2
REMARK VINA RESULT:      -7.9      5.604      6.740
REMARK  Name = CHEMBL1089272
REMARK  8 active torsions:
REMARK  status: ('A' for Active; 'I' for Inactive)
REMARK    1  A    between atoms: C_1  and  C_2
REMARK    2  A    between atoms: C_2  and  N_3
REMARK    3  A    between atoms: N_3  and  C_18
REMARK    4  A    between atoms: C_4  and  C_6
REMARK    5  A    between atoms: C_6  and  O_7
REMARK    6  A    between atoms: O_7  and  C_8
REMARK    7  A    between atoms: C_21  and  O_22
REMARK    8  A    between atoms: O_22  and  C_23
REMARK                            x       y       z     vdW  Elec       q    Type
REMARK                         _______ _______ _______ _____ _____    ______ ____
ROOT
ATOM      1  N   UNL     1      -3.921   3.868 127.086  0.00  0.00    +0.000 N 
ATOM      2  C   UNL     1      -5.043   4.159 126.271  0.00  0.00    +0.000 C 
ATOM      3  O   UNL     1      -5.731   5.177 126.446  0.00  0.00    +0.000 OA
ENDROOT
BRANCH   1   4
ATOM      4  C   UNL     1      -3.638   4.781 128.189  0.00  0.00    +0.000 A 
ATOM      5  C   UNL     1      -2.790   5.882 128.044  0.00  0.00    +0.000 A 
ATOM      6  C   UNL     1      -2.601   6.782 129.103  0.00  0.00    +0.000 A 
ATOM      7  C   UNL     1      -3.229   6.551 130.318  0.00  0.00    +0.000 A 
ATOM      8  N   UNL     1      -4.010   5.472 130.512  0.00  0.00    +0.000 NA
ATOM      9  C   UNL     1      -4.209   4.633 129.455  0.00  0.00    +0.000 A 
BRANCH   7  10
ATOM     10  O   UNL     1      -3.138   7.363 131.415  0.00  0.00    +0.000 OA
ATOM     11  C   UNL     1      -3.671   6.857 132.634  0.00  0.00    +0.000 C 
ENDBRANCH   7  10
ENDBRANCH   1   4
BRANCH   1  13
ATOM     12  C   UNL     1      -1.544   2.950 126.583  0.00  0.00    +0.000 C 
ATOM     13  C   UNL     1      -2.980   2.708 126.999  0.00  0.00    +0.000 C 
ENDBRANCH   1  13
BRANCH   2  14
ATOM     14  C   UNL     1      -5.420   3.223 125.103  0.00  0.00    +0.000 C 
BRANCH  14  15
ATOM     15  O   UNL     1      -6.806   3.110 124.797  0.00  0.00    +0.000 OA
BRANCH  15  16
ATOM     16  C   UNL     1      -7.093   3.245 123.459  0.00  0.00    +0.000 A 
ATOM     17  C   UNL     1      -8.336   2.986 122.877  0.00  0.00    +0.000 A 
ATOM     18  C   UNL     1      -8.558   3.290 121.528  0.00  0.00    +0.000 A 
ATOM     19  C   UNL     1      -7.548   3.875 120.748  0.00  0.00    +0.000 A 
ATOM     20  C   UNL     1      -7.774   4.252 119.415  0.00  0.00    +0.000 A 
ATOM     21  C   UNL     1      -6.759   4.842 118.660  0.00  0.00    +0.000 A 
ATOM     22  C   UNL     1      -5.506   5.055 119.226  0.00  0.00    +0.000 A 
ATOM     23  C   UNL     1      -5.266   4.685 120.550  0.00  0.00    +0.000 A 
ATOM     24  C   UNL     1      -6.279   4.106 121.328  0.00  0.00    +0.000 A 
ATOM     25  C   UNL     1      -6.068   3.779 122.677  0.00  0.00    +0.000 A 
ENDBRANCH  15  16
ENDBRANCH  14  15
ENDBRANCH   2  14
TORSDOF 6
ENDMDL
MODEL 3
REMARK VINA RESULT:      -7.9      8.819     12.110
REMARK  Name = CHEMBL1089272
REMARK  8 active torsions:
REMARK  status: ('A' for Active; 'I' for Inactive)
REMARK    1  A    between atoms: C_1  and  C_2
REMARK    2  A    between atoms: C_2  and  N_3
REMARK    3  A    between atoms: N_3  and  C_18
REMARK    4  A    between atoms: C_4  and  C_6
REMARK    5  A    between atoms: C_6  and  O_7
REMARK    6  A    between atoms: O_7  and  C_8
REMARK    7  A    between atoms: C_21  and  O_22
REMARK    8  A    between atoms: O_22  and  C_23
REMARK                            x       y       z     vdW  Elec       q    Type
REMARK                         _______ _______ _______ _____ _____    ______ ____
ROOT
ATOM      1  N   UNL     1      -9.938   5.303 130.197  0.00  0.00    +0.000 N 
ATOM      2  C   UNL     1     -10.529   4.022 130.330  0.00  0.00    +0.000 C 
ATOM      3  O   UNL     1     -11.741   3.838 130.135  0.00  0.00    +0.000 OA
ENDROOT
BRANCH   1   4
ATOM      4  C   UNL     1     -10.823   6.421 129.884  0.00  0.00    +0.000 A 
ATOM      5  C   UNL     1     -11.772   6.895 130.792  0.00  0.00    +0.000 A 
ATOM      6  C   UNL     1     -12.554   8.020 130.487  0.00  0.00    +0.000 A 
ATOM      7  C   UNL     1     -12.409   8.639 129.254  0.00  0.00    +0.000 A 
ATOM      8  N   UNL     1     -11.544   8.177 128.332  0.00  0.00    +0.000 NA
ATOM      9  C   UNL     1     -10.769   7.106 128.668  0.00  0.00    +0.000 A 
BRANCH   7  10
ATOM     10  O   UNL     1     -13.098   9.749 128.848  0.00  0.00    +0.000 OA
ATOM     11  C   UNL     1     -13.442  10.695 129.854  0.00  0.00    +0.000 C 
ENDBRANCH   7  10
ENDBRANCH   1   4
BRANCH   1  13
ATOM     12  C   UNL     1      -8.101   6.507 131.583  0.00  0.00    +0.000 C 
ATOM     13  C   UNL     1      -8.504   5.692 130.371  0.00  0.00    +0.000 C 
ENDBRANCH   1  13
BRANCH   2  14
ATOM     14  C   UNL     1      -9.660   2.798 130.687  0.00  0.00    +0.000 C 
BRANCH  14  15
ATOM     15  O   UNL     1      -9.853   2.233 131.979  0.00  0.00    +0.000 OA
BRANCH  15  16
ATOM     16  C   UNL     1      -8.844   2.519 132.868  0.00  0.00    +0.000 A 
ATOM     17  C   UNL     1      -7.634   1.826 132.955  0.00  0.00    +0.000 A 
ATOM     18  C   UNL     1      -6.618   2.288 133.801  0.00  0.00    +0.000 A 
ATOM     19  C   UNL     1      -6.790   3.459 134.556  0.00  0.00    +0.000 A 
ATOM     20  C   UNL     1      -5.757   3.977 135.354  0.00  0.00    +0.000 A 
ATOM     21  C   UNL     1      -5.945   5.149 136.088  0.00  0.00    +0.000 A 
ATOM     22  C   UNL     1      -7.168   5.812 136.039  0.00  0.00    +0.000 A 
ATOM     23  C   UNL     1      -8.203   5.310 135.250  0.00  0.00    +0.000 A 
ATOM     24  C   UNL     1      -8.026   4.142 134.493  0.00  0.00    +0.000 A 
ATOM     25  C   UNL     1      -9.041   3.655 133.653  0.00  0.00    +0.000 A 
ENDBRANCH  15  16
ENDBRANCH  14  15
ENDBRANCH   2  14
TORSDOF 6
ENDMDL
MODEL 4
REMARK VINA RESULT:      -7.8      7.477     10.952
REMARK  Name = CHEMBL1089272
REMARK  8 active torsions:
REMARK  status: ('A' for Active; 'I' for Inactive)
REMARK    1  A    between atoms: C_1  and  C_2
REMARK    2  A    between atoms: C_2  and  N_3
REMARK    3  A    between atoms: N_3  and  C_18
REMARK    4  A    between atoms: C_4  and  C_6
REMARK    5  A    between atoms: C_6  and  O_7
REMARK    6  A    between atoms: O_7  and  C_8
REMARK    7  A    between atoms: C_21  and  O_22
REMARK    8  A    between atoms: O_22  and  C_23
REMARK                            x       y       z     vdW  Elec       q    Type
REMARK                         _______ _______ _______ _____ _____    ______ ____
ROOT
ATOM      1  N   UNL     1     -10.188   5.619 131.191  0.00  0.00    +0.000 N 
ATOM      2  C   UNL     1     -10.505   4.289 130.816  0.00  0.00    +0.000 C 
ATOM      3  O   UNL     1     -11.434   4.035 130.033  0.00  0.00    +0.000 OA
ENDROOT
BRANCH   1   4
ATOM      4  C   UNL     1     -11.039   6.684 130.669  0.00  0.00    +0.000 A 
ATOM      5  C   UNL     1     -12.225   7.065 131.301  0.00  0.00    +0.000 A 
ATOM      6  C   UNL     1     -12.979   8.144 130.814  0.00  0.00    +0.000 A 
ATOM      7  C   UNL     1     -12.563   8.809 129.671  0.00  0.00    +0.000 A 
ATOM      8  N   UNL     1     -11.455   8.435 129.004  0.00  0.00    +0.000 NA
ATOM      9  C   UNL     1     -10.719   7.408 129.519  0.00  0.00    +0.000 A 
BRANCH   7  10
ATOM     10  O   UNL     1     -13.201   9.882 129.111  0.00  0.00    +0.000 OA
ATOM     11  C   UNL     1     -13.493  10.975 129.973  0.00  0.00    +0.000 C 
ENDBRANCH   7  10
ENDBRANCH   1   4
BRANCH   1  13
ATOM     12  C   UNL     1      -7.758   6.483 131.504  0.00  0.00    +0.000 C 
ATOM     13  C   UNL     1      -9.098   6.099 132.097  0.00  0.00    +0.000 C 
ENDBRANCH   1  13
BRANCH   2  14
ATOM     14  C   UNL     1      -9.666   3.110 131.352  0.00  0.00    +0.000 C 
BRANCH  14  15
ATOM     15  O   UNL     1      -8.519   2.746 130.593  0.00  0.00    +0.000 OA
BRANCH  15  16
ATOM     16  C   UNL     1      -8.223   1.403 130.639  0.00  0.00    +0.000 A 
ATOM     17  C   UNL     1      -8.255   0.617 131.792  0.00  0.00    +0.000 A 
ATOM     18  C   UNL     1      -8.073  -0.770 131.703  0.00  0.00    +0.000 A 
ATOM     19  C   UNL     1      -7.877  -1.389 130.458  0.00  0.00    +0.000 A 
ATOM     20  C   UNL     1      -7.764  -2.784 130.341  0.00  0.00    +0.000 A 
ATOM     21  C   UNL     1      -7.581  -3.381 129.093  0.00  0.00    +0.000 A 
ATOM     22  C   UNL     1      -7.500  -2.591 127.950  0.00  0.00    +0.000 A 
ATOM     23  C   UNL     1      -7.610  -1.203 128.050  0.00  0.00    +0.000 A 
ATOM     24  C   UNL     1      -7.812  -0.588 129.295  0.00  0.00    +0.000 A 
ATOM     25  C   UNL     1      -7.979   0.801 129.404  0.00  0.00    +0.000 A 
ENDBRANCH  15  16
ENDBRANCH  14  15
ENDBRANCH   2  14
TORSDOF 6
ENDMDL
MODEL 5
REMARK VINA RESULT:      -7.4      1.440      2.246
REMARK  Name = CHEMBL1089272
REMARK  8 active torsions:
REMARK  status: ('A' for Active; 'I' for Inactive)
REMARK    1  A    between atoms: C_1  and  C_2
REMARK    2  A    between atoms: C_2  and  N_3
REMARK    3  A    between atoms: N_3  and  C_18
REMARK    4  A    between atoms: C_4  and  C_6
REMARK    5  A    between atoms: C_6  and  O_7
REMARK    6  A    between atoms: O_7  and  C_8
REMARK    7  A    between atoms: C_21  and  O_22
REMARK    8  A    between atoms: O_22  and  C_23
REMARK                            x       y       z     vdW  Elec       q    Type
REMARK                         _______ _______ _______ _____ _____    ______ ____
ROOT
ATOM      1  N   UNL     1      -7.306  -1.623 126.255  0.00  0.00    +0.000 N 
ATOM      2  C   UNL     1      -7.603  -0.239 126.183  0.00  0.00    +0.000 C 
ATOM      3  O   UNL     1      -7.541   0.495 127.182  0.00  0.00    +0.000 OA
ENDROOT
BRANCH   1   4
ATOM      4  C   UNL     1      -6.984  -2.172 127.568  0.00  0.00    +0.000 A 
ATOM      5  C   UNL     1      -7.960  -2.726 128.402  0.00  0.00    +0.000 A 
ATOM      6  C   UNL     1      -7.603  -3.314 129.625  0.00  0.00    +0.000 A 
ATOM      7  C   UNL     1      -6.276  -3.307 130.026  0.00  0.00    +0.000 A 
ATOM      8  N   UNL     1      -5.317  -2.735 129.276  0.00  0.00    +0.000 NA
ATOM      9  C   UNL     1      -5.683  -2.204 128.073  0.00  0.00    +0.000 A 
BRANCH   7  10
ATOM     10  O   UNL     1      -5.804  -3.863 131.184  0.00  0.00    +0.000 OA
ATOM     11  C   UNL     1      -5.489  -5.250 131.149  0.00  0.00    +0.000 C 
ENDBRANCH   7  10
ENDBRANCH   1   4
BRANCH   1  13
ATOM     12  C   UNL     1      -6.041  -2.868 124.359  0.00  0.00    +0.000 C 
ATOM     13  C   UNL     1      -7.308  -2.636 125.154  0.00  0.00    +0.000 C 
ENDBRANCH   1  13
BRANCH   2  14
ATOM     14  C   UNL     1      -7.978   0.407 124.833  0.00  0.00    +0.000 C 
BRANCH  14  15
ATOM     15  O   UNL     1      -7.884   1.825 124.755  0.00  0.00    +0.000 OA
BRANCH  15  16
ATOM     16  C   UNL     1      -7.864   2.312 123.469  0.00  0.00    +0.000 A 
ATOM     17  C   UNL     1      -8.983   2.433 122.642  0.00  0.00    +0.000 A 
ATOM     18  C   UNL     1      -8.874   3.071 121.399  0.00  0.00    +0.000 A 
ATOM     19  C   UNL     1      -7.650   3.613 120.977  0.00  0.00    +0.000 A 
ATOM     20  C   UNL     1      -7.538   4.319 119.768  0.00  0.00    +0.000 A 
ATOM     21  C   UNL     1      -6.314   4.861 119.371  0.00  0.00    +0.000 A 
ATOM     22  C   UNL     1      -5.189   4.697 120.173  0.00  0.00    +0.000 A 
ATOM     23  C   UNL     1      -5.285   3.998 121.377  0.00  0.00    +0.000 A 
ATOM     24  C   UNL     1      -6.510   3.462 121.799  0.00  0.00    +0.000 A 
ATOM     25  C   UNL     1      -6.633   2.804 123.033  0.00  0.00    +0.000 A 
ENDBRANCH  15  16
ENDBRANCH  14  15
ENDBRANCH   2  14
TORSDOF 6
ENDMDL
MODEL 6
REMARK VINA RESULT:      -7.4      8.155     10.131
REMARK  Name = CHEMBL1089272
REMARK  8 active torsions:
REMARK  status: ('A' for Active; 'I' for Inactive)
REMARK    1  A    between atoms: C_1  and  C_2
REMARK    2  A    between atoms: C_2  and  N_3
REMARK    3  A    between atoms: N_3  and  C_18
REMARK    4  A    between atoms: C_4  and  C_6
REMARK    5  A    between atoms: C_6  and  O_7
REMARK    6  A    between atoms: O_7  and  C_8
REMARK    7  A    between atoms: C_21  and  O_22
REMARK    8  A    between atoms: O_22  and  C_23
REMARK                            x       y       z     vdW  Elec       q    Type
REMARK                         _______ _______ _______ _____ _____    ______ ____
ROOT
ATOM      1  N   UNL     1      -9.111   5.730 130.835  0.00  0.00    +0.000 N 
ATOM      2  C   UNL     1      -9.120   4.385 130.385  0.00  0.00    +0.000 C 
ATOM      3  O   UNL     1     -10.011   3.953 129.637  0.00  0.00    +0.000 OA
ENDROOT
BRANCH   1   4
ATOM      4  C   UNL     1     -10.230   6.578 130.437  0.00  0.00    +0.000 A 
ATOM      5  C   UNL     1     -11.450   6.567 131.118  0.00  0.00    +0.000 A 
ATOM      6  C   UNL     1     -12.478   7.451 130.756  0.00  0.00    +0.000 A 
ATOM      7  C   UNL     1     -12.294   8.312 129.684  0.00  0.00    +0.000 A 
ATOM      8  N   UNL     1     -11.153   8.312 128.970  0.00  0.00    +0.000 NA
ATOM      9  C   UNL     1     -10.155   7.471 129.367  0.00  0.00    +0.000 A 
BRANCH   7  10
ATOM     10  O   UNL     1     -13.211   9.228 129.248  0.00  0.00    +0.000 OA
ATOM     11  C   UNL     1     -13.207  10.497 129.892  0.00  0.00    +0.000 C 
ENDBRANCH   7  10
ENDBRANCH   1   4
BRANCH   1  13
ATOM     12  C   UNL     1      -6.861   7.002 131.090  0.00  0.00    +0.000 C 
ATOM     13  C   UNL     1      -8.111   6.413 131.712  0.00  0.00    +0.000 C 
ENDBRANCH   1  13
BRANCH   2  14
ATOM     14  C   UNL     1      -7.984   3.422 130.789  0.00  0.00    +0.000 C 
BRANCH  14  15
ATOM     15  O   UNL     1      -7.319   2.740 129.731  0.00  0.00    +0.000 OA
BRANCH  15  16
ATOM     16  C   UNL     1      -6.258   3.436 129.201  0.00  0.00    +0.000 A 
ATOM     17  C   UNL     1      -6.147   3.831 127.865  0.00  0.00    +0.000 A 
ATOM     18  C   UNL     1      -5.090   4.656 127.462  0.00  0.00    +0.000 A 
ATOM     19  C   UNL     1      -4.142   5.114 128.390  0.00  0.00    +0.000 A 
ATOM     20  C   UNL     1      -3.117   6.000 128.019  0.00  0.00    +0.000 A 
ATOM     21  C   UNL     1      -2.191   6.452 128.960  0.00  0.00    +0.000 A 
ATOM     22  C   UNL     1      -2.273   6.019 130.280  0.00  0.00    +0.000 A 
ATOM     23  C   UNL     1      -3.286   5.139 130.664  0.00  0.00    +0.000 A 
ATOM     24  C   UNL     1      -4.235   4.688 129.735  0.00  0.00    +0.000 A 
ATOM     25  C   UNL     1      -5.291   3.846 130.120  0.00  0.00    +0.000 A 
ENDBRANCH  15  16
ENDBRANCH  14  15
ENDBRANCH   2  14
TORSDOF 6
ENDMDL
MODEL 7
REMARK VINA RESULT:      -7.2      8.539     10.495
REMARK  Name = CHEMBL1089272
REMARK  8 active torsions:
REMARK  status: ('A' for Active; 'I' for Inactive)
REMARK    1  A    between atoms: C_1  and  C_2
REMARK    2  A    between atoms: C_2  and  N_3
REMARK    3  A    between atoms: N_3  and  C_18
REMARK    4  A    between atoms: C_4  and  C_6
REMARK    5  A    between atoms: C_6  and  O_7
REMARK    6  A    between atoms: O_7  and  C_8
REMARK    7  A    between atoms: C_21  and  O_22
REMARK    8  A    between atoms: O_22  and  C_23
REMARK                            x       y       z     vdW  Elec       q    Type
REMARK                         _______ _______ _______ _____ _____    ______ ____
ROOT
ATOM      1  N   UNL     1      -9.146   5.226 130.956  0.00  0.00    +0.000 N 
ATOM      2  C   UNL     1      -8.905   5.523 132.320  0.00  0.00    +0.000 C 
ATOM      3  O   UNL     1      -9.527   6.418 132.914  0.00  0.00    +0.000 OA
ENDROOT
BRANCH   1   4
ATOM      4  C   UNL     1     -10.114   6.059 130.249  0.00  0.00    +0.000 A 
ATOM      5  C   UNL     1      -9.766   7.291 129.688  0.00  0.00    +0.000 A 
ATOM      6  C   UNL     1     -10.704   8.030 128.950  0.00  0.00    +0.000 A 
ATOM      7  C   UNL     1     -11.998   7.551 128.813  0.00  0.00    +0.000 A 
ATOM      8  N   UNL     1     -12.384   6.396 129.385  0.00  0.00    +0.000 NA
ATOM      9  C   UNL     1     -11.445   5.677 130.065  0.00  0.00    +0.000 A 
BRANCH   7  10
ATOM     10  O   UNL     1     -12.992   8.169 128.105  0.00  0.00    +0.000 OA
ATOM     11  C   UNL     1     -13.466   9.410 128.615  0.00  0.00    +0.000 C 
ENDBRANCH   7  10
ENDBRANCH   1   4
BRANCH   1  13
ATOM     12  C   UNL     1      -7.319   4.545 129.240  0.00  0.00    +0.000 C 
ATOM     13  C   UNL     1      -8.509   4.176 130.102  0.00  0.00    +0.000 C 
ENDBRANCH   1  13
BRANCH   2  14
ATOM     14  C   UNL     1      -7.875   4.703 133.125  0.00  0.00    +0.000 C 
BRANCH  14  15
ATOM     15  O   UNL     1      -6.685   5.379 133.516  0.00  0.00    +0.000 OA
BRANCH  15  16
ATOM     16  C   UNL     1      -5.688   5.345 132.570  0.00  0.00    +0.000 A 
ATOM     17  C   UNL     1      -4.989   4.198 132.185  0.00  0.00    +0.000 A 
ATOM     18  C   UNL     1      -4.090   4.250 131.112  0.00  0.00    +0.000 A 
ATOM     19  C   UNL     1      -3.894   5.442 130.398  0.00  0.00    +0.000 A 
ATOM     20  C   UNL     1      -3.051   5.496 129.275  0.00  0.00    +0.000 A 
ATOM     21  C   UNL     1      -2.878   6.689 128.572  0.00  0.00    +0.000 A 
ATOM     22  C   UNL     1      -3.537   7.842 128.986  0.00  0.00    +0.000 A 
ATOM     23  C   UNL     1      -4.377   7.805 130.100  0.00  0.00    +0.000 A 
ATOM     24  C   UNL     1      -4.576   6.610 130.808  0.00  0.00    +0.000 A 
ATOM     25  C   UNL     1      -5.460   6.546 131.897  0.00  0.00    +0.000 A 
ENDBRANCH  15  16
ENDBRANCH  14  15
ENDBRANCH   2  14
TORSDOF 6
ENDMDL
MODEL 8
REMARK VINA RESULT:      -7.1      9.816     11.692
REMARK  Name = CHEMBL1089272
REMARK  8 active torsions:
REMARK  status: ('A' for Active; 'I' for Inactive)
REMARK    1  A    between atoms: C_1  and  C_2
REMARK    2  A    between atoms: C_2  and  N_3
REMARK    3  A    between atoms: N_3  and  C_18
REMARK    4  A    between atoms: C_4  and  C_6
REMARK    5  A    between atoms: C_6  and  O_7
REMARK    6  A    between atoms: O_7  and  C_8
REMARK    7  A    between atoms: C_21  and  O_22
REMARK    8  A    between atoms: O_22  and  C_23
REMARK                            x       y       z     vdW  Elec       q    Type
REMARK                         _______ _______ _______ _____ _____    ______ ____
ROOT
ATOM      1  N   UNL     1      -8.393   5.819 131.847  0.00  0.00    +0.000 N 
ATOM      2  C   UNL     1      -7.114   5.727 131.242  0.00  0.00    +0.000 C 
ATOM      3  O   UNL     1      -6.959   5.861 130.018  0.00  0.00    +0.000 OA
ENDROOT
BRANCH   1   4
ATOM      4  C   UNL     1      -9.539   6.016 130.965  0.00  0.00    +0.000 A 
ATOM      5  C   UNL     1      -9.807   7.244 130.356  0.00  0.00    +0.000 A 
ATOM      6  C   UNL     1     -10.874   7.376 129.454  0.00  0.00    +0.000 A 
ATOM      7  C   UNL     1     -11.693   6.287 129.199  0.00  0.00    +0.000 A 
ATOM      8  N   UNL     1     -11.499   5.103 129.809  0.00  0.00    +0.000 NA
ATOM      9  C   UNL     1     -10.432   4.989 130.652  0.00  0.00    +0.000 A 
BRANCH   7  10
ATOM     10  O   UNL     1     -12.750   6.286 128.330  0.00  0.00    +0.000 OA
ATOM     11  C   UNL     1     -12.722   7.252 127.285  0.00  0.00    +0.000 C 
ENDBRANCH   7  10
ENDBRANCH   1   4
BRANCH   1  13
ATOM     12  C   UNL     1      -8.807   4.336 133.938  0.00  0.00    +0.000 C 
ATOM     13  C   UNL     1      -8.750   5.706 133.295  0.00  0.00    +0.000 C 
ENDBRANCH   1  13
BRANCH   2  14
ATOM     14  C   UNL     1      -5.859   5.492 132.108  0.00  0.00    +0.000 C 
BRANCH  14  15
ATOM     15  O   UNL     1      -4.697   5.019 131.435  0.00  0.00    +0.000 OA
BRANCH  15  16
ATOM     16  C   UNL     1      -3.520   5.525 131.935  0.00  0.00    +0.000 A 
ATOM     17  C   UNL     1      -2.317   4.820 132.015  0.00  0.00    +0.000 A 
ATOM     18  C   UNL     1      -1.143   5.476 132.411  0.00  0.00    +0.000 A 
ATOM     19  C   UNL     1      -1.154   6.846 132.713  0.00  0.00    +0.000 A 
ATOM     20  C   UNL     1       0.025   7.535 133.042  0.00  0.00    +0.000 A 
ATOM     21  C   UNL     1      -0.005   8.901 133.328  0.00  0.00    +0.000 A 
ATOM     22  C   UNL     1      -1.213   9.592 133.296  0.00  0.00    +0.000 A 
ATOM     23  C   UNL     1      -2.393   8.921 132.970  0.00  0.00    +0.000 A 
ATOM     24  C   UNL     1      -2.378   7.552 132.663  0.00  0.00    +0.000 A 
ATOM     25  C   UNL     1      -3.548   6.876 132.282  0.00  0.00    +0.000 A 
ENDBRANCH  15  16
ENDBRANCH  14  15
ENDBRANCH   2  14
TORSDOF 6
ENDMDL
MODEL 9
REMARK VINA RESULT:      -7.1      6.874     10.865
REMARK  Name = CHEMBL1089272
REMARK  8 active torsions:
REMARK  status: ('A' for Active; 'I' for Inactive)
REMARK    1  A    between atoms: C_1  and  C_2
REMARK    2  A    between atoms: C_2  and  N_3
REMARK    3  A    between atoms: N_3  and  C_18
REMARK    4  A    between atoms: C_4  and  C_6
REMARK    5  A    between atoms: C_6  and  O_7
REMARK    6  A    between atoms: O_7  and  C_8
REMARK    7  A    between atoms: C_21  and  O_22
REMARK    8  A    between atoms: O_22  and  C_23
REMARK                            x       y       z     vdW  Elec       q    Type
REMARK                         _______ _______ _______ _____ _____    ______ ____
ROOT
ATOM      1  N   UNL     1      -8.769   3.309 130.834  0.00  0.00    +0.000 N 
ATOM      2  C   UNL     1      -8.669   2.454 129.707  0.00  0.00    +0.000 C 
ATOM      3  O   UNL     1      -9.120   2.780 128.598  0.00  0.00    +0.000 OA
ENDROOT
BRANCH   1   4
ATOM      4  C   UNL     1      -9.484   4.570 130.658  0.00  0.00    +0.000 A 
ATOM      5  C   UNL     1      -8.824   5.800 130.627  0.00  0.00    +0.000 A 
ATOM      6  C   UNL     1      -9.534   6.985 130.379  0.00  0.00    +0.000 A 
ATOM      7  C   UNL     1     -10.909   6.935 130.206  0.00  0.00    +0.000 A 
ATOM      8  N   UNL     1     -11.586   5.775 130.284  0.00  0.00    +0.000 NA
ATOM      9  C   UNL     1     -10.868   4.632 130.486  0.00  0.00    +0.000 A 
BRANCH   7  10
ATOM     10  O   UNL     1     -11.707   8.015 129.942  0.00  0.00    +0.000 OA
ATOM     11  C   UNL     1     -11.847   8.391 128.577  0.00  0.00    +0.000 C 
ENDBRANCH   7  10
ENDBRANCH   1   4
BRANCH   1  13
ATOM     12  C   UNL     1      -9.238   3.143 133.383  0.00  0.00    +0.000 C 
ATOM     13  C   UNL     1      -8.265   3.084 132.224  0.00  0.00    +0.000 C 
ENDBRANCH   1  13
BRANCH   2  14
ATOM     14  C   UNL     1      -7.952   1.093 129.825  0.00  0.00    +0.000 C 
BRANCH  14  15
ATOM     15  O   UNL     1      -8.590   0.102 130.622  0.00  0.00    +0.000 OA
BRANCH  15  16
ATOM     16  C   UNL     1      -8.021  -1.146 130.520  0.00  0.00    +0.000 A 
ATOM     17  C   UNL     1      -7.748  -1.805 129.319  0.00  0.00    +0.000 A 
ATOM     18  C   UNL     1      -7.039  -3.013 129.325  0.00  0.00    +0.000 A 
ATOM     19  C   UNL     1      -6.575  -3.567 130.529  0.00  0.00    +0.000 A 
ATOM     20  C   UNL     1      -5.801  -4.738 130.549  0.00  0.00    +0.000 A 
ATOM     21  C   UNL     1      -5.340  -5.267 131.756  0.00  0.00    +0.000 A 
ATOM     22  C   UNL     1      -5.654  -4.636 132.956  0.00  0.00    +0.000 A 
ATOM     23  C   UNL     1      -6.423  -3.470 132.952  0.00  0.00    +0.000 A 
ATOM     24  C   UNL     1      -6.879  -2.917 131.747  0.00  0.00    +0.000 A 
ATOM     25  C   UNL     1      -7.607  -1.716 131.724  0.00  0.00    +0.000 A 
ENDBRANCH  15  16
ENDBRANCH  14  15
ENDBRANCH   2  14
TORSDOF 6
ENDMDL
