MODEL 1
REMARK VINA RESULT:     -13.2      0.000      0.000
REMARK  Name = CHEMBL287101
REMARK  7 active torsions:
REMARK  status: ('A' for Active; 'I' for Inactive)
REMARK    1  A    between atoms: C_2  and  C_3
REMARK    2  A    between atoms: C_3  and  N_4
REMARK    3  A    between atoms: C_6  and  C_7
REMARK    4  A    between atoms: N_15  and  C_16
REMARK    5  A    between atoms: C_16  and  C_17
REMARK    6  A    between atoms: C_21  and  C_22
REMARK    7  A    between atoms: C_27  and  N_28
REMARK                            x       y       z     vdW  Elec       q    Type
REMARK                         _______ _______ _______ _____ _____    ______ ____
ROOT
ATOM      1  C   UNL     1      -4.886   3.273 126.499  0.00  0.00    +0.000 A 
ATOM      2  C   UNL     1      -3.569   2.866 126.677  0.00  0.00    +0.000 A 
ATOM      3  C   UNL     1      -3.121   3.604 127.798  0.00  0.00    +0.000 A 
ATOM      4  C   UNL     1      -3.587   3.693 129.144  0.00  0.00    +0.000 A 
ATOM      5  C   UNL     1      -3.333   4.780 130.010  0.00  0.00    +0.000 A 
ATOM      6  C   UNL     1      -2.546   5.786 129.491  0.00  0.00    +0.000 A 
ATOM      7  F   UNL     1      -1.874   6.651 130.279  0.00  0.00    +0.000 F 
ATOM      8  C   UNL     1      -2.403   5.856 128.082  0.00  0.00    +0.000 A 
ATOM      9  C   UNL     1      -3.143   4.894 127.281  0.00  0.00    +0.000 A 
ATOM     10  O   UNL     1      -4.719   4.732 126.882  0.00  0.00    +0.000 OA
ENDROOT
BRANCH   5  11
ATOM     11  C   UNL     1      -4.064   4.948 131.311  0.00  0.00    +0.000 C 
ATOM     12  O   UNL     1      -3.430   5.139 132.347  0.00  0.00    +0.000 OA
ATOM     13  N   UNL     1      -5.471   5.056 131.256  0.00  0.00    +0.000 N 
ATOM     14  C   UNL     1      -6.144   6.268 131.731  0.00  0.00    +0.000 C 
ATOM     15  C   UNL     1      -7.355   5.966 132.602  0.00  0.00    +0.000 C 
ATOM     16  C   UNL     1      -8.611   5.350 131.576  0.00  0.00    +0.000 C 
ATOM     17  C   UNL     1      -7.629   3.874 131.341  0.00  0.00    +0.000 C 
ATOM     18  C   UNL     1      -6.341   4.097 130.578  0.00  0.00    +0.000 C 
BRANCH  16  19
ATOM     19  N   UNL     1      -9.633   6.719 130.805  0.00  0.00    +0.000 N 
ATOM     20  C   UNL     1     -10.499   6.421 131.907  0.00  0.00    +0.000 C 
ATOM     21  O   UNL     1     -10.219   6.470 133.135  0.00  0.00    +0.000 OA
ATOM     22  O   UNL     1     -11.634   5.814 131.579  0.00  0.00    +0.000 OA
ATOM     23  C   UNL     1     -12.369   6.963 131.396  0.00  0.00    +0.000 C 
ATOM     24  C   UNL     1     -12.182   6.988 129.952  0.00  0.00    +0.000 A 
ATOM     25  C   UNL     1     -12.751   6.408 128.810  0.00  0.00    +0.000 A 
ATOM     26  C   UNL     1     -12.894   7.117 127.590  0.00  0.00    +0.000 A 
ATOM     27  C   UNL     1     -12.575   8.428 127.681  0.00  0.00    +0.000 A 
ATOM     28  C   UNL     1     -11.587   8.641 128.827  0.00  0.00    +0.000 A 
ATOM     29  C   UNL     1     -10.947   7.378 129.661  0.00  0.00    +0.000 A 
ENDBRANCH  16  19
ENDBRANCH   5  11
BRANCH   1  30
ATOM     30  C   UNL     1      -5.862   2.542 125.491  0.00  0.00    +0.000 C 
BRANCH  30  33
ATOM     31  O   UNL     1      -9.399   2.325 124.778  0.00  0.00    +0.000 OA
ATOM     32  C   UNL     1      -8.204   2.114 124.544  0.00  0.00    +0.000 C 
ATOM     33  N   UNL     1      -7.298   2.760 125.386  0.00  0.00    +0.000 N 
ATOM     34  H   UNL     1      -7.780   3.377 126.029  0.00  0.00    +0.000 HD
BRANCH  32  35
ATOM     35  C   UNL     1      -7.747   1.115 123.406  0.00  0.00    +0.000 C 
BRANCH  35  36
ATOM     36  N   UNL     1      -7.851  -0.349 123.718  0.00  0.00    +0.000 N 
ATOM     37  C   UNL     1      -6.696  -1.089 124.027  0.00  0.00    +0.000 A 
ATOM     38  C   UNL     1      -6.685  -2.440 123.993  0.00  0.00    +0.000 A 
ATOM     39  C   UNL     1      -7.939  -3.149 123.818  0.00  0.00    +0.000 A 
ATOM     40  C   UNL     1      -9.078  -2.470 123.663  0.00  0.00    +0.000 A 
ATOM     41  C   UNL     1      -9.020  -1.026 123.342  0.00  0.00    +0.000 A 
ATOM     42  O   UNL     1      -9.972  -0.554 122.733  0.00  0.00    +0.000 OA
BRANCH  38  43
ATOM     43  C   UNL     1      -5.462  -3.298 124.164  0.00  0.00    +0.000 C 
ATOM     44  F   UNL     1      -4.930  -3.190 125.408  0.00  0.00    +0.000 F 
ATOM     45  F   UNL     1      -5.748  -4.614 123.975  0.00  0.00    +0.000 F 
ATOM     46  F   UNL     1      -4.480  -2.982 123.283  0.00  0.00    +0.000 F 
ENDBRANCH  38  43
ENDBRANCH  35  36
ENDBRANCH  32  35
ENDBRANCH  30  33
ENDBRANCH   1  30
TORSDOF 7
ENDMDL
MODEL 2
REMARK VINA RESULT:     -13.0      1.453      1.987
REMARK  Name = CHEMBL287101
REMARK  7 active torsions:
REMARK  status: ('A' for Active; 'I' for Inactive)
REMARK    1  A    between atoms: C_2  and  C_3
REMARK    2  A    between atoms: C_3  and  N_4
REMARK    3  A    between atoms: C_6  and  C_7
REMARK    4  A    between atoms: N_15  and  C_16
REMARK    5  A    between atoms: C_16  and  C_17
REMARK    6  A    between atoms: C_21  and  C_22
REMARK    7  A    between atoms: C_27  and  N_28
REMARK                            x       y       z     vdW  Elec       q    Type
REMARK                         _______ _______ _______ _____ _____    ______ ____
ROOT
ATOM      1  C   UNL     1      -7.170   1.293 126.208  0.00  0.00    +0.000 A 
ATOM      2  C   UNL     1      -5.909   0.780 125.928  0.00  0.00    +0.000 A 
ATOM      3  C   UNL     1      -5.014   1.713 126.503  0.00  0.00    +0.000 A 
ATOM      4  C   UNL     1      -4.848   2.195 127.836  0.00  0.00    +0.000 A 
ATOM      5  C   UNL     1      -4.237   3.423 128.174  0.00  0.00    +0.000 A 
ATOM      6  C   UNL     1      -3.749   4.159 127.115  0.00  0.00    +0.000 A 
ATOM      7  F   UNL     1      -2.797   5.102 127.273  0.00  0.00    +0.000 F 
ATOM      8  C   UNL     1      -4.233   3.854 125.817  0.00  0.00    +0.000 A 
ATOM      9  C   UNL     1      -5.252   2.824 125.702  0.00  0.00    +0.000 A 
ATOM     10  O   UNL     1      -6.846   2.768 126.059  0.00  0.00    +0.000 OA
ENDROOT
BRANCH   5  11
ATOM     11  C   UNL     1      -4.328   4.004 129.556  0.00  0.00    +0.000 C 
ATOM     12  O   UNL     1      -3.300   4.278 130.171  0.00  0.00    +0.000 OA
ATOM     13  N   UNL     1      -5.609   4.376 130.020  0.00  0.00    +0.000 N 
ATOM     14  C   UNL     1      -5.899   5.771 130.366  0.00  0.00    +0.000 C 
ATOM     15  C   UNL     1      -6.650   5.906 131.682  0.00  0.00    +0.000 C 
ATOM     16  C   UNL     1      -8.274   5.352 131.432  0.00  0.00    +0.000 C 
ATOM     17  C   UNL     1      -7.629   3.694 131.251  0.00  0.00    +0.000 C 
ATOM     18  C   UNL     1      -6.771   3.490 130.021  0.00  0.00    +0.000 C 
BRANCH  16  19
ATOM     19  N   UNL     1      -9.391   6.705 130.772  0.00  0.00    +0.000 N 
ATOM     20  C   UNL     1     -10.163   6.355 131.927  0.00  0.00    +0.000 C 
ATOM     21  O   UNL     1      -9.794   6.387 133.131  0.00  0.00    +0.000 OA
ATOM     22  O   UNL     1     -11.301   5.720 131.669  0.00  0.00    +0.000 OA
ATOM     23  C   UNL     1     -12.082   6.849 131.568  0.00  0.00    +0.000 C 
ATOM     24  C   UNL     1     -12.004   6.910 130.116  0.00  0.00    +0.000 A 
ATOM     25  C   UNL     1     -12.639   6.337 129.005  0.00  0.00    +0.000 A 
ATOM     26  C   UNL     1     -12.894   7.068 127.816  0.00  0.00    +0.000 A 
ATOM     27  C   UNL     1     -12.608   8.386 127.914  0.00  0.00    +0.000 A 
ATOM     28  C   UNL     1     -11.544   8.605 128.988  0.00  0.00    +0.000 A 
ATOM     29  C   UNL     1     -10.807   7.346 129.743  0.00  0.00    +0.000 A 
ENDBRANCH  16  19
ENDBRANCH   5  11
BRANCH   1  30
ATOM     30  C   UNL     1      -8.492   0.462 125.948  0.00  0.00    +0.000 C 
BRANCH  30  33
ATOM     31  O   UNL     1     -10.364   0.363 122.859  0.00  0.00    +0.000 OA
ATOM     32  C   UNL     1      -9.346   0.223 123.544  0.00  0.00    +0.000 C 
ATOM     33  N   UNL     1      -9.435   0.679 124.860  0.00  0.00    +0.000 N 
ATOM     34  H   UNL     1     -10.326   1.132 125.026  0.00  0.00    +0.000 HD
BRANCH  32  35
ATOM     35  C   UNL     1      -8.056  -0.493 122.975  0.00  0.00    +0.000 C 
BRANCH  35  36
ATOM     36  N   UNL     1      -7.629  -1.754 123.668  0.00  0.00    +0.000 N 
ATOM     37  C   UNL     1      -6.285  -2.166 123.621  0.00  0.00    +0.000 A 
ATOM     38  C   UNL     1      -5.915  -3.426 123.936  0.00  0.00    +0.000 A 
ATOM     39  C   UNL     1      -6.897  -4.322 124.518  0.00  0.00    +0.000 A 
ATOM     40  C   UNL     1      -8.152  -3.911 124.707  0.00  0.00    +0.000 A 
ATOM     41  C   UNL     1      -8.618  -2.679 124.031  0.00  0.00    +0.000 A 
ATOM     42  O   UNL     1      -9.818  -2.591 123.801  0.00  0.00    +0.000 OA
BRANCH  38  43
ATOM     43  C   UNL     1      -4.529  -3.986 123.771  0.00  0.00    +0.000 C 
ATOM     44  F   UNL     1      -3.985  -4.365 124.955  0.00  0.00    +0.000 F 
ATOM     45  F   UNL     1      -4.530  -5.087 122.973  0.00  0.00    +0.000 F 
ATOM     46  F   UNL     1      -3.674  -3.096 123.207  0.00  0.00    +0.000 F 
ENDBRANCH  38  43
ENDBRANCH  35  36
ENDBRANCH  32  35
ENDBRANCH  30  33
ENDBRANCH   1  30
TORSDOF 7
ENDMDL
MODEL 3
REMARK VINA RESULT:     -12.9      3.782      5.916
REMARK  Name = CHEMBL287101
REMARK  7 active torsions:
REMARK  status: ('A' for Active; 'I' for Inactive)
REMARK    1  A    between atoms: C_2  and  C_3
REMARK    2  A    between atoms: C_3  and  N_4
REMARK    3  A    between atoms: C_6  and  C_7
REMARK    4  A    between atoms: N_15  and  C_16
REMARK    5  A    between atoms: C_16  and  C_17
REMARK    6  A    between atoms: C_21  and  C_22
REMARK    7  A    between atoms: C_27  and  N_28
REMARK                            x       y       z     vdW  Elec       q    Type
REMARK                         _______ _______ _______ _____ _____    ______ ____
ROOT
ATOM      1  C   UNL     1      -5.669   3.985 125.947  0.00  0.00    +0.000 A 
ATOM      2  C   UNL     1      -4.398   3.423 125.942  0.00  0.00    +0.000 A 
ATOM      3  C   UNL     1      -3.916   3.632 127.256  0.00  0.00    +0.000 A 
ATOM      4  C   UNL     1      -4.408   3.240 128.538  0.00  0.00    +0.000 A 
ATOM      5  C   UNL     1      -4.083   3.884 129.752  0.00  0.00    +0.000 A 
ATOM      6  C   UNL     1      -3.198   4.937 129.652  0.00  0.00    +0.000 A 
ATOM      7  F   UNL     1      -2.474   5.370 130.705  0.00  0.00    +0.000 F 
ATOM      8  C   UNL     1      -3.012   5.529 128.376  0.00  0.00    +0.000 A 
ATOM      9  C   UNL     1      -3.812   5.018 127.274  0.00  0.00    +0.000 A 
ATOM     10  O   UNL     1      -5.386   5.164 126.859  0.00  0.00    +0.000 OA
ENDROOT
BRANCH   5  11
ATOM     11  C   UNL     1      -4.829   3.607 131.025  0.00  0.00    +0.000 C 
ATOM     12  O   UNL     1      -5.343   4.534 131.646  0.00  0.00    +0.000 OA
ATOM     13  N   UNL     1      -5.059   2.254 131.361  0.00  0.00    +0.000 N 
ATOM     14  C   UNL     1      -6.426   1.737 131.478  0.00  0.00    +0.000 C 
ATOM     15  C   UNL     1      -6.625   0.879 132.719  0.00  0.00    +0.000 C 
ATOM     16  C   UNL     1      -5.794  -0.623 132.469  0.00  0.00    +0.000 C 
ATOM     17  C   UNL     1      -4.249   0.269 132.572  0.00  0.00    +0.000 C 
ATOM     18  C   UNL     1      -4.011   1.238 131.434  0.00  0.00    +0.000 C 
BRANCH  16  19
ATOM     19  N   UNL     1      -6.851  -1.874 131.556  0.00  0.00    +0.000 N 
ATOM     20  C   UNL     1      -5.635  -2.632 131.595  0.00  0.00    +0.000 C 
ATOM     21  O   UNL     1      -4.991  -2.990 132.617  0.00  0.00    +0.000 OA
ATOM     22  O   UNL     1      -5.019  -2.764 130.426  0.00  0.00    +0.000 OA
ATOM     23  C   UNL     1      -5.656  -3.926 130.053  0.00  0.00    +0.000 C 
ATOM     24  C   UNL     1      -6.656  -3.250 129.239  0.00  0.00    +0.000 A 
ATOM     25  C   UNL     1      -6.778  -2.733 127.942  0.00  0.00    +0.000 A 
ATOM     26  C   UNL     1      -7.986  -2.818 127.202  0.00  0.00    +0.000 A 
ATOM     27  C   UNL     1      -8.940  -3.568 127.800  0.00  0.00    +0.000 A 
ATOM     28  C   UNL     1      -8.715  -3.581 129.311  0.00  0.00    +0.000 A 
ATOM     29  C   UNL     1      -7.553  -2.660 130.019  0.00  0.00    +0.000 A 
ENDBRANCH  16  19
ENDBRANCH   5  11
BRANCH   1  30
ATOM     30  C   UNL     1      -6.679   3.788 124.745  0.00  0.00    +0.000 C 
BRANCH  30  33
ATOM     31  O   UNL     1      -9.833   2.025 124.702  0.00  0.00    +0.000 OA
ATOM     32  C   UNL     1      -8.691   2.265 124.299  0.00  0.00    +0.000 C 
ATOM     33  N   UNL     1      -8.073   3.384 124.859  0.00  0.00    +0.000 N 
ATOM     34  H   UNL     1      -8.710   3.877 125.474  0.00  0.00    +0.000 HD
BRANCH  32  35
ATOM     35  C   UNL     1      -7.959   1.315 123.266  0.00  0.00    +0.000 C 
BRANCH  35  36
ATOM     36  N   UNL     1      -8.060  -0.159 123.525  0.00  0.00    +0.000 N 
ATOM     37  C   UNL     1      -6.914  -0.893 123.881  0.00  0.00    +0.000 A 
ATOM     38  C   UNL     1      -6.880  -2.242 123.805  0.00  0.00    +0.000 A 
ATOM     39  C   UNL     1      -8.110  -2.961 123.532  0.00  0.00    +0.000 A 
ATOM     40  C   UNL     1      -9.248  -2.294 123.331  0.00  0.00    +0.000 A 
ATOM     41  C   UNL     1      -9.193  -0.839 123.059  0.00  0.00    +0.000 A 
ATOM     42  O   UNL     1     -10.114  -0.360 122.409  0.00  0.00    +0.000 OA
BRANCH  38  43
ATOM     43  C   UNL     1      -5.657  -3.089 124.022  0.00  0.00    +0.000 C 
ATOM     44  F   UNL     1      -4.716  -2.886 123.064  0.00  0.00    +0.000 F 
ATOM     45  F   UNL     1      -5.066  -2.811 125.214  0.00  0.00    +0.000 F 
ATOM     46  F   UNL     1      -5.938  -4.416 124.026  0.00  0.00    +0.000 F 
ENDBRANCH  38  43
ENDBRANCH  35  36
ENDBRANCH  32  35
ENDBRANCH  30  33
ENDBRANCH   1  30
TORSDOF 7
ENDMDL
MODEL 4
REMARK VINA RESULT:     -12.8      3.117      3.885
REMARK  Name = CHEMBL287101
REMARK  7 active torsions:
REMARK  status: ('A' for Active; 'I' for Inactive)
REMARK    1  A    between atoms: C_2  and  C_3
REMARK    2  A    between atoms: C_3  and  N_4
REMARK    3  A    between atoms: C_6  and  C_7
REMARK    4  A    between atoms: N_15  and  C_16
REMARK    5  A    between atoms: C_16  and  C_17
REMARK    6  A    between atoms: C_21  and  C_22
REMARK    7  A    between atoms: C_27  and  N_28
REMARK                            x       y       z     vdW  Elec       q    Type
REMARK                         _______ _______ _______ _____ _____    ______ ____
ROOT
ATOM      1  C   UNL     1      -3.557   3.744 127.469  0.00  0.00    +0.000 A 
ATOM      2  C   UNL     1      -2.361   4.453 127.484  0.00  0.00    +0.000 A 
ATOM      3  C   UNL     1      -2.496   5.346 128.574  0.00  0.00    +0.000 A 
ATOM      4  C   UNL     1      -2.735   5.141 129.966  0.00  0.00    +0.000 A 
ATOM      5  C   UNL     1      -3.282   6.110 130.836  0.00  0.00    +0.000 A 
ATOM      6  C   UNL     1      -3.555   7.337 130.269  0.00  0.00    +0.000 A 
ATOM      7  F   UNL     1      -3.667   8.460 131.007  0.00  0.00    +0.000 F 
ATOM      8  C   UNL     1      -3.654   7.406 128.856  0.00  0.00    +0.000 A 
ATOM      9  C   UNL     1      -3.516   6.167 128.109  0.00  0.00    +0.000 A 
ATOM     10  O   UNL     1      -4.486   4.871 127.883  0.00  0.00    +0.000 OA
ENDROOT
BRANCH   5  11
ATOM     11  C   UNL     1      -3.760   5.760 132.216  0.00  0.00    +0.000 C 
ATOM     12  O   UNL     1      -3.101   6.101 133.195  0.00  0.00    +0.000 OA
ATOM     13  N   UNL     1      -5.052   5.202 132.332  0.00  0.00    +0.000 N 
ATOM     14  C   UNL     1      -6.095   5.892 133.098  0.00  0.00    +0.000 C 
ATOM     15  C   UNL     1      -6.864   4.956 134.019  0.00  0.00    +0.000 C 
ATOM     16  C   UNL     1      -7.879   3.950 133.035  0.00  0.00    +0.000 C 
ATOM     17  C   UNL     1      -6.405   3.146 132.421  0.00  0.00    +0.000 C 
ATOM     18  C   UNL     1      -5.513   4.036 131.582  0.00  0.00    +0.000 C 
BRANCH  16  19
ATOM     19  N   UNL     1      -9.524   4.763 132.652  0.00  0.00    +0.000 N 
ATOM     20  C   UNL     1      -9.718   3.557 131.903  0.00  0.00    +0.000 C 
ATOM     21  O   UNL     1      -9.695   2.374 132.338  0.00  0.00    +0.000 OA
ATOM     22  O   UNL     1      -9.691   3.707 130.583  0.00  0.00    +0.000 OA
ATOM     23  C   UNL     1     -11.038   3.942 130.432  0.00  0.00    +0.000 C 
ATOM     24  C   UNL     1     -10.898   5.391 130.412  0.00  0.00    +0.000 A 
ATOM     25  C   UNL     1     -10.590   6.403 129.494  0.00  0.00    +0.000 A 
ATOM     26  C   UNL     1     -11.221   7.674 129.524  0.00  0.00    +0.000 A 
ATOM     27  C   UNL     1     -12.237   7.756 130.412  0.00  0.00    +0.000 A 
ATOM     28  C   UNL     1     -12.026   6.741 131.534  0.00  0.00    +0.000 A 
ATOM     29  C   UNL     1     -10.657   5.840 131.638  0.00  0.00    +0.000 A 
ENDBRANCH  16  19
ENDBRANCH   5  11
BRANCH   1  30
ATOM     30  C   UNL     1      -3.769   2.474 126.551  0.00  0.00    +0.000 C 
BRANCH  30  33
ATOM     31  O   UNL     1      -6.729   0.402 126.478  0.00  0.00    +0.000 OA
ATOM     32  C   UNL     1      -6.124   1.476 126.396  0.00  0.00    +0.000 C 
ATOM     33  N   UNL     1      -4.773   1.438 126.746  0.00  0.00    +0.000 N 
ATOM     34  H   UNL     1      -4.516   0.522 127.093  0.00  0.00    +0.000 HD
BRANCH  32  35
ATOM     35  C   UNL     1      -6.828   2.785 125.856  0.00  0.00    +0.000 C 
BRANCH  35  36
ATOM     36  N   UNL     1      -7.110   2.836 124.384  0.00  0.00    +0.000 N 
ATOM     37  C   UNL     1      -6.097   3.210 123.483  0.00  0.00    +0.000 A 
ATOM     38  C   UNL     1      -6.374   3.583 122.214  0.00  0.00    +0.000 A 
ATOM     39  C   UNL     1      -7.724   3.415 121.711  0.00  0.00    +0.000 A 
ATOM     40  C   UNL     1      -8.680   2.926 122.504  0.00  0.00    +0.000 A 
ATOM     41  C   UNL     1      -8.447   2.871 123.965  0.00  0.00    +0.000 A 
ATOM     42  O   UNL     1      -9.436   2.909 124.686  0.00  0.00    +0.000 OA
BRANCH  38  43
ATOM     43  C   UNL     1      -5.372   4.136 121.238  0.00  0.00    +0.000 C 
ATOM     44  F   UNL     1      -5.968   4.735 120.176  0.00  0.00    +0.000 F 
ATOM     45  F   UNL     1      -4.578   5.074 121.820  0.00  0.00    +0.000 F 
ATOM     46  F   UNL     1      -4.548   3.179 120.743  0.00  0.00    +0.000 F 
ENDBRANCH  38  43
ENDBRANCH  35  36
ENDBRANCH  32  35
ENDBRANCH  30  33
ENDBRANCH   1  30
TORSDOF 7
ENDMDL
MODEL 5
REMARK VINA RESULT:     -12.7      2.313      3.368
REMARK  Name = CHEMBL287101
REMARK  7 active torsions:
REMARK  status: ('A' for Active; 'I' for Inactive)
REMARK    1  A    between atoms: C_2  and  C_3
REMARK    2  A    between atoms: C_3  and  N_4
REMARK    3  A    between atoms: C_6  and  C_7
REMARK    4  A    between atoms: N_15  and  C_16
REMARK    5  A    between atoms: C_16  and  C_17
REMARK    6  A    between atoms: C_21  and  C_22
REMARK    7  A    between atoms: C_27  and  N_28
REMARK                            x       y       z     vdW  Elec       q    Type
REMARK                         _______ _______ _______ _____ _____    ______ ____
ROOT
ATOM      1  C   UNL     1      -5.423   0.940 126.529  0.00  0.00    +0.000 A 
ATOM      2  C   UNL     1      -4.146   1.289 126.106  0.00  0.00    +0.000 A 
ATOM      3  C   UNL     1      -3.931   2.573 126.660  0.00  0.00    +0.000 A 
ATOM      4  C   UNL     1      -3.941   3.059 128.002  0.00  0.00    +0.000 A 
ATOM      5  C   UNL     1      -4.153   4.408 128.365  0.00  0.00    +0.000 A 
ATOM      6  C   UNL     1      -4.323   5.289 127.318  0.00  0.00    +0.000 A 
ATOM      7  F   UNL     1      -4.114   6.614 127.453  0.00  0.00    +0.000 F 
ATOM      8  C   UNL     1      -4.668   4.753 126.050  0.00  0.00    +0.000 A 
ATOM      9  C   UNL     1      -4.873   3.317 125.959  0.00  0.00    +0.000 A 
ATOM     10  O   UNL     1      -6.065   2.312 126.450  0.00  0.00    +0.000 OA
ENDROOT
BRANCH   5  11
ATOM     11  C   UNL     1      -4.421   4.817 129.785  0.00  0.00    +0.000 C 
ATOM     12  O   UNL     1      -3.482   5.100 130.525  0.00  0.00    +0.000 OA
ATOM     13  N   UNL     1      -5.767   5.031 130.156  0.00  0.00    +0.000 N 
ATOM     14  C   UNL     1      -6.212   6.349 130.617  0.00  0.00    +0.000 C 
ATOM     15  C   UNL     1      -7.087   6.273 131.860  0.00  0.00    +0.000 C 
ATOM     16  C   UNL     1      -8.626   5.623 131.391  0.00  0.00    +0.000 C 
ATOM     17  C   UNL     1      -7.820   4.054 131.099  0.00  0.00    +0.000 C 
ATOM     18  C   UNL     1      -6.839   4.061 129.947  0.00  0.00    +0.000 C 
BRANCH  16  19
ATOM     19  N   UNL     1      -9.796   6.949 130.770  0.00  0.00    +0.000 N 
ATOM     20  C   UNL     1     -10.582   6.493 131.877  0.00  0.00    +0.000 C 
ATOM     21  O   UNL     1     -10.252   6.474 133.093  0.00  0.00    +0.000 OA
ATOM     22  O   UNL     1     -11.674   5.813 131.546  0.00  0.00    +0.000 OA
ATOM     23  C   UNL     1     -12.514   6.902 131.482  0.00  0.00    +0.000 C 
ATOM     24  C   UNL     1     -12.395   7.051 130.039  0.00  0.00    +0.000 A 
ATOM     25  C   UNL     1     -12.962   6.509 128.878  0.00  0.00    +0.000 A 
ATOM     26  C   UNL     1     -13.221   7.292 127.723  0.00  0.00    +0.000 A 
ATOM     27  C   UNL     1     -13.013   8.616 127.905  0.00  0.00    +0.000 A 
ATOM     28  C   UNL     1     -11.996   8.830 129.025  0.00  0.00    +0.000 A 
ATOM     29  C   UNL     1     -11.213   7.571 129.732  0.00  0.00    +0.000 A 
ENDBRANCH  16  19
ENDBRANCH   5  11
BRANCH   1  30
ATOM     30  C   UNL     1      -6.003  -0.519 126.332  0.00  0.00    +0.000 C 
BRANCH  30  33
ATOM     31  O   UNL     1      -6.069  -2.227 123.148  0.00  0.00    +0.000 OA
ATOM     32  C   UNL     1      -6.580  -1.603 124.083  0.00  0.00    +0.000 C 
ATOM     33  N   UNL     1      -5.758  -1.387 125.190  0.00  0.00    +0.000 N 
ATOM     34  H   UNL     1      -4.867  -1.856 125.074  0.00  0.00    +0.000 HD
BRANCH  32  35
ATOM     35  C   UNL     1      -8.051  -1.027 123.990  0.00  0.00    +0.000 C 
BRANCH  35  36
ATOM     36  N   UNL     1      -8.179   0.452 123.773  0.00  0.00    +0.000 N 
ATOM     37  C   UNL     1      -7.338   1.106 122.855  0.00  0.00    +0.000 A 
ATOM     38  C   UNL     1      -7.187   2.449 122.859  0.00  0.00    +0.000 A 
ATOM     39  C   UNL     1      -8.052   3.251 123.704  0.00  0.00    +0.000 A 
ATOM     40  C   UNL     1      -8.960   2.663 124.485  0.00  0.00    +0.000 A 
ATOM     41  C   UNL     1      -8.863   1.206 124.735  0.00  0.00    +0.000 A 
ATOM     42  O   UNL     1      -9.344   0.790 125.782  0.00  0.00    +0.000 OA
BRANCH  38  43
ATOM     43  C   UNL     1      -6.202   3.210 122.016  0.00  0.00    +0.000 C 
ATOM     44  F   UNL     1      -5.543   2.403 121.145  0.00  0.00    +0.000 F 
ATOM     45  F   UNL     1      -6.818   4.165 121.271  0.00  0.00    +0.000 F 
ATOM     46  F   UNL     1      -5.260   3.842 122.760  0.00  0.00    +0.000 F 
ENDBRANCH  38  43
ENDBRANCH  35  36
ENDBRANCH  32  35
ENDBRANCH  30  33
ENDBRANCH   1  30
TORSDOF 7
ENDMDL
MODEL 6
REMARK VINA RESULT:     -12.7      1.531      1.985
REMARK  Name = CHEMBL287101
REMARK  7 active torsions:
REMARK  status: ('A' for Active; 'I' for Inactive)
REMARK    1  A    between atoms: C_2  and  C_3
REMARK    2  A    between atoms: C_3  and  N_4
REMARK    3  A    between atoms: C_6  and  C_7
REMARK    4  A    between atoms: N_15  and  C_16
REMARK    5  A    between atoms: C_16  and  C_17
REMARK    6  A    between atoms: C_21  and  C_22
REMARK    7  A    between atoms: C_27  and  N_28
REMARK                            x       y       z     vdW  Elec       q    Type
REMARK                         _______ _______ _______ _____ _____    ______ ____
ROOT
ATOM      1  C   UNL     1      -4.469   3.931 126.512  0.00  0.00    +0.000 A 
ATOM      2  C   UNL     1      -3.146   3.580 126.756  0.00  0.00    +0.000 A 
ATOM      3  C   UNL     1      -2.834   4.218 127.979  0.00  0.00    +0.000 A 
ATOM      4  C   UNL     1      -3.407   4.138 129.284  0.00  0.00    +0.000 A 
ATOM      5  C   UNL     1      -3.289   5.138 130.275  0.00  0.00    +0.000 A 
ATOM      6  C   UNL     1      -2.530   6.236 129.928  0.00  0.00    +0.000 A 
ATOM      7  F   UNL     1      -1.977   7.048 130.852  0.00  0.00    +0.000 F 
ATOM      8  C   UNL     1      -2.284   6.463 128.549  0.00  0.00    +0.000 A 
ATOM      9  C   UNL     1      -2.897   5.553 127.596  0.00  0.00    +0.000 A 
ATOM     10  O   UNL     1      -4.425   5.347 127.053  0.00  0.00    +0.000 OA
ENDROOT
BRANCH   5  11
ATOM     11  C   UNL     1      -4.126   5.126 131.521  0.00  0.00    +0.000 C 
ATOM     12  O   UNL     1      -3.586   5.222 132.620  0.00  0.00    +0.000 OA
ATOM     13  N   UNL     1      -5.529   5.183 131.361  0.00  0.00    +0.000 N 
ATOM     14  C   UNL     1      -6.296   6.305 131.910  0.00  0.00    +0.000 C 
ATOM     15  C   UNL     1      -7.554   5.856 132.638  0.00  0.00    +0.000 C 
ATOM     16  C   UNL     1      -8.695   5.313 131.449  0.00  0.00    +0.000 C 
ATOM     17  C   UNL     1      -7.626   3.915 131.133  0.00  0.00    +0.000 C 
ATOM     18  C   UNL     1      -6.295   4.275 130.511  0.00  0.00    +0.000 C 
BRANCH  16  19
ATOM     19  N   UNL     1      -9.719   6.720 130.753  0.00  0.00    +0.000 N 
ATOM     20  C   UNL     1     -10.558   6.396 131.869  0.00  0.00    +0.000 C 
ATOM     21  O   UNL     1     -10.243   6.400 133.089  0.00  0.00    +0.000 OA
ATOM     22  O   UNL     1     -11.710   5.815 131.553  0.00  0.00    +0.000 OA
ATOM     23  C   UNL     1     -12.435   6.978 131.429  0.00  0.00    +0.000 C 
ATOM     24  C   UNL     1     -12.288   7.049 129.983  0.00  0.00    +0.000 A 
ATOM     25  C   UNL     1     -12.896   6.514 128.839  0.00  0.00    +0.000 A 
ATOM     26  C   UNL     1     -13.064   7.266 127.647  0.00  0.00    +0.000 A 
ATOM     27  C   UNL     1     -12.725   8.569 127.772  0.00  0.00    +0.000 A 
ATOM     28  C   UNL     1     -11.702   8.731 128.896  0.00  0.00    +0.000 A 
ATOM     29  C   UNL     1     -11.057   7.434 129.670  0.00  0.00    +0.000 A 
ENDBRANCH  16  19
ENDBRANCH   5  11
BRANCH   1  30
ATOM     30  C   UNL     1      -5.317   3.259 125.357  0.00  0.00    +0.000 C 
BRANCH  30  33
ATOM     31  O   UNL     1      -8.909   2.946 125.592  0.00  0.00    +0.000 OA
ATOM     32  C   UNL     1      -7.750   2.537 125.710  0.00  0.00    +0.000 C 
ATOM     33  N   UNL     1      -6.758   3.366 125.184  0.00  0.00    +0.000 N 
ATOM     34  H   UNL     1      -7.168   4.163 124.710  0.00  0.00    +0.000 HD
BRANCH  32  35
ATOM     35  C   UNL     1      -7.419   1.191 126.474  0.00  0.00    +0.000 C 
BRANCH  35  36
ATOM     36  N   UNL     1      -7.177  -0.020 125.622  0.00  0.00    +0.000 N 
ATOM     37  C   UNL     1      -8.237  -0.895 125.323  0.00  0.00    +0.000 A 
ATOM     38  C   UNL     1      -8.019  -2.143 124.851  0.00  0.00    +0.000 A 
ATOM     39  C   UNL     1      -6.673  -2.523 124.466  0.00  0.00    +0.000 A 
ATOM     40  C   UNL     1      -5.665  -1.659 124.606  0.00  0.00    +0.000 A 
ATOM     41  C   UNL     1      -5.857  -0.457 125.449  0.00  0.00    +0.000 A 
ATOM     42  O   UNL     1      -4.856   0.027 125.962  0.00  0.00    +0.000 OA
BRANCH  38  43
ATOM     43  C   UNL     1      -9.082  -3.187 124.648  0.00  0.00    +0.000 C 
ATOM     44  F   UNL     1      -8.576  -4.446 124.684  0.00  0.00    +0.000 F 
ATOM     45  F   UNL     1     -10.035  -3.121 125.615  0.00  0.00    +0.000 F 
ATOM     46  F   UNL     1      -9.722  -3.051 123.459  0.00  0.00    +0.000 F 
ENDBRANCH  38  43
ENDBRANCH  35  36
ENDBRANCH  32  35
ENDBRANCH  30  33
ENDBRANCH   1  30
TORSDOF 7
ENDMDL
MODEL 7
REMARK VINA RESULT:     -12.6      3.065      3.786
REMARK  Name = CHEMBL287101
REMARK  7 active torsions:
REMARK  status: ('A' for Active; 'I' for Inactive)
REMARK    1  A    between atoms: C_2  and  C_3
REMARK    2  A    between atoms: C_3  and  N_4
REMARK    3  A    between atoms: C_6  and  C_7
REMARK    4  A    between atoms: N_15  and  C_16
REMARK    5  A    between atoms: C_16  and  C_17
REMARK    6  A    between atoms: C_21  and  C_22
REMARK    7  A    between atoms: C_27  and  N_28
REMARK                            x       y       z     vdW  Elec       q    Type
REMARK                         _______ _______ _______ _____ _____    ______ ____
ROOT
ATOM      1  C   UNL     1      -7.695   0.608 125.919  0.00  0.00    +0.000 A 
ATOM      2  C   UNL     1      -8.476  -0.456 126.355  0.00  0.00    +0.000 A 
ATOM      3  C   UNL     1      -7.968  -0.762 127.639  0.00  0.00    +0.000 A 
ATOM      4  C   UNL     1      -7.829   0.010 128.832  0.00  0.00    +0.000 A 
ATOM      5  C   UNL     1      -6.917  -0.277 129.871  0.00  0.00    +0.000 A 
ATOM      6  C   UNL     1      -6.152  -1.411 129.698  0.00  0.00    +0.000 A 
ATOM      7  F   UNL     1      -5.567  -2.049 130.734  0.00  0.00    +0.000 F 
ATOM      8  C   UNL     1      -6.042  -1.944 128.388  0.00  0.00    +0.000 A 
ATOM      9  C   UNL     1      -6.698  -1.222 127.310  0.00  0.00    +0.000 A 
ATOM     10  O   UNL     1      -6.373   0.173 126.523  0.00  0.00    +0.000 OA
ENDROOT
BRANCH   5  11
ATOM     11  C   UNL     1      -6.623   0.707 130.967  0.00  0.00    +0.000 C 
ATOM     12  O   UNL     1      -5.551   0.653 131.565  0.00  0.00    +0.000 OA
ATOM     13  N   UNL     1      -7.533   1.773 131.142  0.00  0.00    +0.000 N 
ATOM     14  C   UNL     1      -7.094   3.162 130.976  0.00  0.00    +0.000 C 
ATOM     15  C   UNL     1      -7.596   4.073 132.087  0.00  0.00    +0.000 C 
ATOM     16  C   UNL     1      -9.300   4.305 131.860  0.00  0.00    +0.000 C 
ATOM     17  C   UNL     1      -9.544   2.591 132.305  0.00  0.00    +0.000 C 
ATOM     18  C   UNL     1      -8.975   1.602 131.311  0.00  0.00    +0.000 C 
BRANCH  16  19
ATOM     19  N   UNL     1      -9.673   5.709 130.675  0.00  0.00    +0.000 N 
ATOM     20  C   UNL     1     -10.379   6.216 131.814  0.00  0.00    +0.000 C 
ATOM     21  O   UNL     1      -9.908   6.474 132.954  0.00  0.00    +0.000 OA
ATOM     22  O   UNL     1     -11.703   6.191 131.709  0.00  0.00    +0.000 OA
ATOM     23  C   UNL     1     -11.833   7.442 131.151  0.00  0.00    +0.000 C 
ATOM     24  C   UNL     1     -11.901   6.950 129.783  0.00  0.00    +0.000 A 
ATOM     25  C   UNL     1     -12.857   6.427 128.902  0.00  0.00    +0.000 A 
ATOM     26  C   UNL     1     -12.853   6.724 127.515  0.00  0.00    +0.000 A 
ATOM     27  C   UNL     1     -11.946   7.663 127.160  0.00  0.00    +0.000 A 
ATOM     28  C   UNL     1     -10.798   7.677 128.168  0.00  0.00    +0.000 A 
ATOM     29  C   UNL     1     -10.695   6.570 129.377  0.00  0.00    +0.000 A 
ENDBRANCH  16  19
ENDBRANCH   5  11
BRANCH   1  30
ATOM     30  C   UNL     1      -8.050   1.432 124.616  0.00  0.00    +0.000 C 
BRANCH  30  33
ATOM     31  O   UNL     1     -10.813   0.401 122.527  0.00  0.00    +0.000 OA
ATOM     32  C   UNL     1      -9.630   0.399 122.883  0.00  0.00    +0.000 C 
ATOM     33  N   UNL     1      -9.290   1.338 123.859  0.00  0.00    +0.000 N 
ATOM     34  H   UNL     1     -10.078   1.938 124.072  0.00  0.00    +0.000 HD
BRANCH  32  35
ATOM     35  C   UNL     1      -8.595  -0.653 122.314  0.00  0.00    +0.000 C 
BRANCH  35  36
ATOM     36  N   UNL     1      -8.190  -1.762 123.240  0.00  0.00    +0.000 N 
ATOM     37  C   UNL     1      -6.828  -2.039 123.457  0.00  0.00    +0.000 A 
ATOM     38  C   UNL     1      -6.417  -3.204 124.005  0.00  0.00    +0.000 A 
ATOM     39  C   UNL     1      -7.408  -4.110 124.556  0.00  0.00    +0.000 A 
ATOM     40  C   UNL     1      -8.705  -3.805 124.491  0.00  0.00    +0.000 A 
ATOM     41  C   UNL     1      -9.149  -2.725 123.580  0.00  0.00    +0.000 A 
ATOM     42  O   UNL     1     -10.298  -2.790 123.161  0.00  0.00    +0.000 OA
BRANCH  38  43
ATOM     43  C   UNL     1      -4.983  -3.639 124.134  0.00  0.00    +0.000 C 
ATOM     44  F   UNL     1      -4.820  -4.956 123.850  0.00  0.00    +0.000 F 
ATOM     45  F   UNL     1      -4.177  -2.953 123.280  0.00  0.00    +0.000 F 
ATOM     46  F   UNL     1      -4.490  -3.438 125.382  0.00  0.00    +0.000 F 
ENDBRANCH  38  43
ENDBRANCH  35  36
ENDBRANCH  32  35
ENDBRANCH  30  33
ENDBRANCH   1  30
TORSDOF 7
ENDMDL
MODEL 8
REMARK VINA RESULT:     -12.5      3.900      5.994
REMARK  Name = CHEMBL287101
REMARK  7 active torsions:
REMARK  status: ('A' for Active; 'I' for Inactive)
REMARK    1  A    between atoms: C_2  and  C_3
REMARK    2  A    between atoms: C_3  and  N_4
REMARK    3  A    between atoms: C_6  and  C_7
REMARK    4  A    between atoms: N_15  and  C_16
REMARK    5  A    between atoms: C_16  and  C_17
REMARK    6  A    between atoms: C_21  and  C_22
REMARK    7  A    between atoms: C_27  and  N_28
REMARK                            x       y       z     vdW  Elec       q    Type
REMARK                         _______ _______ _______ _____ _____    ______ ____
ROOT
ATOM      1  C   UNL     1      -4.577   3.799 126.328  0.00  0.00    +0.000 A 
ATOM      2  C   UNL     1      -3.290   3.335 126.576  0.00  0.00    +0.000 A 
ATOM      3  C   UNL     1      -2.998   3.789 127.884  0.00  0.00    +0.000 A 
ATOM      4  C   UNL     1      -3.636   3.579 129.143  0.00  0.00    +0.000 A 
ATOM      5  C   UNL     1      -3.507   4.434 130.260  0.00  0.00    +0.000 A 
ATOM      6  C   UNL     1      -2.670   5.516 130.091  0.00  0.00    +0.000 A 
ATOM      7  F   UNL     1      -2.114   6.165 131.135  0.00  0.00    +0.000 F 
ATOM      8  C   UNL     1      -2.346   5.903 128.765  0.00  0.00    +0.000 A 
ATOM      9  C   UNL     1      -2.966   5.164 127.677  0.00  0.00    +0.000 A 
ATOM     10  O   UNL     1      -4.475   5.128 127.052  0.00  0.00    +0.000 OA
ENDROOT
BRANCH   5  11
ATOM     11  C   UNL     1      -4.402   4.316 131.460  0.00  0.00    +0.000 C 
ATOM     12  O   UNL     1      -4.922   5.323 131.935  0.00  0.00    +0.000 OA
ATOM     13  N   UNL     1      -4.749   3.014 131.885  0.00  0.00    +0.000 N 
ATOM     14  C   UNL     1      -6.150   2.581 131.893  0.00  0.00    +0.000 C 
ATOM     15  C   UNL     1      -6.533   1.855 133.174  0.00  0.00    +0.000 C 
ATOM     16  C   UNL     1      -5.774   0.295 133.152  0.00  0.00    +0.000 C 
ATOM     17  C   UNL     1      -4.197   1.113 133.350  0.00  0.00    +0.000 C 
ATOM     18  C   UNL     1      -3.779   1.957 132.165  0.00  0.00    +0.000 C 
BRANCH  16  19
ATOM     19  N   UNL     1      -6.801  -0.980 132.239  0.00  0.00    +0.000 N 
ATOM     20  C   UNL     1      -5.858  -1.876 132.839  0.00  0.00    +0.000 C 
ATOM     21  O   UNL     1      -5.625  -2.030 134.068  0.00  0.00    +0.000 OA
ATOM     22  O   UNL     1      -4.992  -2.426 131.995  0.00  0.00    +0.000 OA
ATOM     23  C   UNL     1      -5.755  -3.531 131.697  0.00  0.00    +0.000 C 
ATOM     24  C   UNL     1      -6.303  -2.964 130.474  0.00  0.00    +0.000 A 
ATOM     25  C   UNL     1      -5.937  -2.818 129.129  0.00  0.00    +0.000 A 
ATOM     26  C   UNL     1      -6.878  -2.918 128.071  0.00  0.00    +0.000 A 
ATOM     27  C   UNL     1      -8.108  -3.311 128.471  0.00  0.00    +0.000 A 
ATOM     28  C   UNL     1      -8.319  -2.935 129.937  0.00  0.00    +0.000 A 
ATOM     29  C   UNL     1      -7.216  -2.046 130.768  0.00  0.00    +0.000 A 
ENDBRANCH  16  19
ENDBRANCH   5  11
BRANCH   1  30
ATOM     30  C   UNL     1      -5.406   3.337 125.062  0.00  0.00    +0.000 C 
BRANCH  30  33
ATOM     31  O   UNL     1      -8.982   2.946 125.406  0.00  0.00    +0.000 OA
ATOM     32  C   UNL     1      -7.810   2.573 125.513  0.00  0.00    +0.000 C 
ATOM     33  N   UNL     1      -6.854   3.400 124.923  0.00  0.00    +0.000 N 
ATOM     34  H   UNL     1      -7.296   4.162 124.422  0.00  0.00    +0.000 HD
BRANCH  32  35
ATOM     35  C   UNL     1      -7.425   1.275 126.332  0.00  0.00    +0.000 C 
BRANCH  35  36
ATOM     36  N   UNL     1      -7.174   0.029 125.534  0.00  0.00    +0.000 N 
ATOM     37  C   UNL     1      -8.232  -0.854 125.254  0.00  0.00    +0.000 A 
ATOM     38  C   UNL     1      -8.011  -2.120 124.836  0.00  0.00    +0.000 A 
ATOM     39  C   UNL     1      -6.660  -2.519 124.488  0.00  0.00    +0.000 A 
ATOM     40  C   UNL     1      -5.652  -1.654 124.610  0.00  0.00    +0.000 A 
ATOM     41  C   UNL     1      -5.853  -0.417 125.400  0.00  0.00    +0.000 A 
ATOM     42  O   UNL     1      -4.858   0.084 125.909  0.00  0.00    +0.000 OA
BRANCH  38  43
ATOM     43  C   UNL     1      -9.074  -3.169 124.658  0.00  0.00    +0.000 C 
ATOM     44  F   UNL     1     -10.024  -3.104 125.625  0.00  0.00    +0.000 F 
ATOM     45  F   UNL     1      -9.716  -3.028 123.469  0.00  0.00    +0.000 F 
ATOM     46  F   UNL     1      -8.569  -4.428 124.682  0.00  0.00    +0.000 F 
ENDBRANCH  38  43
ENDBRANCH  35  36
ENDBRANCH  32  35
ENDBRANCH  30  33
ENDBRANCH   1  30
TORSDOF 7
ENDMDL
MODEL 9
REMARK VINA RESULT:     -12.2      4.107      6.919
REMARK  Name = CHEMBL287101
REMARK  7 active torsions:
REMARK  status: ('A' for Active; 'I' for Inactive)
REMARK    1  A    between atoms: C_2  and  C_3
REMARK    2  A    between atoms: C_3  and  N_4
REMARK    3  A    between atoms: C_6  and  C_7
REMARK    4  A    between atoms: N_15  and  C_16
REMARK    5  A    between atoms: C_16  and  C_17
REMARK    6  A    between atoms: C_21  and  C_22
REMARK    7  A    between atoms: C_27  and  N_28
REMARK                            x       y       z     vdW  Elec       q    Type
REMARK                         _______ _______ _______ _____ _____    ______ ____
ROOT
ATOM      1  C   UNL     1      -8.173  -2.895 127.838  0.00  0.00    +0.000 A 
ATOM      2  C   UNL     1      -8.299  -3.949 128.735  0.00  0.00    +0.000 A 
ATOM      3  C   UNL     1      -7.730  -3.461 129.934  0.00  0.00    +0.000 A 
ATOM      4  C   UNL     1      -8.032  -2.334 130.758  0.00  0.00    +0.000 A 
ATOM      5  C   UNL     1      -7.121  -1.727 131.651  0.00  0.00    +0.000 A 
ATOM      6  C   UNL     1      -5.877  -2.317 131.729  0.00  0.00    +0.000 A 
ATOM      7  F   UNL     1      -5.067  -2.147 132.794  0.00  0.00    +0.000 F 
ATOM      8  C   UNL     1      -5.484  -3.178 130.672  0.00  0.00    +0.000 A 
ATOM      9  C   UNL     1      -6.400  -3.332 129.553  0.00  0.00    +0.000 A 
ATOM     10  O   UNL     1      -6.827  -2.370 128.303  0.00  0.00    +0.000 OA
ENDROOT
BRANCH   5  11
ATOM     11  C   UNL     1      -7.399  -0.396 132.286  0.00  0.00    +0.000 C 
ATOM     12  O   UNL     1      -7.438  -0.300 133.511  0.00  0.00    +0.000 OA
ATOM     13  N   UNL     1      -7.427   0.734 131.439  0.00  0.00    +0.000 N 
ATOM     14  C   UNL     1      -6.471   1.830 131.626  0.00  0.00    +0.000 C 
ATOM     15  C   UNL     1      -7.129   3.201 131.561  0.00  0.00    +0.000 C 
ATOM     16  C   UNL     1      -7.563   3.508 129.910  0.00  0.00    +0.000 C 
ATOM     17  C   UNL     1      -8.804   2.228 130.049  0.00  0.00    +0.000 C 
ATOM     18  C   UNL     1      -8.245   0.834 130.232  0.00  0.00    +0.000 C 
BRANCH  16  19
ATOM     19  N   UNL     1      -6.147   4.250 128.931  0.00  0.00    +0.000 N 
ATOM     20  C   UNL     1      -7.096   4.148 127.862  0.00  0.00    +0.000 C 
ATOM     21  O   UNL     1      -8.239   4.677 127.801  0.00  0.00    +0.000 OA
ATOM     22  O   UNL     1      -6.823   3.216 126.956  0.00  0.00    +0.000 OA
ATOM     23  C   UNL     1      -6.076   4.025 126.130  0.00  0.00    +0.000 C 
ATOM     24  C   UNL     1      -4.798   3.601 126.682  0.00  0.00    +0.000 A 
ATOM     25  C   UNL     1      -3.885   2.549 126.525  0.00  0.00    +0.000 A 
ATOM     26  C   UNL     1      -2.481   2.746 126.600  0.00  0.00    +0.000 A 
ATOM     27  C   UNL     1      -2.116   4.045 126.684  0.00  0.00    +0.000 A 
ATOM     28  C   UNL     1      -3.253   4.862 127.295  0.00  0.00    +0.000 A 
ATOM     29  C   UNL     1      -4.614   4.149 127.877  0.00  0.00    +0.000 A 
ENDBRANCH  16  19
ENDBRANCH   5  11
BRANCH   1  30
ATOM     30  C   UNL     1      -8.878  -2.908 126.422  0.00  0.00    +0.000 C 
BRANCH  30  33
ATOM     31  O   UNL     1      -6.790  -2.642 123.484  0.00  0.00    +0.000 OA
ATOM     32  C   UNL     1      -7.404  -2.186 124.454  0.00  0.00    +0.000 C 
ATOM     33  N   UNL     1      -8.214  -3.093 125.140  0.00  0.00    +0.000 N 
ATOM     34  H   UNL     1      -8.224  -3.992 124.672  0.00  0.00    +0.000 HD
BRANCH  32  35
ATOM     35  C   UNL     1      -7.219  -0.686 124.922  0.00  0.00    +0.000 C 
BRANCH  35  36
ATOM     36  N   UNL     1      -7.813   0.370 124.037  0.00  0.00    +0.000 N 
ATOM     37  C   UNL     1      -6.978   1.191 123.258  0.00  0.00    +0.000 A 
ATOM     38  C   UNL     1      -7.422   2.344 122.711  0.00  0.00    +0.000 A 
ATOM     39  C   UNL     1      -8.840   2.648 122.767  0.00  0.00    +0.000 A 
ATOM     40  C   UNL     1      -9.682   1.813 123.379  0.00  0.00    +0.000 A 
ATOM     41  C   UNL     1      -9.138   0.764 124.272  0.00  0.00    +0.000 A 
ATOM     42  O   UNL     1      -9.869   0.364 125.169  0.00  0.00    +0.000 OA
BRANCH  38  43
ATOM     43  C   UNL     1      -6.562   3.347 121.994  0.00  0.00    +0.000 C 
ATOM     44  F   UNL     1      -6.012   4.251 122.846  0.00  0.00    +0.000 F 
ATOM     45  F   UNL     1      -5.530   2.745 121.346  0.00  0.00    +0.000 F 
ATOM     46  F   UNL     1      -7.252   4.051 121.061  0.00  0.00    +0.000 F 
ENDBRANCH  38  43
ENDBRANCH  35  36
ENDBRANCH  32  35
ENDBRANCH  30  33
ENDBRANCH   1  30
TORSDOF 7
ENDMDL
