MODEL 1
REMARK VINA RESULT:      -9.7      0.000      0.000
REMARK  Name = CHEMBL481569
REMARK  7 active torsions:
REMARK  status: ('A' for Active; 'I' for Inactive)
REMARK    1  A    between atoms: C_1  and  C_2
REMARK    2  A    between atoms: C_8  and  C_9
REMARK    3  A    between atoms: C_12  and  C_13
REMARK    4  A    between atoms: N_15  and  C_16
REMARK    5  A    between atoms: N_15  and  C_20
REMARK    6  A    between atoms: C_16  and  C_17
REMARK    7  A    between atoms: C_20  and  C_21
REMARK                            x       y       z     vdW  Elec       q    Type
REMARK                         _______ _______ _______ _____ _____    ______ ____
ROOT
ATOM      1  C   UNL     1      -7.412   2.962 121.977  0.00  0.00    +0.000 A 
ATOM      2  C   UNL     1      -8.800   2.879 122.198  0.00  0.00    +0.000 A 
ATOM      3  C   UNL     1      -9.328   2.116 123.279  0.00  0.00    +0.000 A 
ATOM      4  C   UNL     1      -8.484   1.435 124.182  0.00  0.00    +0.000 A 
ATOM      5  C   UNL     1      -7.132   1.812 124.133  0.00  0.00    +0.000 A 
ATOM      6  C   UNL     1      -6.594   2.424 122.968  0.00  0.00    +0.000 A 
ENDROOT
BRANCH   1  14
ATOM      7  C   UNL     1      -4.677   4.573 122.209  0.00  0.00    +0.000 C 
ATOM      8  C   UNL     1      -5.576   4.526 120.999  0.00  0.00    +0.000 A 
ATOM      9  C   UNL     1      -5.212   5.327 119.894  0.00  0.00    +0.000 A 
ATOM     10  C   UNL     1      -6.052   5.439 118.789  0.00  0.00    +0.000 A 
ATOM     11  F   UNL     1      -5.685   6.196 117.748  0.00  0.00    +0.000 F 
ATOM     12  C   UNL     1      -7.275   4.795 118.755  0.00  0.00    +0.000 A 
ATOM     13  C   UNL     1      -7.626   3.973 119.812  0.00  0.00    +0.000 A 
ATOM     14  C   UNL     1      -6.790   3.789 120.931  0.00  0.00    +0.000 A 
ENDBRANCH   1  14
BRANCH   4  15
ATOM     15  C   UNL     1      -9.059   0.114 124.834  0.00  0.00    +0.000 C 
ATOM     16  O   UNL     1     -10.018   0.249 125.581  0.00  0.00    +0.000 OA
ATOM     17  N   UNL     1      -8.638  -1.225 124.485  0.00  0.00    +0.000 N 
BRANCH  17  18
ATOM     18  C   UNL     1      -7.811  -1.611 123.353  0.00  0.00    +0.000 C 
BRANCH  18  19
ATOM     19  C   UNL     1      -6.362  -1.521 123.484  0.00  0.00    +0.000 C 
ATOM     20  C   UNL     1      -5.340  -1.904 124.527  0.00  0.00    +0.000 C 
ATOM     21  C   UNL     1      -5.640  -2.880 123.484  0.00  0.00    +0.000 C 
ENDBRANCH  18  19
ENDBRANCH  17  18
BRANCH  17  22
ATOM     22  C   UNL     1      -9.165  -2.410 125.271  0.00  0.00    +0.000 C 
BRANCH  22  23
ATOM     23  C   UNL     1      -8.267  -2.905 126.478  0.00  0.00    +0.000 C 
ATOM     24  C   UNL     1      -8.997  -3.723 127.553  0.00  0.00    +0.000 C 
ATOM     25  C   UNL     1      -8.201  -3.506 128.796  0.00  0.00    +0.000 C 
ATOM     26  C   UNL     1      -7.709  -2.097 128.616  0.00  0.00    +0.000 C 
ATOM     27  O   UNL     1      -7.659  -1.815 127.204  0.00  0.00    +0.000 OA
ENDBRANCH  22  23
ENDBRANCH  17  22
ENDBRANCH   4  15
TORSDOF 6
ENDMDL
MODEL 2
REMARK VINA RESULT:      -8.8      1.388      1.959
REMARK  Name = CHEMBL481569
REMARK  7 active torsions:
REMARK  status: ('A' for Active; 'I' for Inactive)
REMARK    1  A    between atoms: C_1  and  C_2
REMARK    2  A    between atoms: C_8  and  C_9
REMARK    3  A    between atoms: C_12  and  C_13
REMARK    4  A    between atoms: N_15  and  C_16
REMARK    5  A    between atoms: N_15  and  C_20
REMARK    6  A    between atoms: C_16  and  C_17
REMARK    7  A    between atoms: C_20  and  C_21
REMARK                            x       y       z     vdW  Elec       q    Type
REMARK                         _______ _______ _______ _____ _____    ______ ____
ROOT
ATOM      1  C   UNL     1      -7.138   2.884 122.140  0.00  0.00    +0.000 A 
ATOM      2  C   UNL     1      -6.538   1.674 122.539  0.00  0.00    +0.000 A 
ATOM      3  C   UNL     1      -7.102   0.882 123.579  0.00  0.00    +0.000 A 
ATOM      4  C   UNL     1      -8.293   1.264 124.234  0.00  0.00    +0.000 A 
ATOM      5  C   UNL     1      -9.027   2.274 123.592  0.00  0.00    +0.000 A 
ATOM      6  C   UNL     1      -8.393   3.160 122.678  0.00  0.00    +0.000 A 
ENDROOT
BRANCH   1  14
ATOM      7  C   UNL     1      -4.474   4.627 122.082  0.00  0.00    +0.000 C 
ATOM      8  C   UNL     1      -5.481   4.511 120.964  0.00  0.00    +0.000 A 
ATOM      9  C   UNL     1      -5.263   5.304 119.815  0.00  0.00    +0.000 A 
ATOM     10  C   UNL     1      -6.209   5.352 118.794  0.00  0.00    +0.000 A 
ATOM     11  F   UNL     1      -5.980   6.103 117.710  0.00  0.00    +0.000 F 
ATOM     12  C   UNL     1      -7.396   4.650 118.889  0.00  0.00    +0.000 A 
ATOM     13  C   UNL     1      -7.605   3.836 119.988  0.00  0.00    +0.000 A 
ATOM     14  C   UNL     1      -6.658   3.716 121.025  0.00  0.00    +0.000 A 
ENDBRANCH   1  14
BRANCH   4  15
ATOM     15  C   UNL     1      -8.452   0.812 125.741  0.00  0.00    +0.000 C 
ATOM     16  O   UNL     1      -9.014   1.598 126.489  0.00  0.00    +0.000 OA
ATOM     17  N   UNL     1      -8.127  -0.507 126.241  0.00  0.00    +0.000 N 
BRANCH  17  18
ATOM     18  C   UNL     1      -7.829  -1.689 125.450  0.00  0.00    +0.000 C 
BRANCH  18  19
ATOM     19  C   UNL     1      -8.927  -2.382 124.787  0.00  0.00    +0.000 C 
ATOM     20  C   UNL     1      -9.203  -2.895 123.394  0.00  0.00    +0.000 C 
ATOM     21  C   UNL     1      -8.597  -3.819 124.347  0.00  0.00    +0.000 C 
ENDBRANCH  18  19
ENDBRANCH  17  18
BRANCH  17  22
ATOM     22  C   UNL     1      -8.195  -0.785 127.730  0.00  0.00    +0.000 C 
BRANCH  22  23
ATOM     23  C   UNL     1      -7.326  -2.001 128.255  0.00  0.00    +0.000 C 
ATOM     24  C   UNL     1      -8.088  -3.052 129.075  0.00  0.00    +0.000 C 
ATOM     25  C   UNL     1      -7.052  -3.664 129.958  0.00  0.00    +0.000 C 
ATOM     26  C   UNL     1      -6.133  -2.504 130.219  0.00  0.00    +0.000 C 
ATOM     27  O   UNL     1      -6.247  -1.583 129.118  0.00  0.00    +0.000 OA
ENDBRANCH  22  23
ENDBRANCH  17  22
ENDBRANCH   4  15
TORSDOF 6
ENDMDL
MODEL 3
REMARK VINA RESULT:      -8.6      4.483      9.374
REMARK  Name = CHEMBL481569
REMARK  7 active torsions:
REMARK  status: ('A' for Active; 'I' for Inactive)
REMARK    1  A    between atoms: C_1  and  C_2
REMARK    2  A    between atoms: C_8  and  C_9
REMARK    3  A    between atoms: C_12  and  C_13
REMARK    4  A    between atoms: N_15  and  C_16
REMARK    5  A    between atoms: N_15  and  C_20
REMARK    6  A    between atoms: C_16  and  C_17
REMARK    7  A    between atoms: C_20  and  C_21
REMARK                            x       y       z     vdW  Elec       q    Type
REMARK                         _______ _______ _______ _____ _____    ______ ____
ROOT
ATOM      1  C   UNL     1      -7.443  -2.904 128.625  0.00  0.00    +0.000 A 
ATOM      2  C   UNL     1      -8.614  -3.381 128.004  0.00  0.00    +0.000 A 
ATOM      3  C   UNL     1      -8.892  -3.090 126.638  0.00  0.00    +0.000 A 
ATOM      4  C   UNL     1      -7.998  -2.336 125.848  0.00  0.00    +0.000 A 
ATOM      5  C   UNL     1      -6.714  -2.174 126.392  0.00  0.00    +0.000 A 
ATOM      6  C   UNL     1      -6.500  -2.307 127.792  0.00  0.00    +0.000 A 
ENDROOT
BRANCH   1  14
ATOM      7  C   UNL     1      -8.073  -1.181 131.227  0.00  0.00    +0.000 C 
ATOM      8  C   UNL     1      -7.307  -2.481 131.189  0.00  0.00    +0.000 A 
ATOM      9  C   UNL     1      -6.755  -2.939 132.406  0.00  0.00    +0.000 A 
ATOM     10  C   UNL     1      -5.928  -4.059 132.435  0.00  0.00    +0.000 A 
ATOM     11  F   UNL     1      -5.422  -4.482 133.600  0.00  0.00    +0.000 F 
ATOM     12  C   UNL     1      -5.604  -4.736 131.274  0.00  0.00    +0.000 A 
ATOM     13  C   UNL     1      -6.171  -4.324 130.081  0.00  0.00    +0.000 A 
ATOM     14  C   UNL     1      -7.050  -3.226 130.006  0.00  0.00    +0.000 A 
ENDBRANCH   1  14
BRANCH   4  15
ATOM     15  C   UNL     1      -8.633  -1.471 124.685  0.00  0.00    +0.000 C 
ATOM     16  O   UNL     1      -8.821  -2.044 123.622  0.00  0.00    +0.000 OA
ATOM     17  N   UNL     1      -9.142  -0.126 124.846  0.00  0.00    +0.000 N 
BRANCH  17  18
ATOM     18  C   UNL     1      -9.373   0.574 126.099  0.00  0.00    +0.000 C 
BRANCH  18  19
ATOM     19  C   UNL     1      -8.236   1.177 126.783  0.00  0.00    +0.000 C 
ATOM     20  C   UNL     1      -8.039   2.281 127.795  0.00  0.00    +0.000 C 
ATOM     21  C   UNL     1      -8.201   0.921 128.300  0.00  0.00    +0.000 C 
ENDBRANCH  18  19
ENDBRANCH  17  18
BRANCH  17  22
ATOM     22  C   UNL     1      -9.606   0.653 123.632  0.00  0.00    +0.000 C 
BRANCH  22  23
ATOM     23  C   UNL     1      -8.646   1.810 123.132  0.00  0.00    +0.000 C 
ATOM     24  C   UNL     1      -7.144   1.531 123.281  0.00  0.00    +0.000 C 
ATOM     25  C   UNL     1      -6.519   2.882 123.389  0.00  0.00    +0.000 C 
ATOM     26  C   UNL     1      -7.580   3.665 124.111  0.00  0.00    +0.000 C 
ATOM     27  O   UNL     1      -8.855   3.051 123.839  0.00  0.00    +0.000 OA
ENDBRANCH  22  23
ENDBRANCH  17  22
ENDBRANCH   4  15
TORSDOF 6
ENDMDL
MODEL 4
REMARK VINA RESULT:      -8.5      4.902      9.472
REMARK  Name = CHEMBL481569
REMARK  7 active torsions:
REMARK  status: ('A' for Active; 'I' for Inactive)
REMARK    1  A    between atoms: C_1  and  C_2
REMARK    2  A    between atoms: C_8  and  C_9
REMARK    3  A    between atoms: C_12  and  C_13
REMARK    4  A    between atoms: N_15  and  C_16
REMARK    5  A    between atoms: N_15  and  C_20
REMARK    6  A    between atoms: C_16  and  C_17
REMARK    7  A    between atoms: C_20  and  C_21
REMARK                            x       y       z     vdW  Elec       q    Type
REMARK                         _______ _______ _______ _____ _____    ______ ____
ROOT
ATOM      1  C   UNL     1      -7.371  -2.882 129.564  0.00  0.00    +0.000 A 
ATOM      2  C   UNL     1      -8.398  -3.637 128.966  0.00  0.00    +0.000 A 
ATOM      3  C   UNL     1      -8.640  -3.568 127.564  0.00  0.00    +0.000 A 
ATOM      4  C   UNL     1      -7.847  -2.762 126.718  0.00  0.00    +0.000 A 
ATOM      5  C   UNL     1      -6.648  -2.303 127.286  0.00  0.00    +0.000 A 
ATOM      6  C   UNL     1      -6.499  -2.226 128.698  0.00  0.00    +0.000 A 
ENDROOT
BRANCH   1  14
ATOM      7  C   UNL     1      -5.532  -5.084 130.944  0.00  0.00    +0.000 C 
ATOM      8  C   UNL     1      -6.202  -3.926 131.642  0.00  0.00    +0.000 A 
ATOM      9  C   UNL     1      -6.063  -3.852 133.046  0.00  0.00    +0.000 A 
ATOM     10  C   UNL     1      -6.753  -2.890 133.779  0.00  0.00    +0.000 A 
ATOM     11  F   UNL     1      -6.601  -2.831 135.108  0.00  0.00    +0.000 F 
ATOM     12  C   UNL     1      -7.612  -2.003 133.160  0.00  0.00    +0.000 A 
ATOM     13  C   UNL     1      -7.726  -2.035 131.780  0.00  0.00    +0.000 A 
ATOM     14  C   UNL     1      -7.013  -2.958 130.990  0.00  0.00    +0.000 A 
ENDBRANCH   1  14
BRANCH   4  15
ATOM     15  C   UNL     1      -8.552  -2.175 125.430  0.00  0.00    +0.000 C 
ATOM     16  O   UNL     1      -9.731  -1.874 125.545  0.00  0.00    +0.000 OA
ATOM     17  N   UNL     1      -7.866  -1.830 124.204  0.00  0.00    +0.000 N 
BRANCH  17  18
ATOM     18  C   UNL     1      -6.429  -1.737 124.005  0.00  0.00    +0.000 C 
BRANCH  18  19
ATOM     19  C   UNL     1      -5.740  -2.847 123.358  0.00  0.00    +0.000 C 
ATOM     20  C   UNL     1      -4.312  -3.324 123.253  0.00  0.00    +0.000 C 
ATOM     21  C   UNL     1      -5.128  -3.867 124.334  0.00  0.00    +0.000 C 
ENDBRANCH  18  19
ENDBRANCH  17  18
BRANCH  17  22
ATOM     22  C   UNL     1      -8.666  -1.400 122.989  0.00  0.00    +0.000 C 
BRANCH  22  23
ATOM     23  C   UNL     1      -9.072   0.130 122.923  0.00  0.00    +0.000 C 
ATOM     24  C   UNL     1      -8.237   1.073 123.801  0.00  0.00    +0.000 C 
ATOM     25  C   UNL     1      -9.145   2.223 124.087  0.00  0.00    +0.000 C 
ATOM     26  C   UNL     1     -10.492   1.558 124.140  0.00  0.00    +0.000 C 
ATOM     27  O   UNL     1     -10.435   0.363 123.338  0.00  0.00    +0.000 OA
ENDBRANCH  22  23
ENDBRANCH  17  22
ENDBRANCH   4  15
TORSDOF 6
ENDMDL
MODEL 5
REMARK VINA RESULT:      -8.5      6.999     10.947
REMARK  Name = CHEMBL481569
REMARK  7 active torsions:
REMARK  status: ('A' for Active; 'I' for Inactive)
REMARK    1  A    between atoms: C_1  and  C_2
REMARK    2  A    between atoms: C_8  and  C_9
REMARK    3  A    between atoms: C_12  and  C_13
REMARK    4  A    between atoms: N_15  and  C_16
REMARK    5  A    between atoms: N_15  and  C_20
REMARK    6  A    between atoms: C_16  and  C_17
REMARK    7  A    between atoms: C_20  and  C_21
REMARK                            x       y       z     vdW  Elec       q    Type
REMARK                         _______ _______ _______ _____ _____    ______ ____
ROOT
ATOM      1  C   UNL     1      -8.024  -0.051 130.463  0.00  0.00    +0.000 A 
ATOM      2  C   UNL     1      -7.487   1.114 129.884  0.00  0.00    +0.000 A 
ATOM      3  C   UNL     1      -8.047   2.395 130.154  0.00  0.00    +0.000 A 
ATOM      4  C   UNL     1      -9.145   2.550 131.028  0.00  0.00    +0.000 A 
ATOM      5  C   UNL     1      -9.428   1.434 131.831  0.00  0.00    +0.000 A 
ATOM      6  C   UNL     1      -8.994   0.136 131.445  0.00  0.00    +0.000 A 
ENDROOT
BRANCH   1  14
ATOM      7  C   UNL     1      -7.968  -1.762 127.779  0.00  0.00    +0.000 C 
ATOM      8  C   UNL     1      -7.416  -2.193 129.115  0.00  0.00    +0.000 A 
ATOM      9  C   UNL     1      -6.893  -3.502 129.205  0.00  0.00    +0.000 A 
ATOM     10  C   UNL     1      -6.481  -4.022 130.429  0.00  0.00    +0.000 A 
ATOM     11  F   UNL     1      -5.980  -5.262 130.492  0.00  0.00    +0.000 F 
ATOM     12  C   UNL     1      -6.599  -3.284 131.592  0.00  0.00    +0.000 A 
ATOM     13  C   UNL     1      -7.070  -1.985 131.514  0.00  0.00    +0.000 A 
ATOM     14  C   UNL     1      -7.454  -1.397 130.293  0.00  0.00    +0.000 A 
ENDBRANCH   1  14
BRANCH   4  15
ATOM     15  C   UNL     1     -10.123   3.758 130.734  0.00  0.00    +0.000 C 
ATOM     16  O   UNL     1     -11.233   3.470 130.311  0.00  0.00    +0.000 OA
ATOM     17  N   UNL     1      -9.851   5.137 131.079  0.00  0.00    +0.000 N 
BRANCH  17  18
ATOM     18  C   UNL     1      -8.782   5.627 131.934  0.00  0.00    +0.000 C 
BRANCH  18  19
ATOM     19  C   UNL     1      -8.845   5.344 133.363  0.00  0.00    +0.000 C 
ATOM     20  C   UNL     1      -8.967   4.107 134.220  0.00  0.00    +0.000 C 
ATOM     21  C   UNL     1      -7.623   4.588 133.914  0.00  0.00    +0.000 C 
ENDBRANCH  18  19
ENDBRANCH  17  18
BRANCH  17  22
ATOM     22  C   UNL     1     -10.803   6.228 130.629  0.00  0.00    +0.000 C 
BRANCH  22  23
ATOM     23  C   UNL     1     -10.311   7.134 129.426  0.00  0.00    +0.000 C 
ATOM     24  C   UNL     1     -11.329   8.163 128.916  0.00  0.00    +0.000 C 
ATOM     25  C   UNL     1     -10.950   8.393 127.491  0.00  0.00    +0.000 C 
ATOM     26  C   UNL     1     -10.435   7.042 127.079  0.00  0.00    +0.000 C 
ATOM     27  O   UNL     1      -9.959   6.364 128.257  0.00  0.00    +0.000 OA
ENDBRANCH  22  23
ENDBRANCH  17  22
ENDBRANCH   4  15
TORSDOF 6
ENDMDL
MODEL 6
REMARK VINA RESULT:      -8.4      7.744      9.646
REMARK  Name = CHEMBL481569
REMARK  7 active torsions:
REMARK  status: ('A' for Active; 'I' for Inactive)
REMARK    1  A    between atoms: C_1  and  C_2
REMARK    2  A    between atoms: C_8  and  C_9
REMARK    3  A    between atoms: C_12  and  C_13
REMARK    4  A    between atoms: N_15  and  C_16
REMARK    5  A    between atoms: N_15  and  C_20
REMARK    6  A    between atoms: C_16  and  C_17
REMARK    7  A    between atoms: C_20  and  C_21
REMARK                            x       y       z     vdW  Elec       q    Type
REMARK                         _______ _______ _______ _____ _____    ______ ____
ROOT
ATOM      1  C   UNL     1      -9.199   6.448 130.181  0.00  0.00    +0.000 A 
ATOM      2  C   UNL     1      -8.124   6.871 130.986  0.00  0.00    +0.000 A 
ATOM      3  C   UNL     1      -6.989   6.038 131.195  0.00  0.00    +0.000 A 
ATOM      4  C   UNL     1      -6.885   4.768 130.586  0.00  0.00    +0.000 A 
ATOM      5  C   UNL     1      -7.796   4.531 129.545  0.00  0.00    +0.000 A 
ATOM      6  C   UNL     1      -9.007   5.271 129.460  0.00  0.00    +0.000 A 
ENDROOT
BRANCH   1  14
ATOM      7  C   UNL     1     -11.908   6.643 131.843  0.00  0.00    +0.000 C 
ATOM      8  C   UNL     1     -11.594   7.390 130.569  0.00  0.00    +0.000 A 
ATOM      9  C   UNL     1     -12.621   8.192 130.023  0.00  0.00    +0.000 A 
ATOM     10  C   UNL     1     -12.458   8.812 128.787  0.00  0.00    +0.000 A 
ATOM     11  F   UNL     1     -13.439   9.574 128.291  0.00  0.00    +0.000 F 
ATOM     12  C   UNL     1     -11.302   8.637 128.049  0.00  0.00    +0.000 A 
ATOM     13  C   UNL     1     -10.271   7.889 128.590  0.00  0.00    +0.000 A 
ATOM     14  C   UNL     1     -10.369   7.281 129.858  0.00  0.00    +0.000 A 
ENDBRANCH   1  14
BRANCH   4  15
ATOM     15  C   UNL     1      -6.059   3.670 131.370  0.00  0.00    +0.000 C 
ATOM     16  O   UNL     1      -4.851   3.842 131.438  0.00  0.00    +0.000 OA
ATOM     17  N   UNL     1      -6.648   2.589 132.131  0.00  0.00    +0.000 N 
BRANCH  17  18
ATOM     18  C   UNL     1      -8.046   2.444 132.501  0.00  0.00    +0.000 C 
BRANCH  18  19
ATOM     19  C   UNL     1      -8.524   3.115 133.704  0.00  0.00    +0.000 C 
ATOM     20  C   UNL     1      -8.300   4.457 134.359  0.00  0.00    +0.000 C 
ATOM     21  C   UNL     1      -9.422   4.336 133.433  0.00  0.00    +0.000 C 
ENDBRANCH  18  19
ENDBRANCH  17  18
BRANCH  17  22
ATOM     22  C   UNL     1      -5.757   1.519 132.732  0.00  0.00    +0.000 C 
BRANCH  22  23
ATOM     23  C   UNL     1      -5.488   0.244 131.831  0.00  0.00    +0.000 C 
ATOM     24  C   UNL     1      -4.011  -0.078 131.566  0.00  0.00    +0.000 C 
ATOM     25  C   UNL     1      -4.013  -0.815 130.268  0.00  0.00    +0.000 C 
ATOM     26  C   UNL     1      -5.156  -0.168 129.538  0.00  0.00    +0.000 C 
ATOM     27  O   UNL     1      -6.074   0.358 130.516  0.00  0.00    +0.000 OA
ENDBRANCH  22  23
ENDBRANCH  17  22
ENDBRANCH   4  15
TORSDOF 6
ENDMDL
MODEL 7
REMARK VINA RESULT:      -8.4      4.602      9.550
REMARK  Name = CHEMBL481569
REMARK  7 active torsions:
REMARK  status: ('A' for Active; 'I' for Inactive)
REMARK    1  A    between atoms: C_1  and  C_2
REMARK    2  A    between atoms: C_8  and  C_9
REMARK    3  A    between atoms: C_12  and  C_13
REMARK    4  A    between atoms: N_15  and  C_16
REMARK    5  A    between atoms: N_15  and  C_20
REMARK    6  A    between atoms: C_16  and  C_17
REMARK    7  A    between atoms: C_20  and  C_21
REMARK                            x       y       z     vdW  Elec       q    Type
REMARK                         _______ _______ _______ _____ _____    ______ ____
ROOT
ATOM      1  C   UNL     1      -7.151  -3.115 129.398  0.00  0.00    +0.000 A 
ATOM      2  C   UNL     1      -8.304  -3.532 128.707  0.00  0.00    +0.000 A 
ATOM      3  C   UNL     1      -8.604  -3.032 127.407  0.00  0.00    +0.000 A 
ATOM      4  C   UNL     1      -7.747  -2.121 126.752  0.00  0.00    +0.000 A 
ATOM      5  C   UNL     1      -6.468  -1.997 127.316  0.00  0.00    +0.000 A 
ATOM      6  C   UNL     1      -6.238  -2.350 128.675  0.00  0.00    +0.000 A 
ENDROOT
BRANCH   1  14
ATOM      7  C   UNL     1      -7.731  -1.807 132.241  0.00  0.00    +0.000 C 
ATOM      8  C   UNL     1      -6.970  -3.086 131.994  0.00  0.00    +0.000 A 
ATOM      9  C   UNL     1      -6.399  -3.724 133.118  0.00  0.00    +0.000 A 
ATOM     10  C   UNL     1      -5.576  -4.836 132.962  0.00  0.00    +0.000 A 
ATOM     11  F   UNL     1      -5.051  -5.431 134.040  0.00  0.00    +0.000 F 
ATOM     12  C   UNL     1      -5.272  -5.329 131.707  0.00  0.00    +0.000 A 
ATOM     13  C   UNL     1      -5.859  -4.740 130.599  0.00  0.00    +0.000 A 
ATOM     14  C   UNL     1      -6.736  -3.643 130.707  0.00  0.00    +0.000 A 
ENDBRANCH   1  14
BRANCH   4  15
ATOM     15  C   UNL     1      -8.425  -1.104 125.748  0.00  0.00    +0.000 C 
ATOM     16  O   UNL     1      -8.761  -0.024 126.211  0.00  0.00    +0.000 OA
ATOM     17  N   UNL     1      -8.521  -1.304 124.318  0.00  0.00    +0.000 N 
BRANCH  17  18
ATOM     18  C   UNL     1      -7.839  -2.319 123.532  0.00  0.00    +0.000 C 
BRANCH  18  19
ATOM     19  C   UNL     1      -6.406  -2.179 123.304  0.00  0.00    +0.000 C 
ATOM     20  C   UNL     1      -5.174  -2.075 124.171  0.00  0.00    +0.000 C 
ATOM     21  C   UNL     1      -5.575  -3.405 123.724  0.00  0.00    +0.000 C 
ENDBRANCH  18  19
ENDBRANCH  17  18
BRANCH  17  22
ATOM     22  C   UNL     1      -9.311  -0.324 123.472  0.00  0.00    +0.000 C 
BRANCH  22  23
ATOM     23  C   UNL     1      -8.597   1.052 123.146  0.00  0.00    +0.000 C 
ATOM     24  C   UNL     1      -7.127   1.152 123.576  0.00  0.00    +0.000 C 
ATOM     25  C   UNL     1      -6.894   2.612 123.781  0.00  0.00    +0.000 C 
ATOM     26  C   UNL     1      -8.231   3.079 124.281  0.00  0.00    +0.000 C 
ATOM     27  O   UNL     1      -9.238   2.177 123.785  0.00  0.00    +0.000 OA
ENDBRANCH  22  23
ENDBRANCH  17  22
ENDBRANCH   4  15
TORSDOF 6
ENDMDL
MODEL 8
REMARK VINA RESULT:      -8.2      8.857     10.483
REMARK  Name = CHEMBL481569
REMARK  7 active torsions:
REMARK  status: ('A' for Active; 'I' for Inactive)
REMARK    1  A    between atoms: C_1  and  C_2
REMARK    2  A    between atoms: C_8  and  C_9
REMARK    3  A    between atoms: C_12  and  C_13
REMARK    4  A    between atoms: N_15  and  C_16
REMARK    5  A    between atoms: N_15  and  C_20
REMARK    6  A    between atoms: C_16  and  C_17
REMARK    7  A    between atoms: C_20  and  C_21
REMARK                            x       y       z     vdW  Elec       q    Type
REMARK                         _______ _______ _______ _____ _____    ______ ____
ROOT
ATOM      1  C   UNL     1      -9.125   6.623 130.202  0.00  0.00    +0.000 A 
ATOM      2  C   UNL     1      -8.018   7.236 130.818  0.00  0.00    +0.000 A 
ATOM      3  C   UNL     1      -6.814   6.513 131.056  0.00  0.00    +0.000 A 
ATOM      4  C   UNL     1      -6.675   5.164 130.663  0.00  0.00    +0.000 A 
ATOM      5  C   UNL     1      -7.653   4.701 129.768  0.00  0.00    +0.000 A 
ATOM      6  C   UNL     1      -8.915   5.351 129.675  0.00  0.00    +0.000 A 
ENDROOT
BRANCH   1  14
ATOM      7  C   UNL     1     -11.853   6.565 131.842  0.00  0.00    +0.000 C 
ATOM      8  C   UNL     1     -11.608   7.318 130.558  0.00  0.00    +0.000 A 
ATOM      9  C   UNL     1     -12.708   7.999 129.990  0.00  0.00    +0.000 A 
ATOM     10  C   UNL     1     -12.600   8.610 128.744  0.00  0.00    +0.000 A 
ATOM     11  F   UNL     1     -13.651   9.258 128.226  0.00  0.00    +0.000 F 
ATOM     12  C   UNL     1     -11.426   8.543 128.017  0.00  0.00    +0.000 A 
ATOM     13  C   UNL     1     -10.327   7.916 128.578  0.00  0.00    +0.000 A 
ATOM     14  C   UNL     1     -10.372   7.324 129.856  0.00  0.00    +0.000 A 
ENDBRANCH   1  14
BRANCH   4  15
ATOM     15  C   UNL     1      -5.713   4.265 131.539  0.00  0.00    +0.000 C 
ATOM     16  O   UNL     1      -6.234   3.636 132.448  0.00  0.00    +0.000 OA
ATOM     17  N   UNL     1      -4.320   4.019 131.238  0.00  0.00    +0.000 N 
BRANCH  17  18
ATOM     18  C   UNL     1      -3.624   4.343 130.003  0.00  0.00    +0.000 C 
BRANCH  18  19
ATOM     19  C   UNL     1      -3.221   5.725 129.770  0.00  0.00    +0.000 C 
ATOM     20  C   UNL     1      -2.150   6.422 128.967  0.00  0.00    +0.000 C 
ATOM     21  C   UNL     1      -3.446   6.216 128.329  0.00  0.00    +0.000 C 
ENDBRANCH  18  19
ENDBRANCH  17  18
BRANCH  17  22
ATOM     22  C   UNL     1      -3.462   3.247 132.221  0.00  0.00    +0.000 C 
BRANCH  22  23
ATOM     23  C   UNL     1      -2.489   4.108 133.128  0.00  0.00    +0.000 C 
ATOM     24  C   UNL     1      -3.072   5.427 133.655  0.00  0.00    +0.000 C 
ATOM     25  C   UNL     1      -1.884   6.303 133.874  0.00  0.00    +0.000 C 
ATOM     26  C   UNL     1      -0.957   5.859 132.778  0.00  0.00    +0.000 C 
ATOM     27  O   UNL     1      -1.282   4.498 132.436  0.00  0.00    +0.000 OA
ENDBRANCH  22  23
ENDBRANCH  17  22
ENDBRANCH   4  15
TORSDOF 6
ENDMDL
MODEL 9
REMARK VINA RESULT:      -8.1      8.865     10.542
REMARK  Name = CHEMBL481569
REMARK  7 active torsions:
REMARK  status: ('A' for Active; 'I' for Inactive)
REMARK    1  A    between atoms: C_1  and  C_2
REMARK    2  A    between atoms: C_8  and  C_9
REMARK    3  A    between atoms: C_12  and  C_13
REMARK    4  A    between atoms: N_15  and  C_16
REMARK    5  A    between atoms: N_15  and  C_20
REMARK    6  A    between atoms: C_16  and  C_17
REMARK    7  A    between atoms: C_20  and  C_21
REMARK                            x       y       z     vdW  Elec       q    Type
REMARK                         _______ _______ _______ _____ _____    ______ ____
ROOT
ATOM      1  C   UNL     1      -8.937   6.510 130.376  0.00  0.00    +0.000 A 
ATOM      2  C   UNL     1      -7.813   7.110 130.974  0.00  0.00    +0.000 A 
ATOM      3  C   UNL     1      -6.602   6.383 131.159  0.00  0.00    +0.000 A 
ATOM      4  C   UNL     1      -6.473   5.044 130.729  0.00  0.00    +0.000 A 
ATOM      5  C   UNL     1      -7.476   4.602 129.851  0.00  0.00    +0.000 A 
ATOM      6  C   UNL     1      -8.740   5.252 129.811  0.00  0.00    +0.000 A 
ENDROOT
BRANCH   1  14
ATOM      7  C   UNL     1     -11.658   6.302 132.016  0.00  0.00    +0.000 C 
ATOM      8  C   UNL     1     -11.427   7.146 130.786  0.00  0.00    +0.000 A 
ATOM      9  C   UNL     1     -12.538   7.850 130.271  0.00  0.00    +0.000 A 
ATOM     10  C   UNL     1     -12.442   8.549 129.070  0.00  0.00    +0.000 A 
ATOM     11  F   UNL     1     -13.504   9.217 128.603  0.00  0.00    +0.000 F 
ATOM     12  C   UNL     1     -11.271   8.549 128.337  0.00  0.00    +0.000 A 
ATOM     13  C   UNL     1     -10.162   7.898 128.850  0.00  0.00    +0.000 A 
ATOM     14  C   UNL     1     -10.194   7.217 130.083  0.00  0.00    +0.000 A 
ENDBRANCH   1  14
BRANCH   4  15
ATOM     15  C   UNL     1      -5.486   4.125 131.554  0.00  0.00    +0.000 C 
ATOM     16  O   UNL     1      -4.313   4.470 131.578  0.00  0.00    +0.000 OA
ATOM     17  N   UNL     1      -5.900   3.022 132.394  0.00  0.00    +0.000 N 
BRANCH  17  18
ATOM     18  C   UNL     1      -7.256   2.705 132.810  0.00  0.00    +0.000 C 
BRANCH  18  19
ATOM     19  C   UNL     1      -7.840   3.453 133.916  0.00  0.00    +0.000 C 
ATOM     20  C   UNL     1      -8.219   4.892 134.173  0.00  0.00    +0.000 C 
ATOM     21  C   UNL     1      -9.247   4.008 133.632  0.00  0.00    +0.000 C 
ENDBRANCH  18  19
ENDBRANCH  17  18
BRANCH  17  22
ATOM     22  C   UNL     1      -4.854   2.128 133.032  0.00  0.00    +0.000 C 
BRANCH  22  23
ATOM     23  C   UNL     1      -4.318   2.582 134.452  0.00  0.00    +0.000 C 
ATOM     24  C   UNL     1      -4.928   1.847 135.654  0.00  0.00    +0.000 C 
ATOM     25  C   UNL     1      -4.809   2.813 136.786  0.00  0.00    +0.000 C 
ATOM     26  C   UNL     1      -4.975   4.136 136.092  0.00  0.00    +0.000 C 
ATOM     27  O   UNL     1      -4.564   3.979 134.720  0.00  0.00    +0.000 OA
ENDBRANCH  22  23
ENDBRANCH  17  22
ENDBRANCH   4  15
TORSDOF 6
ENDMDL
