MODEL 1
REMARK VINA RESULT:      -8.8      0.000      0.000
REMARK  Name = CHEMBL3815099
REMARK  24 active torsions:
REMARK  status: ('A' for Active; 'I' for Inactive)
REMARK    1  A    between atoms: C_1  and  C_2
REMARK    2  A    between atoms: C_2  and  C_3
REMARK    3  A    between atoms: C_3  and  C_4
REMARK    4  A    between atoms: C_3  and  C_5
REMARK    5  A    between atoms: C_9  and  C_10
REMARK    6  A    between atoms: C_10  and  C_11
REMARK    7  A    between atoms: C_14  and  O_15
REMARK    8  A    between atoms: C_26  and  C_27
REMARK    9  A    between atoms: C_33  and  C_34
REMARK   10  A    between atoms: N_36  and  C_37
REMARK   11  A    between atoms: N_36  and  C_38
REMARK   12  A    between atoms: C_38  and  C_39
REMARK   13  A    between atoms: C_38  and  C_43
REMARK   14  A    between atoms: C_39  and  C_40
REMARK   15  A    between atoms: C_40  and  C_41
REMARK   16  A    between atoms: C_40  and  C_42
REMARK   17  A    between atoms: N_45  and  C_46
REMARK   18  A    between atoms: N_45  and  C_47
REMARK   19  A    between atoms: C_47  and  C_48
REMARK   20  A    between atoms: C_54  and  C_55
REMARK   21  A    between atoms: C_55  and  C_56
REMARK   22  A    between atoms: C_62  and  C_63
REMARK   23  A    between atoms: C_63  and  C_64
REMARK   24  A    between atoms: C_64  and  C_65
REMARK                            x       y       z     vdW  Elec       q    Type
REMARK                         _______ _______ _______ _____ _____    ______ ____
ROOT
ATOM      1  C   UNL     1      -7.286   1.353 126.128  0.00  0.00    +0.000 C 
ATOM      2  N   UNL     1      -8.251   2.318 127.458  0.00  0.00    +0.000 N 
ATOM      3  C   UNL     1      -8.456   3.086 128.762  0.00  0.00    +0.000 C 
ATOM      4  O   UNL     1      -9.405   2.643 129.460  0.00  0.00    +0.000 OA
ATOM      5  C   UNL     1      -7.736   4.572 129.411  0.00  0.00    +0.000 C 
ATOM      6  N   UNL     1      -8.721   5.532 130.039  0.00  0.00    +0.000 N 
ATOM      7  C   UNL     1      -9.052   5.818 131.341  0.00  0.00    +0.000 C 
ATOM      8  O   UNL     1      -9.670   6.877 131.533  0.00  0.00    +0.000 OA
ATOM      9  C   UNL     1      -8.702   4.967 132.581  0.00  0.00    +0.000 C 
ATOM     10  C   UNL     1      -7.893   3.698 132.453  0.00  0.00    +0.000 C 
ATOM     11  S   UNL     1      -7.116   3.022 134.024  0.00  0.00    +0.000 S 
ATOM     12  S   UNL     1      -5.478   1.834 133.395  0.00  0.00    +0.000 S 
ATOM     13  C   UNL     1      -5.607  -0.046 133.952  0.00  0.00    +0.000 C 
ATOM     14  C   UNL     1      -4.909  -1.194 133.264  0.00  0.00    +0.000 C 
ATOM     15  N   UNL     1      -5.845  -2.016 132.422  0.00  0.00    +0.000 N 
ATOM     16  C   UNL     1      -6.577  -1.579 131.409  0.00  0.00    +0.000 C 
ATOM     17  O   UNL     1      -7.252  -2.342 130.667  0.00  0.00    +0.000 OA
ATOM     18  C   UNL     1      -6.284  -0.201 131.049  0.00  0.00    +0.000 C 
ATOM     19  N   UNL     1      -5.403  -0.677 129.996  0.00  0.00    +0.000 N 
ATOM     20  C   UNL     1      -5.629  -1.305 128.802  0.00  0.00    +0.000 C 
ATOM     21  O   UNL     1      -4.464  -1.353 128.326  0.00  0.00    +0.000 OA
ATOM     22  C   UNL     1      -7.376  -1.295 127.996  0.00  0.00    +0.000 C 
ATOM     23  N   UNL     1      -8.525  -0.386 127.030  0.00  0.00    +0.000 N 
ATOM     24  C   UNL     1      -8.428   0.492 125.926  0.00  0.00    +0.000 C 
ATOM     25  O   UNL     1      -9.347   0.963 125.192  0.00  0.00    +0.000 OA
ATOM     26  H   UNL     1      -9.107   1.761 127.619  0.00  0.00    +0.000 HD
ATOM     27  H   UNL     1      -8.986   6.311 129.440  0.00  0.00    +0.000 HD
ATOM     28  H   UNL     1      -5.864  -3.035 132.507  0.00  0.00    +0.000 HD
ATOM     29  H   UNL     1      -4.621  -0.071 129.854  0.00  0.00    +0.000 HD
ATOM     30  H   UNL     1      -9.212   0.022 127.645  0.00  0.00    +0.000 HD
ENDROOT
BRANCH  14  31
ATOM     31  C   UNL     1      -4.465  -2.193 134.297  0.00  0.00    +0.000 C 
ATOM     32  O   UNL     1      -4.414  -1.718 135.436  0.00  0.00    +0.000 OA
ATOM     33  N   UNL     1      -4.368  -3.536 133.971  0.00  0.00    +0.000 N 
ATOM     34  C   UNL     1      -3.895  -4.226 132.782  0.00  0.00    +0.000 C 
ATOM     35  C   UNL     1      -4.897  -5.325 132.633  0.00  0.00    +0.000 C 
ATOM     36  C   UNL     1      -5.006  -5.823 134.034  0.00  0.00    +0.000 C 
ATOM     37  C   UNL     1      -4.687  -4.611 134.918  0.00  0.00    +0.000 C 
BRANCH  37  38
ATOM     38  C   UNL     1      -3.488  -5.179 135.748  0.00  0.00    +0.000 C 
ATOM     39  O   UNL     1      -2.649  -5.924 135.240  0.00  0.00    +0.000 OA
ATOM     40  N   UNL     1      -3.385  -4.655 137.050  0.00  0.00    +0.000 N 
ATOM     41  C   UNL     1      -4.552  -4.149 137.759  0.00  0.00    +0.000 C 
BRANCH  40  42
ATOM     42  C   UNL     1      -2.061  -4.614 137.743  0.00  0.00    +0.000 C 
BRANCH  42  43
ATOM     43  C   UNL     1      -0.909  -3.958 136.875  0.00  0.00    +0.000 C 
ATOM     44  O   UNL     1      -0.077  -4.595 136.225  0.00  0.00    +0.000 OA
ATOM     45  N   UNL     1      -0.823  -2.583 136.869  0.00  0.00    +0.000 N 
ATOM     46  C   UNL     1      -1.772  -1.767 137.556  0.00  0.00    +0.000 C 
BRANCH  45  47
ATOM     47  C   UNL     1       0.268  -1.944 136.105  0.00  0.00    +0.000 C 
BRANCH  47  48
ATOM     48  C   UNL     1       0.145  -1.658 134.579  0.00  0.00    +0.000 C 
ATOM     49  N   UNL     1      -0.809  -0.819 134.077  0.00  0.00    +0.000 N 
ATOM     50  O   UNL     1       0.912  -2.182 133.769  0.00  0.00    +0.000 OA
ATOM     51  H   UNL     1      -1.507  -0.295 134.562  0.00  0.00    +0.000 HD
ATOM     52  H   UNL     1      -0.860  -0.671 133.082  0.00  0.00    +0.000 HD
ENDBRANCH  47  48
ENDBRANCH  45  47
ENDBRANCH  42  43
BRANCH  42  53
ATOM     53  C   UNL     1      -1.545  -6.040 138.242  0.00  0.00    +0.000 C 
BRANCH  53  54
ATOM     54  C   UNL     1      -1.531  -6.252 139.746  0.00  0.00    +0.000 C 
ATOM     55  C   UNL     1      -0.750  -5.155 140.350  0.00  0.00    +0.000 C 
ATOM     56  C   UNL     1      -2.847  -6.066 140.468  0.00  0.00    +0.000 C 
ENDBRANCH  53  54
ENDBRANCH  42  53
ENDBRANCH  40  42
ENDBRANCH  37  38
ENDBRANCH  14  31
BRANCH   1  57
ATOM     57  C   UNL     1      -6.183  -0.148 125.925  0.00  0.00    +0.000 C 
ATOM     58  C   UNL     1      -5.427  -1.454 124.997  0.00  0.00    +0.000 C 
BRANCH  57  60
ATOM     59  C   UNL     1      -4.341   1.530 126.942  0.00  0.00    +0.000 C 
ATOM     60  C   UNL     1      -5.289   0.945 125.665  0.00  0.00    +0.000 C 
ENDBRANCH  57  60
ENDBRANCH   1  57
BRANCH  18  61
ATOM     61  C   UNL     1      -7.605   0.689 130.983  0.00  0.00    +0.000 C 
BRANCH  61  62
ATOM     62  C   UNL     1      -8.755   0.417 131.910  0.00  0.00    +0.000 C 
ATOM     63  N   UNL     1      -9.804   1.106 131.631  0.00  0.00    +0.000 N 
ATOM     64  O   UNL     1      -8.874  -0.583 132.727  0.00  0.00    +0.000 OA
ATOM     65  H   UNL     1      -9.621   1.211 130.653  0.00  0.00    +0.000 HD
ATOM     66  H   UNL     1     -10.690   0.585 131.617  0.00  0.00    +0.000 HD
ENDBRANCH  61  62
ENDBRANCH  18  61
BRANCH   5  67
ATOM     67  C   UNL     1      -6.358   4.885 130.232  0.00  0.00    +0.000 C 
BRANCH  67  68
ATOM     68  C   UNL     1      -5.079   4.781 129.498  0.00  0.00    +0.000 A 
ATOM     69  C   UNL     1      -5.256   4.923 128.194  0.00  0.00    +0.000 A 
ATOM     70  C   UNL     1      -4.155   4.983 127.368  0.00  0.00    +0.000 A 
ATOM     71  C   UNL     1      -2.885   4.643 127.678  0.00  0.00    +0.000 A 
ATOM     72  C   UNL     1      -2.668   4.560 129.004  0.00  0.00    +0.000 A 
ATOM     73  C   UNL     1      -3.748   4.713 129.917  0.00  0.00    +0.000 A 
BRANCH  71  74
ATOM     74  O   UNL     1      -1.910   4.250 126.814  0.00  0.00    +0.000 OA
ATOM     75  H   UNL     1      -2.029   4.349 125.839  0.00  0.00    +0.000 HD
ENDBRANCH  71  74
ENDBRANCH  67  68
ENDBRANCH   5  67
BRANCH  22  76
ATOM     76  C   UNL     1      -7.392  -2.557 127.353  0.00  0.00    +0.000 C 
BRANCH  76  77
ATOM     77  C   UNL     1      -8.715  -3.130 127.574  0.00  0.00    +0.000 C 
BRANCH  77  78
ATOM     78  C   UNL     1      -9.083  -3.286 126.161  0.00  0.00    +0.000 C 
ATOM     79  N   UNL     1      -8.292  -4.017 125.301  0.00  0.00    +0.000 N 
ATOM     80  O   UNL     1     -10.137  -2.708 125.736  0.00  0.00    +0.000 OA
ATOM     81  H   UNL     1      -7.381  -4.452 125.496  0.00  0.00    +0.000 HD
ATOM     82  H   UNL     1      -8.538  -4.123 124.341  0.00  0.00    +0.000 HD
ENDBRANCH  77  78
ENDBRANCH  76  77
ENDBRANCH  22  76
TORSDOF 18
ENDMDL
MODEL 2
REMARK VINA RESULT:      -8.1      6.962     13.426
REMARK  Name = CHEMBL3815099
REMARK  24 active torsions:
REMARK  status: ('A' for Active; 'I' for Inactive)
REMARK    1  A    between atoms: C_1  and  C_2
REMARK    2  A    between atoms: C_2  and  C_3
REMARK    3  A    between atoms: C_3  and  C_4
REMARK    4  A    between atoms: C_3  and  C_5
REMARK    5  A    between atoms: C_9  and  C_10
REMARK    6  A    between atoms: C_10  and  C_11
REMARK    7  A    between atoms: C_14  and  O_15
REMARK    8  A    between atoms: C_26  and  C_27
REMARK    9  A    between atoms: C_33  and  C_34
REMARK   10  A    between atoms: N_36  and  C_37
REMARK   11  A    between atoms: N_36  and  C_38
REMARK   12  A    between atoms: C_38  and  C_39
REMARK   13  A    between atoms: C_38  and  C_43
REMARK   14  A    between atoms: C_39  and  C_40
REMARK   15  A    between atoms: C_40  and  C_41
REMARK   16  A    between atoms: C_40  and  C_42
REMARK   17  A    between atoms: N_45  and  C_46
REMARK   18  A    between atoms: N_45  and  C_47
REMARK   19  A    between atoms: C_47  and  C_48
REMARK   20  A    between atoms: C_54  and  C_55
REMARK   21  A    between atoms: C_55  and  C_56
REMARK   22  A    between atoms: C_62  and  C_63
REMARK   23  A    between atoms: C_63  and  C_64
REMARK   24  A    between atoms: C_64  and  C_65
REMARK                            x       y       z     vdW  Elec       q    Type
REMARK                         _______ _______ _______ _____ _____    ______ ____
ROOT
ATOM      1  C   UNL     1       1.376   7.928 139.609  0.00  0.00    +0.000 C 
ATOM      2  N   UNL     1       0.027   7.022 140.604  0.00  0.00    +0.000 N 
ATOM      3  C   UNL     1      -0.983   5.920 140.918  0.00  0.00    +0.000 C 
ATOM      4  O   UNL     1      -2.135   6.356 141.177  0.00  0.00    +0.000 OA
ATOM      5  C   UNL     1      -0.821   4.169 141.152  0.00  0.00    +0.000 C 
ATOM      6  N   UNL     1      -1.589   3.612 142.330  0.00  0.00    +0.000 N 
ATOM      7  C   UNL     1      -2.775   2.928 142.437  0.00  0.00    +0.000 C 
ATOM      8  O   UNL     1      -2.976   2.338 143.510  0.00  0.00    +0.000 OA
ATOM      9  C   UNL     1      -3.859   2.801 141.345  0.00  0.00    +0.000 C 
ATOM     10  C   UNL     1      -3.672   3.428 139.984  0.00  0.00    +0.000 C 
ATOM     11  S   UNL     1      -4.787   2.812 138.603  0.00  0.00    +0.000 S 
ATOM     12  S   UNL     1      -3.760   3.234 136.798  0.00  0.00    +0.000 S 
ATOM     13  C   UNL     1      -4.748   4.421 135.586  0.00  0.00    +0.000 C 
ATOM     14  C   UNL     1      -4.114   5.280 134.518  0.00  0.00    +0.000 C 
ATOM     15  N   UNL     1      -4.054   6.731 134.906  0.00  0.00    +0.000 N 
ATOM     16  C   UNL     1      -3.447   7.235 135.968  0.00  0.00    +0.000 C 
ATOM     17  O   UNL     1      -3.332   8.474 136.175  0.00  0.00    +0.000 OA
ATOM     18  C   UNL     1      -2.667   6.248 136.698  0.00  0.00    +0.000 C 
ATOM     19  N   UNL     1      -1.472   6.698 136.002  0.00  0.00    +0.000 N 
ATOM     20  C   UNL     1      -0.728   7.844 136.069  0.00  0.00    +0.000 C 
ATOM     21  O   UNL     1       0.221   7.566 135.290  0.00  0.00    +0.000 OA
ATOM     22  C   UNL     1      -0.886   9.038 137.570  0.00  0.00    +0.000 C 
ATOM     23  N   UNL     1      -0.403   9.363 139.225  0.00  0.00    +0.000 N 
ATOM     24  C   UNL     1       0.788   9.197 139.969  0.00  0.00    +0.000 C 
ATOM     25  O   UNL     1       1.079   9.629 141.124  0.00  0.00    +0.000 OA
ATOM     26  H   UNL     1      -0.655   7.756 140.853  0.00  0.00    +0.000 HD
ATOM     27  H   UNL     1      -1.022   3.446 143.158  0.00  0.00    +0.000 HD
ATOM     28  H   UNL     1      -4.384   7.456 134.264  0.00  0.00    +0.000 HD
ATOM     29  H   UNL     1      -0.829   5.952 135.835  0.00  0.00    +0.000 HD
ATOM     30  H   UNL     1      -1.152   9.085 139.840  0.00  0.00    +0.000 HD
ENDROOT
BRANCH  14  31
ATOM     31  C   UNL     1      -5.014   5.317 133.314  0.00  0.00    +0.000 C 
ATOM     32  O   UNL     1      -6.152   4.901 133.551  0.00  0.00    +0.000 OA
ATOM     33  N   UNL     1      -4.611   5.978 132.165  0.00  0.00    +0.000 N 
ATOM     34  C   UNL     1      -3.331   6.071 131.482  0.00  0.00    +0.000 C 
ATOM     35  C   UNL     1      -3.288   7.509 131.082  0.00  0.00    +0.000 C 
ATOM     36  C   UNL     1      -4.663   7.711 130.541  0.00  0.00    +0.000 C 
ATOM     37  C   UNL     1      -5.543   6.708 131.297  0.00  0.00    +0.000 C 
BRANCH  37  38
ATOM     38  C   UNL     1      -6.146   5.905 130.097  0.00  0.00    +0.000 C 
ATOM     39  O   UNL     1      -5.462   5.598 129.120  0.00  0.00    +0.000 OA
ATOM     40  N   UNL     1      -7.464   5.457 130.303  0.00  0.00    +0.000 N 
ATOM     41  C   UNL     1      -8.370   6.152 131.207  0.00  0.00    +0.000 C 
BRANCH  40  42
ATOM     42  C   UNL     1      -7.969   4.247 129.584  0.00  0.00    +0.000 C 
BRANCH  42  43
ATOM     43  C   UNL     1      -8.237   4.489 128.041  0.00  0.00    +0.000 C 
ATOM     44  O   UNL     1      -9.012   5.337 127.594  0.00  0.00    +0.000 OA
ATOM     45  N   UNL     1      -7.573   3.680 127.147  0.00  0.00    +0.000 N 
ATOM     46  C   UNL     1      -6.624   2.704 127.577  0.00  0.00    +0.000 C 
BRANCH  45  47
ATOM     47  C   UNL     1      -7.837   3.853 125.703  0.00  0.00    +0.000 C 
BRANCH  47  48
ATOM     48  C   UNL     1      -6.850   4.618 124.773  0.00  0.00    +0.000 C 
ATOM     49  N   UNL     1      -6.460   4.115 123.564  0.00  0.00    +0.000 N 
ATOM     50  O   UNL     1      -6.388   5.713 125.099  0.00  0.00    +0.000 OA
ATOM     51  H   UNL     1      -6.728   3.262 123.120  0.00  0.00    +0.000 HD
ATOM     52  H   UNL     1      -5.811   4.638 122.999  0.00  0.00    +0.000 HD
ENDBRANCH  47  48
ENDBRANCH  45  47
ENDBRANCH  42  43
BRANCH  42  53
ATOM     53  C   UNL     1      -9.293   3.620 130.218  0.00  0.00    +0.000 C 
BRANCH  53  54
ATOM     54  C   UNL     1      -9.163   2.211 130.771  0.00  0.00    +0.000 C 
ATOM     55  C   UNL     1      -7.737   1.972 131.070  0.00  0.00    +0.000 C 
ATOM     56  C   UNL     1      -9.762   1.963 132.137  0.00  0.00    +0.000 C 
ENDBRANCH  53  54
ENDBRANCH  42  53
ENDBRANCH  40  42
ENDBRANCH  37  38
ENDBRANCH  14  31
BRANCH   1  57
ATOM     57  C   UNL     1       1.711   8.626 137.902  0.00  0.00    +0.000 C 
ATOM     58  C   UNL     1       2.488   9.736 136.761  0.00  0.00    +0.000 C 
BRANCH  57  60
ATOM     59  C   UNL     1       2.953   6.550 136.724  0.00  0.00    +0.000 C 
ATOM     60  C   UNL     1       2.707   7.601 138.031  0.00  0.00    +0.000 C 
ENDBRANCH  57  60
ENDBRANCH   1  57
BRANCH  18  61
ATOM     61  C   UNL     1      -3.029   6.234 138.250  0.00  0.00    +0.000 C 
BRANCH  61  62
ATOM     62  C   UNL     1      -4.326   6.814 138.736  0.00  0.00    +0.000 C 
ATOM     63  N   UNL     1      -4.194   7.975 139.273  0.00  0.00    +0.000 N 
ATOM     64  O   UNL     1      -5.520   6.411 138.429  0.00  0.00    +0.000 OA
ATOM     65  H   UNL     1      -3.379   8.250 138.761  0.00  0.00    +0.000 HD
ATOM     66  H   UNL     1      -4.872   8.686 138.973  0.00  0.00    +0.000 HD
ENDBRANCH  61  62
ENDBRANCH  18  61
BRANCH   5  67
ATOM     67  C   UNL     1      -0.773   2.899 140.124  0.00  0.00    +0.000 C 
BRANCH  67  68
ATOM     68  C   UNL     1       0.486   2.652 139.391  0.00  0.00    +0.000 A 
ATOM     69  C   UNL     1       1.182   3.767 139.233  0.00  0.00    +0.000 A 
ATOM     70  C   UNL     1       2.444   3.701 138.685  0.00  0.00    +0.000 A 
ATOM     71  C   UNL     1       2.989   2.660 138.020  0.00  0.00    +0.000 A 
ATOM     72  C   UNL     1       2.334   1.502 138.222  0.00  0.00    +0.000 A 
ATOM     73  C   UNL     1       1.129   1.482 138.978  0.00  0.00    +0.000 A 
BRANCH  71  74
ATOM     74  O   UNL     1       3.988   2.712 137.098  0.00  0.00    +0.000 OA
ATOM     75  H   UNL     1       3.891   3.254 136.278  0.00  0.00    +0.000 HD
ENDBRANCH  71  74
ENDBRANCH  67  68
ENDBRANCH   5  67
BRANCH  22  76
ATOM     76  C   UNL     1      -0.660  10.291 136.950  0.00  0.00    +0.000 C 
BRANCH  76  77
ATOM     77  C   UNL     1      -1.877  11.078 137.124  0.00  0.00    +0.000 C 
BRANCH  77  78
ATOM     78  C   UNL     1      -1.920  11.648 135.771  0.00  0.00    +0.000 C 
ATOM     79  N   UNL     1      -2.638  11.033 134.768  0.00  0.00    +0.000 N 
ATOM     80  O   UNL     1      -1.255  12.710 135.533  0.00  0.00    +0.000 OA
ATOM     81  H   UNL     1      -3.136  10.135 134.807  0.00  0.00    +0.000 HD
ATOM     82  H   UNL     1      -2.667  11.417 133.848  0.00  0.00    +0.000 HD
ENDBRANCH  77  78
ENDBRANCH  76  77
ENDBRANCH  22  76
TORSDOF 18
ENDMDL
MODEL 3
REMARK VINA RESULT:      -7.9      3.202     11.662
REMARK  Name = CHEMBL3815099
REMARK  24 active torsions:
REMARK  status: ('A' for Active; 'I' for Inactive)
REMARK    1  A    between atoms: C_1  and  C_2
REMARK    2  A    between atoms: C_2  and  C_3
REMARK    3  A    between atoms: C_3  and  C_4
REMARK    4  A    between atoms: C_3  and  C_5
REMARK    5  A    between atoms: C_9  and  C_10
REMARK    6  A    between atoms: C_10  and  C_11
REMARK    7  A    between atoms: C_14  and  O_15
REMARK    8  A    between atoms: C_26  and  C_27
REMARK    9  A    between atoms: C_33  and  C_34
REMARK   10  A    between atoms: N_36  and  C_37
REMARK   11  A    between atoms: N_36  and  C_38
REMARK   12  A    between atoms: C_38  and  C_39
REMARK   13  A    between atoms: C_38  and  C_43
REMARK   14  A    between atoms: C_39  and  C_40
REMARK   15  A    between atoms: C_40  and  C_41
REMARK   16  A    between atoms: C_40  and  C_42
REMARK   17  A    between atoms: N_45  and  C_46
REMARK   18  A    between atoms: N_45  and  C_47
REMARK   19  A    between atoms: C_47  and  C_48
REMARK   20  A    between atoms: C_54  and  C_55
REMARK   21  A    between atoms: C_55  and  C_56
REMARK   22  A    between atoms: C_62  and  C_63
REMARK   23  A    between atoms: C_63  and  C_64
REMARK   24  A    between atoms: C_64  and  C_65
REMARK                            x       y       z     vdW  Elec       q    Type
REMARK                         _______ _______ _______ _____ _____    ______ ____
ROOT
ATOM      1  C   UNL     1      -5.620  -3.830 140.775  0.00  0.00    +0.000 C 
ATOM      2  N   UNL     1      -3.901  -4.260 140.071  0.00  0.00    +0.000 N 
ATOM      3  C   UNL     1      -2.620  -4.044 139.269  0.00  0.00    +0.000 C 
ATOM      4  O   UNL     1      -2.354  -4.992 138.486  0.00  0.00    +0.000 OA
ATOM      5  C   UNL     1      -1.349  -2.809 139.339  0.00  0.00    +0.000 C 
ATOM      6  N   UNL     1       0.062  -3.344 139.258  0.00  0.00    +0.000 N 
ATOM      7  C   UNL     1       0.987  -3.403 138.245  0.00  0.00    +0.000 C 
ATOM      8  O   UNL     1       2.162  -3.617 138.581  0.00  0.00    +0.000 OA
ATOM      9  C   UNL     1       0.707  -3.199 136.740  0.00  0.00    +0.000 C 
ATOM     10  C   UNL     1      -0.679  -2.866 136.242  0.00  0.00    +0.000 C 
ATOM     11  S   UNL     1      -0.815  -2.163 134.505  0.00  0.00    +0.000 S 
ATOM     12  S   UNL     1      -2.640  -1.089 134.456  0.00  0.00    +0.000 S 
ATOM     13  C   UNL     1      -3.909  -1.749 133.111  0.00  0.00    +0.000 C 
ATOM     14  C   UNL     1      -5.405  -1.550 133.170  0.00  0.00    +0.000 C 
ATOM     15  N   UNL     1      -6.136  -2.798 133.584  0.00  0.00    +0.000 N 
ATOM     16  C   UNL     1      -5.969  -3.467 134.713  0.00  0.00    +0.000 C 
ATOM     17  O   UNL     1      -6.696  -4.439 135.054  0.00  0.00    +0.000 OA
ATOM     18  C   UNL     1      -5.084  -2.790 135.649  0.00  0.00    +0.000 C 
ATOM     19  N   UNL     1      -6.246  -2.247 136.332  0.00  0.00    +0.000 N 
ATOM     20  C   UNL     1      -7.216  -2.808 137.118  0.00  0.00    +0.000 C 
ATOM     21  O   UNL     1      -7.865  -1.790 137.472  0.00  0.00    +0.000 OA
ATOM     22  C   UNL     1      -6.962  -4.543 137.911  0.00  0.00    +0.000 C 
ATOM     23  N   UNL     1      -6.239  -5.445 139.231  0.00  0.00    +0.000 N 
ATOM     24  C   UNL     1      -6.030  -5.205 140.609  0.00  0.00    +0.000 C 
ATOM     25  O   UNL     1      -5.648  -6.004 141.514  0.00  0.00    +0.000 OA
ATOM     26  H   UNL     1      -3.998  -5.223 139.709  0.00  0.00    +0.000 HD
ATOM     27  H   UNL     1       0.536  -3.414 140.157  0.00  0.00    +0.000 HD
ATOM     28  H   UNL     1      -6.937  -3.136 133.045  0.00  0.00    +0.000 HD
ATOM     29  H   UNL     1      -6.075  -1.335 136.703  0.00  0.00    +0.000 HD
ATOM     30  H   UNL     1      -5.394  -5.882 138.899  0.00  0.00    +0.000 HD
ENDROOT
BRANCH  14  31
ATOM     31  C   UNL     1      -5.930  -1.331 131.779  0.00  0.00    +0.000 C 
ATOM     32  O   UNL     1      -5.600  -2.224 130.993  0.00  0.00    +0.000 OA
ATOM     33  N   UNL     1      -6.868  -0.339 131.537  0.00  0.00    +0.000 N 
ATOM     34  C   UNL     1      -7.018   1.015 132.044  0.00  0.00    +0.000 C 
ATOM     35  C   UNL     1      -8.493   1.113 132.258  0.00  0.00    +0.000 C 
ATOM     36  C   UNL     1      -9.019   0.511 130.999  0.00  0.00    +0.000 C 
ATOM     37  C   UNL     1      -7.942  -0.482 130.548  0.00  0.00    +0.000 C 
BRANCH  37  38
ATOM     38  C   UNL     1      -7.640   0.066 129.114  0.00  0.00    +0.000 C 
ATOM     39  O   UNL     1      -7.506   1.273 128.901  0.00  0.00    +0.000 OA
ATOM     40  N   UNL     1      -7.398  -0.931 128.150  0.00  0.00    +0.000 N 
ATOM     41  C   UNL     1      -7.957  -2.268 128.285  0.00  0.00    +0.000 C 
BRANCH  40  42
ATOM     42  C   UNL     1      -6.558  -0.630 126.950  0.00  0.00    +0.000 C 
BRANCH  42  43
ATOM     43  C   UNL     1      -7.302   0.236 125.853  0.00  0.00    +0.000 C 
ATOM     44  O   UNL     1      -8.376  -0.072 125.331  0.00  0.00    +0.000 OA
ATOM     45  N   UNL     1      -6.691   1.401 125.442  0.00  0.00    +0.000 N 
ATOM     46  C   UNL     1      -5.470   1.856 126.025  0.00  0.00    +0.000 C 
BRANCH  45  47
ATOM     47  C   UNL     1      -7.340   2.207 124.387  0.00  0.00    +0.000 C 
BRANCH  47  48
ATOM     48  C   UNL     1      -6.550   3.262 123.558  0.00  0.00    +0.000 C 
ATOM     49  N   UNL     1      -6.415   4.556 123.976  0.00  0.00    +0.000 N 
ATOM     50  O   UNL     1      -6.014   2.961 122.490  0.00  0.00    +0.000 OA
ATOM     51  H   UNL     1      -6.760   4.989 124.808  0.00  0.00    +0.000 HD
ATOM     52  H   UNL     1      -5.906   5.208 123.403  0.00  0.00    +0.000 HD
ENDBRANCH  47  48
ENDBRANCH  45  47
ENDBRANCH  42  43
BRANCH  42  53
ATOM     53  C   UNL     1      -5.966  -1.927 126.232  0.00  0.00    +0.000 C 
BRANCH  53  54
ATOM     54  C   UNL     1      -6.389  -2.139 124.788  0.00  0.00    +0.000 C 
ATOM     55  C   UNL     1      -5.188  -2.506 124.014  0.00  0.00    +0.000 C 
ATOM     56  C   UNL     1      -7.259  -3.345 124.510  0.00  0.00    +0.000 C 
ENDBRANCH  53  54
ENDBRANCH  42  53
ENDBRANCH  40  42
ENDBRANCH  37  38
ENDBRANCH  14  31
BRANCH   1  57
ATOM     57  C   UNL     1      -7.333  -3.306 140.226  0.00  0.00    +0.000 C 
ATOM     58  C   UNL     1      -9.077  -3.083 140.447  0.00  0.00    +0.000 C 
BRANCH  57  60
ATOM     59  C   UNL     1      -7.630  -0.653 140.570  0.00  0.00    +0.000 C 
ATOM     60  C   UNL     1      -6.811  -2.114 140.832  0.00  0.00    +0.000 C 
ENDBRANCH  57  60
ENDBRANCH   1  57
BRANCH  18  61
ATOM     61  C   UNL     1      -3.921  -3.749 136.168  0.00  0.00    +0.000 C 
BRANCH  61  62
ATOM     62  C   UNL     1      -3.547  -4.981 135.394  0.00  0.00    +0.000 C 
ATOM     63  N   UNL     1      -4.005  -6.064 135.912  0.00  0.00    +0.000 N 
ATOM     64  O   UNL     1      -3.081  -5.026 134.184  0.00  0.00    +0.000 OA
ATOM     65  H   UNL     1      -4.803  -5.655 136.355  0.00  0.00    +0.000 HD
ATOM     66  H   UNL     1      -4.449  -6.720 135.257  0.00  0.00    +0.000 HD
ENDBRANCH  61  62
ENDBRANCH  18  61
BRANCH   5  67
ATOM     67  C   UNL     1      -1.202  -1.313 138.696  0.00  0.00    +0.000 C 
BRANCH  67  68
ATOM     68  C   UNL     1      -2.393  -0.439 138.700  0.00  0.00    +0.000 A 
ATOM     69  C   UNL     1      -2.064   0.828 138.901  0.00  0.00    +0.000 A 
ATOM     70  C   UNL     1      -3.036   1.799 138.806  0.00  0.00    +0.000 A 
ATOM     71  C   UNL     1      -4.375   1.613 138.797  0.00  0.00    +0.000 A 
ATOM     72  C   UNL     1      -4.730   0.343 138.527  0.00  0.00    +0.000 A 
ATOM     73  C   UNL     1      -3.737  -0.667 138.394  0.00  0.00    +0.000 A 
BRANCH  71  74
ATOM     74  O   UNL     1      -5.327   2.510 139.168  0.00  0.00    +0.000 OA
ATOM     75  H   UNL     1      -5.622   3.220 138.548  0.00  0.00    +0.000 HD
ENDBRANCH  71  74
ENDBRANCH  67  68
ENDBRANCH   5  67
BRANCH  22  76
ATOM     76  C   UNL     1      -8.286  -5.044 137.908  0.00  0.00    +0.000 C 
BRANCH  76  77
ATOM     77  C   UNL     1      -8.273  -6.276 137.125  0.00  0.00    +0.000 C 
BRANCH  77  78
ATOM     78  C   UNL     1      -9.532  -6.045 136.404  0.00  0.00    +0.000 C 
ATOM     79  N   UNL     1      -9.590  -5.157 135.352  0.00  0.00    +0.000 N 
ATOM     80  O   UNL     1     -10.579  -6.662 136.788  0.00  0.00    +0.000 OA
ATOM     81  H   UNL     1      -8.847  -4.537 135.006  0.00  0.00    +0.000 HD
ATOM     82  H   UNL     1     -10.443  -4.997 134.862  0.00  0.00    +0.000 HD
ENDBRANCH  77  78
ENDBRANCH  76  77
ENDBRANCH  22  76
TORSDOF 18
ENDMDL
MODEL 4
REMARK VINA RESULT:      -7.9      1.855      3.330
REMARK  Name = CHEMBL3815099
REMARK  24 active torsions:
REMARK  status: ('A' for Active; 'I' for Inactive)
REMARK    1  A    between atoms: C_1  and  C_2
REMARK    2  A    between atoms: C_2  and  C_3
REMARK    3  A    between atoms: C_3  and  C_4
REMARK    4  A    between atoms: C_3  and  C_5
REMARK    5  A    between atoms: C_9  and  C_10
REMARK    6  A    between atoms: C_10  and  C_11
REMARK    7  A    between atoms: C_14  and  O_15
REMARK    8  A    between atoms: C_26  and  C_27
REMARK    9  A    between atoms: C_33  and  C_34
REMARK   10  A    between atoms: N_36  and  C_37
REMARK   11  A    between atoms: N_36  and  C_38
REMARK   12  A    between atoms: C_38  and  C_39
REMARK   13  A    between atoms: C_38  and  C_43
REMARK   14  A    between atoms: C_39  and  C_40
REMARK   15  A    between atoms: C_40  and  C_41
REMARK   16  A    between atoms: C_40  and  C_42
REMARK   17  A    between atoms: N_45  and  C_46
REMARK   18  A    between atoms: N_45  and  C_47
REMARK   19  A    between atoms: C_47  and  C_48
REMARK   20  A    between atoms: C_54  and  C_55
REMARK   21  A    between atoms: C_55  and  C_56
REMARK   22  A    between atoms: C_62  and  C_63
REMARK   23  A    between atoms: C_63  and  C_64
REMARK   24  A    between atoms: C_64  and  C_65
REMARK                            x       y       z     vdW  Elec       q    Type
REMARK                         _______ _______ _______ _____ _____    ______ ____
ROOT
ATOM      1  C   UNL     1      -7.173   1.431 126.102  0.00  0.00    +0.000 C 
ATOM      2  N   UNL     1      -8.187   2.402 127.392  0.00  0.00    +0.000 N 
ATOM      3  C   UNL     1      -8.442   3.166 128.689  0.00  0.00    +0.000 C 
ATOM      4  O   UNL     1      -9.427   2.731 129.341  0.00  0.00    +0.000 OA
ATOM      5  C   UNL     1      -7.736   4.640 129.378  0.00  0.00    +0.000 C 
ATOM      6  N   UNL     1      -8.736   5.609 129.965  0.00  0.00    +0.000 N 
ATOM      7  C   UNL     1      -9.123   5.893 131.252  0.00  0.00    +0.000 C 
ATOM      8  O   UNL     1      -9.738   6.959 131.421  0.00  0.00    +0.000 OA
ATOM      9  C   UNL     1      -8.841   5.033 132.502  0.00  0.00    +0.000 C 
ATOM     10  C   UNL     1      -8.042   3.755 132.405  0.00  0.00    +0.000 C 
ATOM     11  S   UNL     1      -7.345   3.063 134.007  0.00  0.00    +0.000 S 
ATOM     12  S   UNL     1      -5.695   1.858 133.447  0.00  0.00    +0.000 S 
ATOM     13  C   UNL     1      -5.870  -0.022 133.988  0.00  0.00    +0.000 C 
ATOM     14  C   UNL     1      -5.155  -1.176 133.328  0.00  0.00    +0.000 C 
ATOM     15  N   UNL     1      -6.061  -1.983 132.439  0.00  0.00    +0.000 N 
ATOM     16  C   UNL     1      -6.740  -1.533 131.396  0.00  0.00    +0.000 C 
ATOM     17  O   UNL     1      -7.390  -2.285 130.620  0.00  0.00    +0.000 OA
ATOM     18  C   UNL     1      -6.416  -0.157 131.057  0.00  0.00    +0.000 C 
ATOM     19  N   UNL     1      -5.493  -0.639 130.043  0.00  0.00    +0.000 N 
ATOM     20  C   UNL     1      -5.671  -1.259 128.836  0.00  0.00    +0.000 C 
ATOM     21  O   UNL     1      -4.486  -1.318 128.414  0.00  0.00    +0.000 OA
ATOM     22  C   UNL     1      -7.379  -1.224 127.951  0.00  0.00    +0.000 C 
ATOM     23  N   UNL     1      -8.472  -0.297 126.938  0.00  0.00    +0.000 N 
ATOM     24  C   UNL     1      -8.314   0.585 125.844  0.00  0.00    +0.000 C 
ATOM     25  O   UNL     1      -9.193   1.069 125.071  0.00  0.00    +0.000 OA
ATOM     26  H   UNL     1      -9.055   1.854 127.511  0.00  0.00    +0.000 HD
ATOM     27  H   UNL     1      -8.965   6.394 129.358  0.00  0.00    +0.000 HD
ATOM     28  H   UNL     1      -6.096  -3.002 132.518  0.00  0.00    +0.000 HD
ATOM     29  H   UNL     1      -4.698  -0.041 129.939  0.00  0.00    +0.000 HD
ATOM     30  H   UNL     1      -9.181   0.116 127.523  0.00  0.00    +0.000 HD
ENDROOT
BRANCH  14  31
ATOM     31  C   UNL     1      -4.770  -2.184 134.375  0.00  0.00    +0.000 C 
ATOM     32  O   UNL     1      -5.641  -3.039 134.562  0.00  0.00    +0.000 OA
ATOM     33  N   UNL     1      -3.473  -2.223 134.861  0.00  0.00    +0.000 N 
ATOM     34  C   UNL     1      -2.521  -1.179 135.203  0.00  0.00    +0.000 C 
ATOM     35  C   UNL     1      -1.238  -1.733 134.674  0.00  0.00    +0.000 C 
ATOM     36  C   UNL     1      -1.304  -3.145 135.149  0.00  0.00    +0.000 C 
ATOM     37  C   UNL     1      -2.799  -3.472 135.235  0.00  0.00    +0.000 C 
BRANCH  37  38
ATOM     38  C   UNL     1      -2.907  -3.893 136.738  0.00  0.00    +0.000 C 
ATOM     39  O   UNL     1      -2.306  -3.281 137.623  0.00  0.00    +0.000 OA
ATOM     40  N   UNL     1      -3.843  -4.914 136.988  0.00  0.00    +0.000 N 
ATOM     41  C   UNL     1      -4.204  -5.882 135.962  0.00  0.00    +0.000 C 
BRANCH  40  42
ATOM     42  C   UNL     1      -4.488  -5.031 138.333  0.00  0.00    +0.000 C 
BRANCH  42  43
ATOM     43  C   UNL     1      -5.568  -3.908 138.621  0.00  0.00    +0.000 C 
ATOM     44  O   UNL     1      -5.304  -2.775 139.027  0.00  0.00    +0.000 OA
ATOM     45  N   UNL     1      -6.892  -4.235 138.422  0.00  0.00    +0.000 N 
ATOM     46  C   UNL     1      -7.283  -5.509 137.911  0.00  0.00    +0.000 C 
BRANCH  45  47
ATOM     47  C   UNL     1      -7.925  -3.223 138.726  0.00  0.00    +0.000 C 
BRANCH  47  48
ATOM     48  C   UNL     1      -9.440  -3.506 138.508  0.00  0.00    +0.000 C 
ATOM     49  N   UNL     1     -10.114  -3.029 137.418  0.00  0.00    +0.000 N 
ATOM     50  O   UNL     1     -10.086  -4.176 139.315  0.00  0.00    +0.000 OA
ATOM     51  H   UNL     1      -9.772  -2.485 136.654  0.00  0.00    +0.000 HD
ATOM     52  H   UNL     1     -11.097  -3.227 137.322  0.00  0.00    +0.000 HD
ENDBRANCH  47  48
ENDBRANCH  45  47
ENDBRANCH  42  43
BRANCH  42  53
ATOM     53  C   UNL     1      -3.454  -5.039 139.549  0.00  0.00    +0.000 C 
BRANCH  53  54
ATOM     54  C   UNL     1      -4.006  -5.500 140.888  0.00  0.00    +0.000 C 
ATOM     55  C   UNL     1      -4.885  -6.659 140.639  0.00  0.00    +0.000 C 
ATOM     56  C   UNL     1      -3.017  -6.123 141.848  0.00  0.00    +0.000 C 
ENDBRANCH  53  54
ENDBRANCH  42  53
ENDBRANCH  40  42
ENDBRANCH  37  38
ENDBRANCH  14  31
BRANCH   1  57
ATOM     57  C   UNL     1      -6.079  -0.082 125.943  0.00  0.00    +0.000 C 
ATOM     58  C   UNL     1      -5.300  -1.396 125.045  0.00  0.00    +0.000 C 
BRANCH  57  60
ATOM     59  C   UNL     1      -4.365   1.665 127.061  0.00  0.00    +0.000 C 
ATOM     60  C   UNL     1      -5.163   1.001 125.722  0.00  0.00    +0.000 C 
ENDBRANCH  57  60
ENDBRANCH   1  57
BRANCH  18  61
ATOM     61  C   UNL     1      -7.721   0.750 130.935  0.00  0.00    +0.000 C 
BRANCH  61  62
ATOM     62  C   UNL     1      -8.904   0.507 131.829  0.00  0.00    +0.000 C 
ATOM     63  N   UNL     1      -9.925   1.228 131.525  0.00  0.00    +0.000 N 
ATOM     64  O   UNL     1      -9.074  -0.492 132.637  0.00  0.00    +0.000 OA
ATOM     65  H   UNL     1      -9.711   1.332 130.553  0.00  0.00    +0.000 HD
ATOM     66  H   UNL     1     -10.825   0.733 131.485  0.00  0.00    +0.000 HD
ENDBRANCH  61  62
ENDBRANCH  18  61
BRANCH   5  67
ATOM     67  C   UNL     1      -6.392   4.933 130.262  0.00  0.00    +0.000 C 
BRANCH  67  68
ATOM     68  C   UNL     1      -5.155   5.294 129.539  0.00  0.00    +0.000 A 
ATOM     69  C   UNL     1      -4.297   5.921 130.329  0.00  0.00    +0.000 A 
ATOM     70  C   UNL     1      -3.038   6.215 129.857  0.00  0.00    +0.000 A 
ATOM     71  C   UNL     1      -2.625   6.192 128.570  0.00  0.00    +0.000 A 
ATOM     72  C   UNL     1      -3.450   5.501 127.763  0.00  0.00    +0.000 A 
ATOM     73  C   UNL     1      -4.675   4.979 128.266  0.00  0.00    +0.000 A 
BRANCH  71  74
ATOM     74  O   UNL     1      -1.594   6.895 128.030  0.00  0.00    +0.000 OA
ATOM     75  H   UNL     1      -1.541   7.876 128.135  0.00  0.00    +0.000 HD
ENDBRANCH  71  74
ENDBRANCH  67  68
ENDBRANCH   5  67
BRANCH  22  76
ATOM     76  C   UNL     1      -7.380  -2.482 127.302  0.00  0.00    +0.000 C 
BRANCH  76  77
ATOM     77  C   UNL     1      -8.697  -3.072 127.518  0.00  0.00    +0.000 C 
BRANCH  77  78
ATOM     78  C   UNL     1      -9.056  -3.237 126.103  0.00  0.00    +0.000 C 
ATOM     79  N   UNL     1      -8.283  -4.010 125.264  0.00  0.00    +0.000 N 
ATOM     80  O   UNL     1     -10.083  -2.627 125.657  0.00  0.00    +0.000 OA
ATOM     81  H   UNL     1      -7.391  -4.475 125.476  0.00  0.00    +0.000 HD
ATOM     82  H   UNL     1      -8.523  -4.122 124.303  0.00  0.00    +0.000 HD
ENDBRANCH  77  78
ENDBRANCH  76  77
ENDBRANCH  22  76
TORSDOF 18
ENDMDL
MODEL 5
REMARK VINA RESULT:      -7.9      1.542      2.761
REMARK  Name = CHEMBL3815099
REMARK  24 active torsions:
REMARK  status: ('A' for Active; 'I' for Inactive)
REMARK    1  A    between atoms: C_1  and  C_2
REMARK    2  A    between atoms: C_2  and  C_3
REMARK    3  A    between atoms: C_3  and  C_4
REMARK    4  A    between atoms: C_3  and  C_5
REMARK    5  A    between atoms: C_9  and  C_10
REMARK    6  A    between atoms: C_10  and  C_11
REMARK    7  A    between atoms: C_14  and  O_15
REMARK    8  A    between atoms: C_26  and  C_27
REMARK    9  A    between atoms: C_33  and  C_34
REMARK   10  A    between atoms: N_36  and  C_37
REMARK   11  A    between atoms: N_36  and  C_38
REMARK   12  A    between atoms: C_38  and  C_39
REMARK   13  A    between atoms: C_38  and  C_43
REMARK   14  A    between atoms: C_39  and  C_40
REMARK   15  A    between atoms: C_40  and  C_41
REMARK   16  A    between atoms: C_40  and  C_42
REMARK   17  A    between atoms: N_45  and  C_46
REMARK   18  A    between atoms: N_45  and  C_47
REMARK   19  A    between atoms: C_47  and  C_48
REMARK   20  A    between atoms: C_54  and  C_55
REMARK   21  A    between atoms: C_55  and  C_56
REMARK   22  A    between atoms: C_62  and  C_63
REMARK   23  A    between atoms: C_63  and  C_64
REMARK   24  A    between atoms: C_64  and  C_65
REMARK                            x       y       z     vdW  Elec       q    Type
REMARK                         _______ _______ _______ _____ _____    ______ ____
ROOT
ATOM      1  C   UNL     1      -7.220   1.411 126.083  0.00  0.00    +0.000 C 
ATOM      2  N   UNL     1      -8.237   2.400 127.356  0.00  0.00    +0.000 N 
ATOM      3  C   UNL     1      -8.494   3.187 128.639  0.00  0.00    +0.000 C 
ATOM      4  O   UNL     1      -9.476   2.760 129.300  0.00  0.00    +0.000 OA
ATOM      5  C   UNL     1      -7.794   4.678 129.298  0.00  0.00    +0.000 C 
ATOM      6  N   UNL     1      -8.798   5.653 129.869  0.00  0.00    +0.000 N 
ATOM      7  C   UNL     1      -9.184   5.959 131.151  0.00  0.00    +0.000 C 
ATOM      8  O   UNL     1      -9.804   7.024 131.301  0.00  0.00    +0.000 OA
ATOM      9  C   UNL     1      -8.896   5.123 132.417  0.00  0.00    +0.000 C 
ATOM     10  C   UNL     1      -8.090   3.848 132.342  0.00  0.00    +0.000 C 
ATOM     11  S   UNL     1      -7.387   3.190 133.955  0.00  0.00    +0.000 S 
ATOM     12  S   UNL     1      -5.731   1.983 133.416  0.00  0.00    +0.000 S 
ATOM     13  C   UNL     1      -5.896   0.112 133.992  0.00  0.00    +0.000 C 
ATOM     14  C   UNL     1      -5.176  -1.050 133.352  0.00  0.00    +0.000 C 
ATOM     15  N   UNL     1      -6.080  -1.878 132.480  0.00  0.00    +0.000 N 
ATOM     16  C   UNL     1      -6.763  -1.451 131.430  0.00  0.00    +0.000 C 
ATOM     17  O   UNL     1      -7.411  -2.221 130.669  0.00  0.00    +0.000 OA
ATOM     18  C   UNL     1      -6.446  -0.080 131.065  0.00  0.00    +0.000 C 
ATOM     19  N   UNL     1      -5.523  -0.576 130.058  0.00  0.00    +0.000 N 
ATOM     20  C   UNL     1      -5.700  -1.220 128.864  0.00  0.00    +0.000 C 
ATOM     21  O   UNL     1      -4.516  -1.281 128.440  0.00  0.00    +0.000 OA
ATOM     22  C   UNL     1      -7.410  -1.210 127.981  0.00  0.00    +0.000 C 
ATOM     23  N   UNL     1      -8.509  -0.308 126.953  0.00  0.00    +0.000 N 
ATOM     24  C   UNL     1      -8.358   0.554 125.842  0.00  0.00    +0.000 C 
ATOM     25  O   UNL     1      -9.241   1.019 125.062  0.00  0.00    +0.000 OA
ATOM     26  H   UNL     1      -9.102   1.851 127.486  0.00  0.00    +0.000 HD
ATOM     27  H   UNL     1      -9.032   6.425 129.248  0.00  0.00    +0.000 HD
ATOM     28  H   UNL     1      -6.109  -2.896 132.579  0.00  0.00    +0.000 HD
ATOM     29  H   UNL     1      -4.732   0.023 129.942  0.00  0.00    +0.000 HD
ATOM     30  H   UNL     1      -9.220   0.112 127.531  0.00  0.00    +0.000 HD
ENDROOT
BRANCH  14  31
ATOM     31  C   UNL     1      -4.785  -2.037 134.417  0.00  0.00    +0.000 C 
ATOM     32  O   UNL     1      -4.951  -1.602 135.561  0.00  0.00    +0.000 OA
ATOM     33  N   UNL     1      -4.500  -3.350 134.079  0.00  0.00    +0.000 N 
ATOM     34  C   UNL     1      -3.788  -3.944 132.959  0.00  0.00    +0.000 C 
ATOM     35  C   UNL     1      -4.636  -5.132 132.638  0.00  0.00    +0.000 C 
ATOM     36  C   UNL     1      -4.895  -5.690 133.996  0.00  0.00    +0.000 C 
ATOM     37  C   UNL     1      -4.838  -4.486 134.944  0.00  0.00    +0.000 C 
BRANCH  37  38
ATOM     38  C   UNL     1      -3.721  -4.961 135.931  0.00  0.00    +0.000 C 
ATOM     39  O   UNL     1      -2.796  -5.684 135.557  0.00  0.00    +0.000 OA
ATOM     40  N   UNL     1      -3.793  -4.379 137.211  0.00  0.00    +0.000 N 
ATOM     41  C   UNL     1      -5.055  -3.903 137.758  0.00  0.00    +0.000 C 
BRANCH  40  42
ATOM     42  C   UNL     1      -2.560  -4.246 138.047  0.00  0.00    +0.000 C 
BRANCH  42  43
ATOM     43  C   UNL     1      -2.848  -4.214 139.605  0.00  0.00    +0.000 C 
ATOM     44  O   UNL     1      -3.018  -3.184 140.261  0.00  0.00    +0.000 OA
ATOM     45  N   UNL     1      -2.887  -5.420 140.268  0.00  0.00    +0.000 N 
ATOM     46  C   UNL     1      -2.745  -6.662 139.579  0.00  0.00    +0.000 C 
BRANCH  45  47
ATOM     47  C   UNL     1      -3.109  -5.419 141.729  0.00  0.00    +0.000 C 
BRANCH  47  48
ATOM     48  C   UNL     1      -1.942  -5.631 142.737  0.00  0.00    +0.000 C 
ATOM     49  N   UNL     1      -0.637  -5.425 142.385  0.00  0.00    +0.000 N 
ATOM     50  O   UNL     1      -2.158  -5.992 143.895  0.00  0.00    +0.000 OA
ATOM     51  H   UNL     1      -0.260  -5.123 141.511  0.00  0.00    +0.000 HD
ATOM     52  H   UNL     1       0.087  -5.585 143.066  0.00  0.00    +0.000 HD
ENDBRANCH  47  48
ENDBRANCH  45  47
ENDBRANCH  42  43
BRANCH  42  53
ATOM     53  C   UNL     1      -1.668  -2.972 137.688  0.00  0.00    +0.000 C 
BRANCH  53  54
ATOM     54  C   UNL     1      -0.163  -3.171 137.762  0.00  0.00    +0.000 C 
ATOM     55  C   UNL     1       0.298  -3.628 136.436  0.00  0.00    +0.000 C 
ATOM     56  C   UNL     1       0.677  -1.923 137.915  0.00  0.00    +0.000 C 
ENDBRANCH  53  54
ENDBRANCH  42  53
ENDBRANCH  40  42
ENDBRANCH  37  38
ENDBRANCH  14  31
BRANCH   1  57
ATOM     57  C   UNL     1      -6.119  -0.100 125.950  0.00  0.00    +0.000 C 
ATOM     58  C   UNL     1      -5.385  -1.463 125.089  0.00  0.00    +0.000 C 
BRANCH  57  60
ATOM     59  C   UNL     1      -4.152   1.544 126.768  0.00  0.00    +0.000 C 
ATOM     60  C   UNL     1      -5.235   0.974 125.596  0.00  0.00    +0.000 C 
ENDBRANCH  57  60
ENDBRANCH   1  57
BRANCH  18  61
ATOM     61  C   UNL     1      -7.757   0.817 130.928  0.00  0.00    +0.000 C 
BRANCH  61  62
ATOM     62  C   UNL     1      -8.937   0.585 131.828  0.00  0.00    +0.000 C 
ATOM     63  N   UNL     1      -9.945   1.330 131.543  0.00  0.00    +0.000 N 
ATOM     64  O   UNL     1      -9.120  -0.422 132.624  0.00  0.00    +0.000 OA
ATOM     65  H   UNL     1      -9.738   1.443 130.571  0.00  0.00    +0.000 HD
ATOM     66  H   UNL     1     -10.855   0.853 131.503  0.00  0.00    +0.000 HD
ENDBRANCH  61  62
ENDBRANCH  18  61
BRANCH   5  67
ATOM     67  C   UNL     1      -6.450   4.994 130.174  0.00  0.00    +0.000 C 
BRANCH  67  68
ATOM     68  C   UNL     1      -5.146   4.935 129.483  0.00  0.00    +0.000 A 
ATOM     69  C   UNL     1      -5.296   4.812 128.173  0.00  0.00    +0.000 A 
ATOM     70  C   UNL     1      -4.187   4.873 127.359  0.00  0.00    +0.000 A 
ATOM     71  C   UNL     1      -2.893   4.773 127.737  0.00  0.00    +0.000 A 
ATOM     72  C   UNL     1      -2.712   4.963 129.057  0.00  0.00    +0.000 A 
ATOM     73  C   UNL     1      -3.832   5.129 129.918  0.00  0.00    +0.000 A 
BRANCH  71  74
ATOM     74  O   UNL     1      -1.847   4.367 126.969  0.00  0.00    +0.000 OA
ATOM     75  H   UNL     1      -1.542   3.428 126.985  0.00  0.00    +0.000 HD
ENDBRANCH  71  74
ENDBRANCH  67  68
ENDBRANCH   5  67
BRANCH  22  76
ATOM     76  C   UNL     1      -7.405  -2.481 127.356  0.00  0.00    +0.000 C 
BRANCH  76  77
ATOM     77  C   UNL     1      -8.711  -3.083 127.607  0.00  0.00    +0.000 C 
BRANCH  77  78
ATOM     78  C   UNL     1      -9.101  -3.261 126.202  0.00  0.00    +0.000 C 
ATOM     79  N   UNL     1      -8.309  -3.983 125.335  0.00  0.00    +0.000 N 
ATOM     80  O   UNL     1     -10.174  -2.709 125.790  0.00  0.00    +0.000 OA
ATOM     81  H   UNL     1      -7.386  -4.396 125.518  0.00  0.00    +0.000 HD
ATOM     82  H   UNL     1      -8.570  -4.104 124.381  0.00  0.00    +0.000 HD
ENDBRANCH  77  78
ENDBRANCH  76  77
ENDBRANCH  22  76
TORSDOF 18
ENDMDL
MODEL 6
REMARK VINA RESULT:      -7.8      6.432     12.769
REMARK  Name = CHEMBL3815099
REMARK  24 active torsions:
REMARK  status: ('A' for Active; 'I' for Inactive)
REMARK    1  A    between atoms: C_1  and  C_2
REMARK    2  A    between atoms: C_2  and  C_3
REMARK    3  A    between atoms: C_3  and  C_4
REMARK    4  A    between atoms: C_3  and  C_5
REMARK    5  A    between atoms: C_9  and  C_10
REMARK    6  A    between atoms: C_10  and  C_11
REMARK    7  A    between atoms: C_14  and  O_15
REMARK    8  A    between atoms: C_26  and  C_27
REMARK    9  A    between atoms: C_33  and  C_34
REMARK   10  A    between atoms: N_36  and  C_37
REMARK   11  A    between atoms: N_36  and  C_38
REMARK   12  A    between atoms: C_38  and  C_39
REMARK   13  A    between atoms: C_38  and  C_43
REMARK   14  A    between atoms: C_39  and  C_40
REMARK   15  A    between atoms: C_40  and  C_41
REMARK   16  A    between atoms: C_40  and  C_42
REMARK   17  A    between atoms: N_45  and  C_46
REMARK   18  A    between atoms: N_45  and  C_47
REMARK   19  A    between atoms: C_47  and  C_48
REMARK   20  A    between atoms: C_54  and  C_55
REMARK   21  A    between atoms: C_55  and  C_56
REMARK   22  A    between atoms: C_62  and  C_63
REMARK   23  A    between atoms: C_63  and  C_64
REMARK   24  A    between atoms: C_64  and  C_65
REMARK                            x       y       z     vdW  Elec       q    Type
REMARK                         _______ _______ _______ _____ _____    ______ ____
ROOT
ATOM      1  C   UNL     1       0.028   8.913 138.311  0.00  0.00    +0.000 C 
ATOM      2  N   UNL     1      -1.425   8.031 139.173  0.00  0.00    +0.000 N 
ATOM      3  C   UNL     1      -2.356   6.871 139.518  0.00  0.00    +0.000 C 
ATOM      4  O   UNL     1      -3.576   7.156 139.396  0.00  0.00    +0.000 OA
ATOM      5  C   UNL     1      -2.072   5.263 140.211  0.00  0.00    +0.000 C 
ATOM      6  N   UNL     1      -3.051   4.854 141.288  0.00  0.00    +0.000 N 
ATOM      7  C   UNL     1      -4.144   4.022 141.295  0.00  0.00    +0.000 C 
ATOM      8  O   UNL     1      -4.549   3.652 142.409  0.00  0.00    +0.000 OA
ATOM      9  C   UNL     1      -4.892   3.486 140.056  0.00  0.00    +0.000 C 
ATOM     10  C   UNL     1      -4.432   3.827 138.658  0.00  0.00    +0.000 C 
ATOM     11  S   UNL     1      -5.082   2.752 137.261  0.00  0.00    +0.000 S 
ATOM     12  S   UNL     1      -3.678   2.940 135.685  0.00  0.00    +0.000 S 
ATOM     13  C   UNL     1      -4.446   3.658 134.026  0.00  0.00    +0.000 C 
ATOM     14  C   UNL     1      -3.655   4.359 132.947  0.00  0.00    +0.000 C 
ATOM     15  N   UNL     1      -3.854   5.850 132.965  0.00  0.00    +0.000 N 
ATOM     16  C   UNL     1      -3.597   6.664 133.975  0.00  0.00    +0.000 C 
ATOM     17  O   UNL     1      -3.674   7.919 133.887  0.00  0.00    +0.000 OA
ATOM     18  C   UNL     1      -2.929   6.000 135.083  0.00  0.00    +0.000 C 
ATOM     19  N   UNL     1      -1.651   6.481 134.583  0.00  0.00    +0.000 N 
ATOM     20  C   UNL     1      -1.077   7.722 134.526  0.00  0.00    +0.000 C 
ATOM     21  O   UNL     1       0.064   7.443 134.073  0.00  0.00    +0.000 OA
ATOM     22  C   UNL     1      -1.742   9.167 135.607  0.00  0.00    +0.000 C 
ATOM     23  N   UNL     1      -1.738   9.917 137.194  0.00  0.00    +0.000 N 
ATOM     24  C   UNL     1      -0.766  10.114 138.203  0.00  0.00    +0.000 C 
ATOM     25  O   UNL     1      -0.829  10.827 139.248  0.00  0.00    +0.000 OA
ATOM     26  H   UNL     1      -2.223   8.679 139.072  0.00  0.00    +0.000 HD
ATOM     27  H   UNL     1      -2.701   4.966 142.237  0.00  0.00    +0.000 HD
ATOM     28  H   UNL     1      -4.085   6.355 132.105  0.00  0.00    +0.000 HD
ATOM     29  H   UNL     1      -0.910   5.833 134.754  0.00  0.00    +0.000 HD
ATOM     30  H   UNL     1      -2.584   9.658 137.676  0.00  0.00    +0.000 HD
ENDROOT
BRANCH  14  31
ATOM     31  C   UNL     1      -4.216   3.987 131.602  0.00  0.00    +0.000 C 
ATOM     32  O   UNL     1      -3.458   3.265 130.948  0.00  0.00    +0.000 OA
ATOM     33  N   UNL     1      -5.538   4.267 131.298  0.00  0.00    +0.000 N 
ATOM     34  C   UNL     1      -6.391   5.410 131.581  0.00  0.00    +0.000 C 
ATOM     35  C   UNL     1      -7.689   4.758 131.932  0.00  0.00    +0.000 C 
ATOM     36  C   UNL     1      -7.810   3.733 130.856  0.00  0.00    +0.000 C 
ATOM     37  C   UNL     1      -6.368   3.387 130.466  0.00  0.00    +0.000 C 
BRANCH  37  38
ATOM     38  C   UNL     1      -6.405   3.714 128.937  0.00  0.00    +0.000 C 
ATOM     39  O   UNL     1      -6.744   4.824 128.524  0.00  0.00    +0.000 OA
ATOM     40  N   UNL     1      -5.891   2.695 128.113  0.00  0.00    +0.000 N 
ATOM     41  C   UNL     1      -5.906   1.301 128.532  0.00  0.00    +0.000 C 
BRANCH  40  42
ATOM     42  C   UNL     1      -5.320   3.027 126.772  0.00  0.00    +0.000 C 
BRANCH  42  43
ATOM     43  C   UNL     1      -6.228   2.561 125.560  0.00  0.00    +0.000 C 
ATOM     44  O   UNL     1      -6.455   1.384 125.271  0.00  0.00    +0.000 OA
ATOM     45  N   UNL     1      -6.781   3.543 124.767  0.00  0.00    +0.000 N 
ATOM     46  C   UNL     1      -6.607   4.930 125.056  0.00  0.00    +0.000 C 
BRANCH  45  47
ATOM     47  C   UNL     1      -7.596   3.138 123.603  0.00  0.00    +0.000 C 
BRANCH  47  48
ATOM     48  C   UNL     1      -7.110   3.366 122.141  0.00  0.00    +0.000 C 
ATOM     49  N   UNL     1      -7.956   3.798 121.159  0.00  0.00    +0.000 N 
ATOM     50  O   UNL     1      -5.938   3.166 121.821  0.00  0.00    +0.000 OA
ATOM     51  H   UNL     1      -8.927   4.025 121.217  0.00  0.00    +0.000 HD
ATOM     52  H   UNL     1      -7.603   3.921 120.224  0.00  0.00    +0.000 HD
ENDBRANCH  47  48
ENDBRANCH  45  47
ENDBRANCH  42  43
BRANCH  42  53
ATOM     53  C   UNL     1      -3.851   2.452 126.531  0.00  0.00    +0.000 C 
BRANCH  53  54
ATOM     54  C   UNL     1      -2.743   3.095 127.348  0.00  0.00    +0.000 C 
ATOM     55  C   UNL     1      -1.498   3.020 126.559  0.00  0.00    +0.000 C 
ATOM     56  C   UNL     1      -2.835   4.590 127.552  0.00  0.00    +0.000 C 
ENDBRANCH  53  54
ENDBRANCH  42  53
ENDBRANCH  40  42
ENDBRANCH  37  38
ENDBRANCH  14  31
BRANCH   1  57
ATOM     57  C   UNL     1       0.712   9.273 136.603  0.00  0.00    +0.000 C 
ATOM     58  C   UNL     1       1.625  10.228 135.423  0.00  0.00    +0.000 C 
BRANCH  57  60
ATOM     59  C   UNL     1       2.103   6.971 136.541  0.00  0.00    +0.000 C 
ATOM     60  C   UNL     1       1.752   8.489 137.207  0.00  0.00    +0.000 C 
ENDBRANCH  57  60
ENDBRANCH   1  57
BRANCH  18  61
ATOM     61  C   UNL     1      -3.672   6.261 136.469  0.00  0.00    +0.000 C 
BRANCH  61  62
ATOM     62  C   UNL     1      -5.101   6.725 136.492  0.00  0.00    +0.000 C 
ATOM     63  N   UNL     1      -5.228   7.959 136.829  0.00  0.00    +0.000 N 
ATOM     64  O   UNL     1      -6.121   6.122 135.965  0.00  0.00    +0.000 OA
ATOM     65  H   UNL     1      -4.332   8.263 136.504  0.00  0.00    +0.000 HD
ATOM     66  H   UNL     1      -5.859   8.520 136.243  0.00  0.00    +0.000 HD
ENDBRANCH  61  62
ENDBRANCH  18  61
BRANCH   5  67
ATOM     67  C   UNL     1      -1.625   3.828 139.569  0.00  0.00    +0.000 C 
BRANCH  67  68
ATOM     68  C   UNL     1      -0.186   3.597 139.329  0.00  0.00    +0.000 A 
ATOM     69  C   UNL     1       0.093   2.305 139.262  0.00  0.00    +0.000 A 
ATOM     70  C   UNL     1       1.365   1.908 138.913  0.00  0.00    +0.000 A 
ATOM     71  C   UNL     1       2.478   2.674 138.885  0.00  0.00    +0.000 A 
ATOM     72  C   UNL     1       2.212   3.993 138.884  0.00  0.00    +0.000 A 
ATOM     73  C   UNL     1       0.873   4.454 139.021  0.00  0.00    +0.000 A 
BRANCH  71  74
ATOM     74  O   UNL     1       3.765   2.250 139.008  0.00  0.00    +0.000 OA
ATOM     75  H   UNL     1       4.377   2.261 138.233  0.00  0.00    +0.000 HD
ENDBRANCH  71  74
ENDBRANCH  67  68
ENDBRANCH   5  67
BRANCH  22  76
ATOM     76  C   UNL     1      -1.502  10.278 134.762  0.00  0.00    +0.000 C 
BRANCH  76  77
ATOM     77  C   UNL     1      -2.742  11.046 134.705  0.00  0.00    +0.000 C 
BRANCH  77  78
ATOM     78  C   UNL     1      -2.542  11.614 133.365  0.00  0.00    +0.000 C 
ATOM     79  N   UNL     1      -2.728  12.960 133.133  0.00  0.00    +0.000 N 
ATOM     80  O   UNL     1      -2.220  10.832 132.410  0.00  0.00    +0.000 OA
ATOM     81  H   UNL     1      -3.071  13.672 133.790  0.00  0.00    +0.000 HD
ATOM     82  H   UNL     1      -2.595  13.347 132.225  0.00  0.00    +0.000 HD
ENDBRANCH  77  78
ENDBRANCH  76  77
ENDBRANCH  22  76
TORSDOF 18
ENDMDL
MODEL 7
REMARK VINA RESULT:      -7.8      5.263      8.448
REMARK  Name = CHEMBL3815099
REMARK  24 active torsions:
REMARK  status: ('A' for Active; 'I' for Inactive)
REMARK    1  A    between atoms: C_1  and  C_2
REMARK    2  A    between atoms: C_2  and  C_3
REMARK    3  A    between atoms: C_3  and  C_4
REMARK    4  A    between atoms: C_3  and  C_5
REMARK    5  A    between atoms: C_9  and  C_10
REMARK    6  A    between atoms: C_10  and  C_11
REMARK    7  A    between atoms: C_14  and  O_15
REMARK    8  A    between atoms: C_26  and  C_27
REMARK    9  A    between atoms: C_33  and  C_34
REMARK   10  A    between atoms: N_36  and  C_37
REMARK   11  A    between atoms: N_36  and  C_38
REMARK   12  A    between atoms: C_38  and  C_39
REMARK   13  A    between atoms: C_38  and  C_43
REMARK   14  A    between atoms: C_39  and  C_40
REMARK   15  A    between atoms: C_40  and  C_41
REMARK   16  A    between atoms: C_40  and  C_42
REMARK   17  A    between atoms: N_45  and  C_46
REMARK   18  A    between atoms: N_45  and  C_47
REMARK   19  A    between atoms: C_47  and  C_48
REMARK   20  A    between atoms: C_54  and  C_55
REMARK   21  A    between atoms: C_55  and  C_56
REMARK   22  A    between atoms: C_62  and  C_63
REMARK   23  A    between atoms: C_63  and  C_64
REMARK   24  A    between atoms: C_64  and  C_65
REMARK                            x       y       z     vdW  Elec       q    Type
REMARK                         _______ _______ _______ _____ _____    ______ ____
ROOT
ATOM      1  C   UNL     1      -6.245  -0.765 128.754  0.00  0.00    +0.000 C 
ATOM      2  N   UNL     1      -7.490   0.640 128.425  0.00  0.00    +0.000 N 
ATOM      3  C   UNL     1      -7.989   2.081 128.341  0.00  0.00    +0.000 C 
ATOM      4  O   UNL     1      -9.073   2.272 128.951  0.00  0.00    +0.000 OA
ATOM      5  C   UNL     1      -7.437   3.495 127.423  0.00  0.00    +0.000 C 
ATOM      6  N   UNL     1      -8.540   4.295 126.767  0.00  0.00    +0.000 N 
ATOM      7  C   UNL     1      -9.161   5.477 127.089  0.00  0.00    +0.000 C 
ATOM      8  O   UNL     1      -9.807   6.026 126.183  0.00  0.00    +0.000 OA
ATOM      9  C   UNL     1      -9.105   6.195 128.455  0.00  0.00    +0.000 C 
ATOM     10  C   UNL     1      -8.289   5.637 129.597  0.00  0.00    +0.000 C 
ATOM     11  S   UNL     1      -7.893   6.808 131.012  0.00  0.00    +0.000 S 
ATOM     12  S   UNL     1      -6.155   6.029 131.940  0.00  0.00    +0.000 S 
ATOM     13  C   UNL     1      -6.407   5.573 133.833  0.00  0.00    +0.000 C 
ATOM     14  C   UNL     1      -5.570   4.574 134.595  0.00  0.00    +0.000 C 
ATOM     15  N   UNL     1      -6.288   3.271 134.816  0.00  0.00    +0.000 N 
ATOM     16  C   UNL     1      -6.767   2.470 133.878  0.00  0.00    +0.000 C 
ATOM     17  O   UNL     1      -7.254   1.334 134.124  0.00  0.00    +0.000 OA
ATOM     18  C   UNL     1      -6.400   2.886 132.534  0.00  0.00    +0.000 C 
ATOM     19  N   UNL     1      -5.300   1.936 132.555  0.00  0.00    +0.000 N 
ATOM     20  C   UNL     1      -5.246   0.569 132.520  0.00  0.00    +0.000 C 
ATOM     21  O   UNL     1      -4.003   0.374 132.468  0.00  0.00    +0.000 OA
ATOM     22  C   UNL     1      -6.761  -0.465 131.940  0.00  0.00    +0.000 C 
ATOM     23  N   UNL     1      -7.658  -1.083 130.564  0.00  0.00    +0.000 N 
ATOM     24  C   UNL     1      -7.310  -1.582 129.288  0.00  0.00    +0.000 C 
ATOM     25  O   UNL     1      -8.036  -2.166 128.429  0.00  0.00    +0.000 OA
ATOM     26  H   UNL     1      -8.359   0.337 128.894  0.00  0.00    +0.000 HD
ATOM     27  H   UNL     1      -8.660   4.106 125.774  0.00  0.00    +0.000 HD
ATOM     28  H   UNL     1      -6.326   2.849 135.747  0.00  0.00    +0.000 HD
ATOM     29  H   UNL     1      -4.507   2.264 132.043  0.00  0.00    +0.000 HD
ATOM     30  H   UNL     1      -8.467  -0.500 130.419  0.00  0.00    +0.000 HD
ENDROOT
BRANCH  14  31
ATOM     31  C   UNL     1      -5.375   5.063 136.003  0.00  0.00    +0.000 C 
ATOM     32  O   UNL     1      -6.070   4.457 136.824  0.00  0.00    +0.000 OA
ATOM     33  N   UNL     1      -4.342   5.938 136.299  0.00  0.00    +0.000 N 
ATOM     34  C   UNL     1      -3.791   7.082 135.592  0.00  0.00    +0.000 C 
ATOM     35  C   UNL     1      -2.322   6.908 135.803  0.00  0.00    +0.000 C 
ATOM     36  C   UNL     1      -2.265   6.579 137.256  0.00  0.00    +0.000 C 
ATOM     37  C   UNL     1      -3.604   5.899 137.567  0.00  0.00    +0.000 C 
BRANCH  37  38
ATOM     38  C   UNL     1      -4.133   6.833 138.705  0.00  0.00    +0.000 C 
ATOM     39  O   UNL     1      -3.825   8.024 138.756  0.00  0.00    +0.000 OA
ATOM     40  N   UNL     1      -5.083   6.232 139.553  0.00  0.00    +0.000 N 
ATOM     41  C   UNL     1      -5.114   4.791 139.758  0.00  0.00    +0.000 C 
BRANCH  40  42
ATOM     42  C   UNL     1      -6.086   7.074 140.276  0.00  0.00    +0.000 C 
BRANCH  42  43
ATOM     43  C   UNL     1      -6.709   8.227 139.385  0.00  0.00    +0.000 C 
ATOM     44  O   UNL     1      -6.357   9.408 139.428  0.00  0.00    +0.000 OA
ATOM     45  N   UNL     1      -7.727   7.884 138.524  0.00  0.00    +0.000 N 
ATOM     46  C   UNL     1      -8.166   6.533 138.378  0.00  0.00    +0.000 C 
BRANCH  45  47
ATOM     47  C   UNL     1      -8.358   8.946 137.713  0.00  0.00    +0.000 C 
BRANCH  47  48
ATOM     48  C   UNL     1      -9.824   9.407 137.961  0.00  0.00    +0.000 C 
ATOM     49  N   UNL     1     -10.879   8.846 137.299  0.00  0.00    +0.000 N 
ATOM     50  O   UNL     1     -10.083  10.298 138.772  0.00  0.00    +0.000 OA
ATOM     51  H   UNL     1     -10.881   8.112 136.621  0.00  0.00    +0.000 HD
ATOM     52  H   UNL     1     -11.811   9.183 137.482  0.00  0.00    +0.000 HD
ENDBRANCH  47  48
ENDBRANCH  45  47
ENDBRANCH  42  43
BRANCH  42  53
ATOM     53  C   UNL     1      -5.530   7.737 141.617  0.00  0.00    +0.000 C 
BRANCH  53  54
ATOM     54  C   UNL     1      -6.574   8.116 142.654  0.00  0.00    +0.000 C 
ATOM     55  C   UNL     1      -6.279   7.364 143.889  0.00  0.00    +0.000 C 
ATOM     56  C   UNL     1      -6.514   9.530 143.188  0.00  0.00    +0.000 C 
ENDBRANCH  53  54
ENDBRANCH  42  53
ENDBRANCH  40  42
ENDBRANCH  37  38
ENDBRANCH  14  31
BRANCH   1  57
ATOM     57  C   UNL     1      -5.124  -1.439 130.097  0.00  0.00    +0.000 C 
ATOM     58  C   UNL     1      -4.079  -2.667 130.829  0.00  0.00    +0.000 C 
BRANCH  57  60
ATOM     59  C   UNL     1      -4.042   0.915 129.369  0.00  0.00    +0.000 C 
ATOM     60  C   UNL     1      -4.208  -0.765 129.221  0.00  0.00    +0.000 C 
ENDBRANCH  57  60
ENDBRANCH   1  57
BRANCH  18  61
ATOM     61  C   UNL     1      -7.670   2.993 131.576  0.00  0.00    +0.000 C 
BRANCH  61  62
ATOM     62  C   UNL     1      -9.042   3.199 132.151  0.00  0.00    +0.000 C 
ATOM     63  N   UNL     1      -9.760   2.132 132.145  0.00  0.00    +0.000 N 
ATOM     64  O   UNL     1      -9.443   4.207 132.862  0.00  0.00    +0.000 OA
ATOM     65  H   UNL     1      -9.003   1.480 132.194  0.00  0.00    +0.000 HD
ATOM     66  H   UNL     1     -10.262   1.927 133.019  0.00  0.00    +0.000 HD
ENDBRANCH  61  62
ENDBRANCH  18  61
BRANCH   5  67
ATOM     67  C   UNL     1      -6.284   4.623 127.685  0.00  0.00    +0.000 C 
BRANCH  67  68
ATOM     68  C   UNL     1      -4.874   4.226 127.494  0.00  0.00    +0.000 A 
ATOM     69  C   UNL     1      -4.763   3.232 126.627  0.00  0.00    +0.000 A 
ATOM     70  C   UNL     1      -3.510   2.821 126.230  0.00  0.00    +0.000 A 
ATOM     71  C   UNL     1      -2.331   3.120 126.818  0.00  0.00    +0.000 A 
ATOM     72  C   UNL     1      -2.408   4.172 127.654  0.00  0.00    +0.000 A 
ATOM     73  C   UNL     1      -3.666   4.779 127.927  0.00  0.00    +0.000 A 
BRANCH  71  74
ATOM     74  O   UNL     1      -1.182   2.395 126.759  0.00  0.00    +0.000 OA
ATOM     75  H   UNL     1      -0.329   2.819 126.497  0.00  0.00    +0.000 HD
ENDBRANCH  71  74
ENDBRANCH  67  68
ENDBRANCH   5  67
BRANCH  22  76
ATOM     76  C   UNL     1      -6.629  -1.624 132.743  0.00  0.00    +0.000 C 
BRANCH  76  77
ATOM     77  C   UNL     1      -7.978  -2.067 133.077  0.00  0.00    +0.000 C 
BRANCH  77  78
ATOM     78  C   UNL     1      -7.633  -2.792 134.307  0.00  0.00    +0.000 C 
ATOM     79  N   UNL     1      -8.518  -3.684 134.874  0.00  0.00    +0.000 N 
ATOM     80  O   UNL     1      -6.507  -2.559 134.859  0.00  0.00    +0.000 OA
ATOM     81  H   UNL     1      -9.481  -3.890 134.581  0.00  0.00    +0.000 HD
ATOM     82  H   UNL     1      -8.287  -4.175 135.709  0.00  0.00    +0.000 HD
ENDBRANCH  77  78
ENDBRANCH  76  77
ENDBRANCH  22  76
TORSDOF 18
ENDMDL
MODEL 8
REMARK VINA RESULT:      -7.7      2.364      4.341
REMARK  Name = CHEMBL3815099
REMARK  24 active torsions:
REMARK  status: ('A' for Active; 'I' for Inactive)
REMARK    1  A    between atoms: C_1  and  C_2
REMARK    2  A    between atoms: C_2  and  C_3
REMARK    3  A    between atoms: C_3  and  C_4
REMARK    4  A    between atoms: C_3  and  C_5
REMARK    5  A    between atoms: C_9  and  C_10
REMARK    6  A    between atoms: C_10  and  C_11
REMARK    7  A    between atoms: C_14  and  O_15
REMARK    8  A    between atoms: C_26  and  C_27
REMARK    9  A    between atoms: C_33  and  C_34
REMARK   10  A    between atoms: N_36  and  C_37
REMARK   11  A    between atoms: N_36  and  C_38
REMARK   12  A    between atoms: C_38  and  C_39
REMARK   13  A    between atoms: C_38  and  C_43
REMARK   14  A    between atoms: C_39  and  C_40
REMARK   15  A    between atoms: C_40  and  C_41
REMARK   16  A    between atoms: C_40  and  C_42
REMARK   17  A    between atoms: N_45  and  C_46
REMARK   18  A    between atoms: N_45  and  C_47
REMARK   19  A    between atoms: C_47  and  C_48
REMARK   20  A    between atoms: C_54  and  C_55
REMARK   21  A    between atoms: C_55  and  C_56
REMARK   22  A    between atoms: C_62  and  C_63
REMARK   23  A    between atoms: C_63  and  C_64
REMARK   24  A    between atoms: C_64  and  C_65
REMARK                            x       y       z     vdW  Elec       q    Type
REMARK                         _______ _______ _______ _____ _____    ______ ____
ROOT
ATOM      1  C   UNL     1      -5.966   4.738 126.644  0.00  0.00    +0.000 C 
ATOM      2  N   UNL     1      -7.593   4.860 127.630  0.00  0.00    +0.000 N 
ATOM      3  C   UNL     1      -8.476   5.026 128.864  0.00  0.00    +0.000 C 
ATOM      4  O   UNL     1      -9.341   4.120 128.986  0.00  0.00    +0.000 OA
ATOM      5  C   UNL     1      -8.635   6.320 130.067  0.00  0.00    +0.000 C 
ATOM      6  N   UNL     1     -10.059   6.683 130.424  0.00  0.00    +0.000 N 
ATOM      7  C   UNL     1     -10.861   6.384 131.497  0.00  0.00    +0.000 C 
ATOM      8  O   UNL     1     -11.871   7.091 131.645  0.00  0.00    +0.000 OA
ATOM      9  C   UNL     1     -10.611   5.280 132.547  0.00  0.00    +0.000 C 
ATOM     10  C   UNL     1      -9.374   4.415 132.489  0.00  0.00    +0.000 C 
ATOM     11  S   UNL     1      -8.924   3.467 134.047  0.00  0.00    +0.000 S 
ATOM     12  S   UNL     1      -6.845   3.081 133.910  0.00  0.00    +0.000 S 
ATOM     13  C   UNL     1      -6.394   1.170 133.929  0.00  0.00    +0.000 C 
ATOM     14  C   UNL     1      -5.126   0.581 133.359  0.00  0.00    +0.000 C 
ATOM     15  N   UNL     1      -5.354  -0.111 132.043  0.00  0.00    +0.000 N 
ATOM     16  C   UNL     1      -5.844   0.437 130.943  0.00  0.00    +0.000 C 
ATOM     17  O   UNL     1      -5.901  -0.167 129.838  0.00  0.00    +0.000 OA
ATOM     18  C   UNL     1      -6.019   1.876 131.054  0.00  0.00    +0.000 C 
ATOM     19  N   UNL     1      -4.742   2.068 130.387  0.00  0.00    +0.000 N 
ATOM     20  C   UNL     1      -4.321   1.870 129.100  0.00  0.00    +0.000 C 
ATOM     21  O   UNL     1      -3.146   2.318 129.155  0.00  0.00    +0.000 OA
ATOM     22  C   UNL     1      -5.588   1.684 127.664  0.00  0.00    +0.000 C 
ATOM     23  N   UNL     1      -6.640   2.522 126.536  0.00  0.00    +0.000 N 
ATOM     24  C   UNL     1      -6.556   3.725 125.799  0.00  0.00    +0.000 C 
ATOM     25  O   UNL     1      -7.309   4.153 124.874  0.00  0.00    +0.000 OA
ATOM     26  H   UNL     1      -8.166   4.070 127.291  0.00  0.00    +0.000 HD
ATOM     27  H   UNL     1     -10.407   7.519 129.959  0.00  0.00    +0.000 HD
ATOM     28  H   UNL     1      -4.999  -1.057 131.884  0.00  0.00    +0.000 HD
ATOM     29  H   UNL     1      -4.258   2.876 130.721  0.00  0.00    +0.000 HD
ATOM     30  H   UNL     1      -7.585   2.478 126.883  0.00  0.00    +0.000 HD
ENDROOT
BRANCH  14  31
ATOM     31  C   UNL     1      -4.672  -0.555 134.232  0.00  0.00    +0.000 C 
ATOM     32  O   UNL     1      -4.410  -1.579 133.593  0.00  0.00    +0.000 OA
ATOM     33  N   UNL     1      -4.378  -0.332 135.568  0.00  0.00    +0.000 N 
ATOM     34  C   UNL     1      -5.008   0.489 136.588  0.00  0.00    +0.000 C 
ATOM     35  C   UNL     1      -3.831   1.069 137.301  0.00  0.00    +0.000 C 
ATOM     36  C   UNL     1      -2.956  -0.128 137.459  0.00  0.00    +0.000 C 
ATOM     37  C   UNL     1      -3.305  -1.039 136.276  0.00  0.00    +0.000 C 
BRANCH  37  38
ATOM     38  C   UNL     1      -3.720  -2.341 137.039  0.00  0.00    +0.000 C 
ATOM     39  O   UNL     1      -4.341  -2.294 138.102  0.00  0.00    +0.000 OA
ATOM     40  N   UNL     1      -3.451  -3.533 136.341  0.00  0.00    +0.000 N 
ATOM     41  C   UNL     1      -2.385  -3.610 135.353  0.00  0.00    +0.000 C 
BRANCH  40  42
ATOM     42  C   UNL     1      -4.260  -4.761 136.609  0.00  0.00    +0.000 C 
BRANCH  42  43
ATOM     43  C   UNL     1      -3.743  -5.608 137.844  0.00  0.00    +0.000 C 
ATOM     44  O   UNL     1      -2.611  -6.089 137.934  0.00  0.00    +0.000 OA
ATOM     45  N   UNL     1      -4.629  -5.838 138.872  0.00  0.00    +0.000 N 
ATOM     46  C   UNL     1      -5.944  -5.281 138.871  0.00  0.00    +0.000 C 
BRANCH  45  47
ATOM     47  C   UNL     1      -4.189  -6.662 140.017  0.00  0.00    +0.000 C 
BRANCH  47  48
ATOM     48  C   UNL     1      -3.377  -6.058 141.200  0.00  0.00    +0.000 C 
ATOM     49  N   UNL     1      -2.038  -5.803 141.101  0.00  0.00    +0.000 N 
ATOM     50  O   UNL     1      -3.920  -5.786 142.272  0.00  0.00    +0.000 OA
ATOM     51  H   UNL     1      -1.426  -5.939 140.324  0.00  0.00    +0.000 HD
ATOM     52  H   UNL     1      -1.550  -5.422 141.895  0.00  0.00    +0.000 HD
ENDBRANCH  47  48
ENDBRANCH  45  47
ENDBRANCH  42  43
BRANCH  42  53
ATOM     53  C   UNL     1      -4.381  -5.745 135.357  0.00  0.00    +0.000 C 
BRANCH  53  54
ATOM     54  C   UNL     1      -5.668  -5.647 134.556  0.00  0.00    +0.000 C 
ATOM     55  C   UNL     1      -6.576  -4.726 135.269  0.00  0.00    +0.000 C 
ATOM     56  C   UNL     1      -5.580  -4.944 133.220  0.00  0.00    +0.000 C 
ENDBRANCH  53  54
ENDBRANCH  42  53
ENDBRANCH  40  42
ENDBRANCH  37  38
ENDBRANCH  14  31
BRANCH   1  57
ATOM     57  C   UNL     1      -4.360   3.773 126.591  0.00  0.00    +0.000 C 
ATOM     58  C   UNL     1      -2.876   3.194 125.815  0.00  0.00    +0.000 C 
BRANCH  57  60
ATOM     59  C   UNL     1      -2.656   5.124 128.175  0.00  0.00    +0.000 C 
ATOM     60  C   UNL     1      -3.948   5.058 127.080  0.00  0.00    +0.000 C 
ENDBRANCH  57  60
ENDBRANCH   1  57
BRANCH  18  61
ATOM     61  C   UNL     1      -7.490   2.331 130.644  0.00  0.00    +0.000 C 
BRANCH  61  62
ATOM     62  C   UNL     1      -8.576   1.311 130.449  0.00  0.00    +0.000 C 
ATOM     63  N   UNL     1      -8.687   0.916 129.230  0.00  0.00    +0.000 N 
ATOM     64  O   UNL     1      -9.177   0.631 131.374  0.00  0.00    +0.000 OA
ATOM     65  H   UNL     1      -7.735   1.077 128.966  0.00  0.00    +0.000 HD
ATOM     66  H   UNL     1      -8.767  -0.100 129.096  0.00  0.00    +0.000 HD
ENDBRANCH  61  62
ENDBRANCH  18  61
BRANCH   5  67
ATOM     67  C   UNL     1      -7.818   6.689 131.433  0.00  0.00    +0.000 C 
BRANCH  67  68
ATOM     68  C   UNL     1      -6.348   6.806 131.348  0.00  0.00    +0.000 A 
ATOM     69  C   UNL     1      -5.745   5.931 132.138  0.00  0.00    +0.000 A 
ATOM     70  C   UNL     1      -4.374   5.811 132.088  0.00  0.00    +0.000 A 
ATOM     71  C   UNL     1      -3.501   6.672 131.519  0.00  0.00    +0.000 A 
ATOM     72  C   UNL     1      -4.087   7.526 130.660  0.00  0.00    +0.000 A 
ATOM     73  C   UNL     1      -5.501   7.537 130.511  0.00  0.00    +0.000 A 
BRANCH  71  74
ATOM     74  O   UNL     1      -2.190   6.838 131.840  0.00  0.00    +0.000 OA
ATOM     75  H   UNL     1      -1.925   7.395 132.612  0.00  0.00    +0.000 HD
ENDBRANCH  71  74
ENDBRANCH  67  68
ENDBRANCH   5  67
BRANCH  22  76
ATOM     76  C   UNL     1      -4.909   0.781 126.811  0.00  0.00    +0.000 C 
BRANCH  76  77
ATOM     77  C   UNL     1      -5.659  -0.470 126.831  0.00  0.00    +0.000 C 
BRANCH  77  78
ATOM     78  C   UNL     1      -5.758  -0.646 125.376  0.00  0.00    +0.000 C 
ATOM     79  N   UNL     1      -5.233  -1.763 124.762  0.00  0.00    +0.000 N 
ATOM     80  O   UNL     1      -6.315   0.270 124.685  0.00  0.00    +0.000 OA
ATOM     81  H   UNL     1      -4.687  -2.521 125.190  0.00  0.00    +0.000 HD
ATOM     82  H   UNL     1      -5.297  -1.884 123.775  0.00  0.00    +0.000 HD
ENDBRANCH  77  78
ENDBRANCH  76  77
ENDBRANCH  22  76
TORSDOF 18
ENDMDL
MODEL 9
REMARK VINA RESULT:      -7.6      2.343      3.852
REMARK  Name = CHEMBL3815099
REMARK  24 active torsions:
REMARK  status: ('A' for Active; 'I' for Inactive)
REMARK    1  A    between atoms: C_1  and  C_2
REMARK    2  A    between atoms: C_2  and  C_3
REMARK    3  A    between atoms: C_3  and  C_4
REMARK    4  A    between atoms: C_3  and  C_5
REMARK    5  A    between atoms: C_9  and  C_10
REMARK    6  A    between atoms: C_10  and  C_11
REMARK    7  A    between atoms: C_14  and  O_15
REMARK    8  A    between atoms: C_26  and  C_27
REMARK    9  A    between atoms: C_33  and  C_34
REMARK   10  A    between atoms: N_36  and  C_37
REMARK   11  A    between atoms: N_36  and  C_38
REMARK   12  A    between atoms: C_38  and  C_39
REMARK   13  A    between atoms: C_38  and  C_43
REMARK   14  A    between atoms: C_39  and  C_40
REMARK   15  A    between atoms: C_40  and  C_41
REMARK   16  A    between atoms: C_40  and  C_42
REMARK   17  A    between atoms: N_45  and  C_46
REMARK   18  A    between atoms: N_45  and  C_47
REMARK   19  A    between atoms: C_47  and  C_48
REMARK   20  A    between atoms: C_54  and  C_55
REMARK   21  A    between atoms: C_55  and  C_56
REMARK   22  A    between atoms: C_62  and  C_63
REMARK   23  A    between atoms: C_63  and  C_64
REMARK   24  A    between atoms: C_64  and  C_65
REMARK                            x       y       z     vdW  Elec       q    Type
REMARK                         _______ _______ _______ _____ _____    ______ ____
ROOT
ATOM      1  C   UNL     1      -6.157   4.426 126.666  0.00  0.00    +0.000 C 
ATOM      2  N   UNL     1      -7.755   4.608 127.690  0.00  0.00    +0.000 N 
ATOM      3  C   UNL     1      -8.603   4.890 128.928  0.00  0.00    +0.000 C 
ATOM      4  O   UNL     1      -9.427   3.975 129.188  0.00  0.00    +0.000 OA
ATOM      5  C   UNL     1      -8.776   6.313 129.972  0.00  0.00    +0.000 C 
ATOM      6  N   UNL     1     -10.200   6.665 130.336  0.00  0.00    +0.000 N 
ATOM      7  C   UNL     1     -10.955   6.469 131.466  0.00  0.00    +0.000 C 
ATOM      8  O   UNL     1     -11.988   7.151 131.565  0.00  0.00    +0.000 OA
ATOM      9  C   UNL     1     -10.627   5.509 132.630  0.00  0.00    +0.000 C 
ATOM     10  C   UNL     1      -9.359   4.689 132.630  0.00  0.00    +0.000 C 
ATOM     11  S   UNL     1      -8.821   3.953 134.273  0.00  0.00    +0.000 S 
ATOM     12  S   UNL     1      -6.733   3.629 134.106  0.00  0.00    +0.000 S 
ATOM     13  C   UNL     1      -6.205   1.751 134.337  0.00  0.00    +0.000 C 
ATOM     14  C   UNL     1      -4.934   1.144 133.794  0.00  0.00    +0.000 C 
ATOM     15  N   UNL     1      -5.177   0.290 132.580  0.00  0.00    +0.000 N 
ATOM     16  C   UNL     1      -5.723   0.683 131.441  0.00  0.00    +0.000 C 
ATOM     17  O   UNL     1      -5.791  -0.051 130.418  0.00  0.00    +0.000 OA
ATOM     18  C   UNL     1      -5.952   2.118 131.386  0.00  0.00    +0.000 C 
ATOM     19  N   UNL     1      -4.706   2.274 130.654  0.00  0.00    +0.000 N 
ATOM     20  C   UNL     1      -4.319   1.937 129.385  0.00  0.00    +0.000 C 
ATOM     21  O   UNL     1      -3.162   2.430 129.343  0.00  0.00    +0.000 OA
ATOM     22  C   UNL     1      -5.624   1.534 128.030  0.00  0.00    +0.000 C 
ATOM     23  N   UNL     1      -6.744   2.191 126.849  0.00  0.00    +0.000 N 
ATOM     24  C   UNL     1      -6.733   3.299 125.971  0.00  0.00    +0.000 C 
ATOM     25  O   UNL     1      -7.531   3.585 125.029  0.00  0.00    +0.000 OA
ATOM     26  H   UNL     1      -8.306   3.763 127.470  0.00  0.00    +0.000 HD
ATOM     27  H   UNL     1     -10.597   7.425 129.787  0.00  0.00    +0.000 HD
ATOM     28  H   UNL     1      -4.788  -0.655 132.522  0.00  0.00    +0.000 HD
ATOM     29  H   UNL     1      -4.244   3.134 130.871  0.00  0.00    +0.000 HD
ATOM     30  H   UNL     1      -7.675   2.155 127.233  0.00  0.00    +0.000 HD
ENDROOT
BRANCH  14  31
ATOM     31  C   UNL     1      -4.406   0.138 134.780  0.00  0.00    +0.000 C 
ATOM     32  O   UNL     1      -3.504   0.590 135.492  0.00  0.00    +0.000 OA
ATOM     33  N   UNL     1      -5.067  -1.065 134.968  0.00  0.00    +0.000 N 
ATOM     34  C   UNL     1      -5.719  -1.983 134.047  0.00  0.00    +0.000 C 
ATOM     35  C   UNL     1      -6.944  -2.377 134.806  0.00  0.00    +0.000 C 
ATOM     36  C   UNL     1      -6.384  -2.639 136.163  0.00  0.00    +0.000 C 
ATOM     37  C   UNL     1      -5.153  -1.731 136.273  0.00  0.00    +0.000 C 
BRANCH  37  38
ATOM     38  C   UNL     1      -4.048  -2.794 136.581  0.00  0.00    +0.000 C 
ATOM     39  O   UNL     1      -4.027  -3.886 136.009  0.00  0.00    +0.000 OA
ATOM     40  N   UNL     1      -3.030  -2.340 137.440  0.00  0.00    +0.000 N 
ATOM     41  C   UNL     1      -3.270  -1.278 138.407  0.00  0.00    +0.000 C 
BRANCH  40  42
ATOM     42  C   UNL     1      -1.666  -2.952 137.381  0.00  0.00    +0.000 C 
BRANCH  42  43
ATOM     43  C   UNL     1      -1.152  -3.498 138.776  0.00  0.00    +0.000 C 
ATOM     44  O   UNL     1      -0.637  -2.798 139.651  0.00  0.00    +0.000 OA
ATOM     45  N   UNL     1      -1.271  -4.849 139.012  0.00  0.00    +0.000 N 
ATOM     46  C   UNL     1      -1.896  -5.725 138.072  0.00  0.00    +0.000 C 
BRANCH  45  47
ATOM     47  C   UNL     1      -0.760  -5.395 140.286  0.00  0.00    +0.000 C 
BRANCH  47  48
ATOM     48  C   UNL     1      -1.675  -5.563 141.534  0.00  0.00    +0.000 C 
ATOM     49  N   UNL     1      -1.457  -4.865 142.689  0.00  0.00    +0.000 N 
ATOM     50  O   UNL     1      -2.635  -6.335 141.521  0.00  0.00    +0.000 OA
ATOM     51  H   UNL     1      -0.749  -4.191 142.895  0.00  0.00    +0.000 HD
ATOM     52  H   UNL     1      -2.067  -5.013 143.476  0.00  0.00    +0.000 HD
ENDBRANCH  47  48
ENDBRANCH  45  47
ENDBRANCH  42  43
BRANCH  42  53
ATOM     53  C   UNL     1      -0.545  -1.980 136.792  0.00  0.00    +0.000 C 
BRANCH  53  54
ATOM     54  C   UNL     1       0.240  -2.513 135.605  0.00  0.00    +0.000 C 
ATOM     55  C   UNL     1      -0.513  -3.649 135.038  0.00  0.00    +0.000 C 
ATOM     56  C   UNL     1       0.316  -1.617 134.389  0.00  0.00    +0.000 C 
ENDBRANCH  53  54
ENDBRANCH  42  53
ENDBRANCH  40  42
ENDBRANCH  37  38
ENDBRANCH  14  31
BRANCH   1  57
ATOM     57  C   UNL     1      -4.516   3.521 126.670  0.00  0.00    +0.000 C 
ATOM     58  C   UNL     1      -3.038   2.902 125.914  0.00  0.00    +0.000 C 
BRANCH  57  60
ATOM     59  C   UNL     1      -2.767   5.124 127.940  0.00  0.00    +0.000 C 
ATOM     60  C   UNL     1      -4.139   4.872 126.978  0.00  0.00    +0.000 C 
ENDBRANCH  57  60
ENDBRANCH   1  57
BRANCH  18  61
ATOM     61  C   UNL     1      -7.453   2.466 130.979  0.00  0.00    +0.000 C 
BRANCH  61  62
ATOM     62  C   UNL     1      -8.510   1.399 130.980  0.00  0.00    +0.000 C 
ATOM     63  N   UNL     1      -8.664   0.837 129.834  0.00  0.00    +0.000 N 
ATOM     64  O   UNL     1      -9.043   0.835 132.019  0.00  0.00    +0.000 OA
ATOM     65  H   UNL     1      -7.732   0.988 129.502  0.00  0.00    +0.000 HD
ATOM     66  H   UNL     1      -8.714  -0.189 129.842  0.00  0.00    +0.000 HD
ENDBRANCH  61  62
ENDBRANCH  18  61
BRANCH   5  67
ATOM     67  C   UNL     1      -7.930   6.873 131.254  0.00  0.00    +0.000 C 
BRANCH  67  68
ATOM     68  C   UNL     1      -6.459   6.939 131.135  0.00  0.00    +0.000 A 
ATOM     69  C   UNL     1      -5.874   5.960 131.807  0.00  0.00    +0.000 A 
ATOM     70  C   UNL     1      -4.511   5.791 131.701  0.00  0.00    +0.000 A 
ATOM     71  C   UNL     1      -3.618   6.672 131.200  0.00  0.00    +0.000 A 
ATOM     72  C   UNL     1      -4.188   7.638 130.456  0.00  0.00    +0.000 A 
ATOM     73  C   UNL     1      -5.605   7.722 130.354  0.00  0.00    +0.000 A 
BRANCH  71  74
ATOM     74  O   UNL     1      -2.292   6.749 131.495  0.00  0.00    +0.000 OA
ATOM     75  H   UNL     1      -1.895   7.593 131.818  0.00  0.00    +0.000 HD
ENDBRANCH  71  74
ENDBRANCH  67  68
ENDBRANCH   5  67
BRANCH  22  76
ATOM     76  C   UNL     1      -4.936   0.560 127.266  0.00  0.00    +0.000 C 
BRANCH  76  77
ATOM     77  C   UNL     1      -5.627  -0.709 127.472  0.00  0.00    +0.000 C 
BRANCH  77  78
ATOM     78  C   UNL     1      -6.079  -0.897 126.087  0.00  0.00    +0.000 C 
ATOM     79  N   UNL     1      -5.228  -1.403 125.129  0.00  0.00    +0.000 N 
ATOM     80  O   UNL     1      -7.269  -0.556 125.780  0.00  0.00    +0.000 OA
ATOM     81  H   UNL     1      -4.230  -1.629 125.227  0.00  0.00    +0.000 HD
ATOM     82  H   UNL     1      -5.531  -1.530 124.188  0.00  0.00    +0.000 HD
ENDBRANCH  77  78
ENDBRANCH  76  77
ENDBRANCH  22  76
TORSDOF 18
ENDMDL
