MODEL 1
REMARK VINA RESULT:      -9.7      0.000      0.000
REMARK  Name = CHEMBL213112
REMARK  14 active torsions:
REMARK  status: ('A' for Active; 'I' for Inactive)
REMARK    1  A    between atoms: CD1_1  and  CG_2
REMARK    2  A    between atoms: CG_2  and  CD2_3
REMARK    3  A    between atoms: CG_2  and  CB_4
REMARK    4  A    between atoms: CB_4  and  CA_5
REMARK    5  A    between atoms: C_9  and  C_10
REMARK    6  A    between atoms: N_21  and  C_22
REMARK    7  A    between atoms: C_22  and  C_23
REMARK    8  A    between atoms: C_22  and  C_30
REMARK    9  A    between atoms: N_25  and  C_26
REMARK   10  A    between atoms: C_26  and  C_27
REMARK   11  A    between atoms: C_26  and  C_28
REMARK   12  A    between atoms: C_26  and  C_29
REMARK   13  A    between atoms: C_33  and  N_34
REMARK   14  A    between atoms: C_37  and  O_38
REMARK                            x       y       z     vdW  Elec       q    Type
REMARK                         _______ _______ _______ _____ _____    ______ ____
ROOT
ATOM      1  C   UNK A   0      -6.788   3.685 130.852  0.00  0.00    +0.000 C 
ENDROOT
BRANCH   1   9
ATOM      2  CA  LEU A   2      -7.427   1.723 132.636  0.00  0.00    +0.000 C 
ATOM      3  C   LEU A   2      -6.537   0.440 132.725  0.00  0.00    +0.000 C 
ATOM      4  O   LEU A   2      -5.877   0.088 133.689  0.00  0.00    +0.000 OA
ATOM      5  N   UNK A   1      -6.606  -0.351 131.616  0.00  0.00    +0.000 N 
ATOM      6  C   UNK A   1      -7.604  -0.087 130.609  0.00  0.00    +0.000 C 
ATOM      7  C   UNK A   1      -7.488   1.362 130.167  0.00  0.00    +0.000 C 
ATOM      8  O   UNK A   1      -7.672   1.616 129.007  0.00  0.00    +0.000 OA
ATOM      9  N   LEU A   2      -7.255   2.277 131.215  0.00  0.00    +0.000 N 
ATOM     10  H   UNK A   1      -6.110  -1.233 131.680  0.00  0.00    +0.000 HD
BRANCH   6  11
ATOM     11  C   UNK A   1      -7.514  -0.968 129.354  0.00  0.00    +0.000 C 
ATOM     12  C   UNK A   1      -7.888  -2.397 129.744  0.00  0.00    +0.000 C 
ATOM     13  C   UNK A   1      -6.539  -3.035 129.859  0.00  0.00    +0.000 A 
ATOM     14  C   UNK A   1      -6.221  -4.204 130.520  0.00  0.00    +0.000 A 
ATOM     15  C   UNK A   1      -4.896  -4.642 130.488  0.00  0.00    +0.000 A 
ATOM     16  C   UNK A   1      -3.916  -3.917 129.792  0.00  0.00    +0.000 A 
ATOM     17  C   UNK A   1      -4.241  -2.725 129.145  0.00  0.00    +0.000 A 
ATOM     18  C   UNK A   1      -5.552  -2.284 129.213  0.00  0.00    +0.000 A 
ATOM     19  C   UNK A   1      -6.138  -1.042 128.630  0.00  0.00    +0.000 C 
ENDBRANCH   6  11
BRANCH   2  20
ATOM     20  CB  LEU A   2      -6.945   2.592 133.777  0.00  0.00    +0.000 C 
BRANCH  20  22
ATOM     21  CD1 LEU A   2      -7.354   5.112 134.310  0.00  0.00    +0.000 C 
ATOM     22  CG  LEU A   2      -7.893   3.670 134.362  0.00  0.00    +0.000 C 
ATOM     23  CD2 LEU A   2      -9.312   3.736 133.821  0.00  0.00    +0.000 C 
ENDBRANCH  20  22
ENDBRANCH   2  20
ENDBRANCH   1   9
BRANCH   1  24
ATOM     24  C   UNK A   0      -7.896   4.739 130.590  0.00  0.00    +0.000 A 
ATOM     25  C   UNK A   0      -7.660   6.105 130.739  0.00  0.00    +0.000 A 
ATOM     26  C   UNK A   0      -8.642   7.055 130.591  0.00  0.00    +0.000 A 
ATOM     27  C   UNK A   0      -9.874   6.700 130.093  0.00  0.00    +0.000 A 
ATOM     28  C   UNK A   0     -10.157   5.343 129.925  0.00  0.00    +0.000 A 
ATOM     29  C   UNK A   0      -9.209   4.366 130.241  0.00  0.00    +0.000 A 
BRANCH  27  30
ATOM     30  N   UNK A   0     -10.777   7.671 129.756  0.00  0.00    +0.000 N 
ATOM     31  C   UNK A   0     -10.495   8.527 128.630  0.00  0.00    +0.000 C 
ATOM     32  C   UNK A   0     -11.581   8.320 127.580  0.00  0.00    +0.000 C 
ATOM     33  C   UNK A   0     -12.979   8.478 128.182  0.00  0.00    +0.000 C 
ATOM     34  C   UNK A   0     -13.192   7.595 129.414  0.00  0.00    +0.000 C 
ATOM     35  C   UNK A   0     -12.066   7.764 130.426  0.00  0.00    +0.000 C 
BRANCH  33  36
ATOM     36  O   UNK A   0     -13.220   9.848 128.507  0.00  0.00    +0.000 OA
ATOM     37  H   UNK A   0     -12.853  10.402 127.797  0.00  0.00    +0.000 HD
ENDBRANCH  33  36
ENDBRANCH  27  30
ENDBRANCH   1  24
BRANCH   1  38
ATOM     38  C   UNK A   0      -5.543   3.847 129.827  0.00  0.00    +0.000 C 
ATOM     39  O   UNK A   0      -4.367   3.839 130.171  0.00  0.00    +0.000 OA
ATOM     40  N   UNK A   0      -5.727   3.981 128.478  0.00  0.00    +0.000 N 
ATOM     41  H   UNK A   0      -6.540   3.608 128.047  0.00  0.00    +0.000 HD
BRANCH  40  42
ATOM     42  C   UNK A   0      -4.706   4.423 127.534  0.00  0.00    +0.000 C 
ATOM     43  C   UNK A   0      -3.589   3.371 127.434  0.00  0.00    +0.000 C 
ATOM     44  C   UNK A   0      -5.468   4.700 126.246  0.00  0.00    +0.000 C 
ATOM     45  C   UNK A   0      -4.022   5.724 128.025  0.00  0.00    +0.000 C 
ENDBRANCH  40  42
ENDBRANCH   1  38
TORSDOF 9
ENDMDL
MODEL 2
REMARK VINA RESULT:      -9.3      2.577      4.537
REMARK  Name = CHEMBL213112
REMARK  14 active torsions:
REMARK  status: ('A' for Active; 'I' for Inactive)
REMARK    1  A    between atoms: CD1_1  and  CG_2
REMARK    2  A    between atoms: CG_2  and  CD2_3
REMARK    3  A    between atoms: CG_2  and  CB_4
REMARK    4  A    between atoms: CB_4  and  CA_5
REMARK    5  A    between atoms: C_9  and  C_10
REMARK    6  A    between atoms: N_21  and  C_22
REMARK    7  A    between atoms: C_22  and  C_23
REMARK    8  A    between atoms: C_22  and  C_30
REMARK    9  A    between atoms: N_25  and  C_26
REMARK   10  A    between atoms: C_26  and  C_27
REMARK   11  A    between atoms: C_26  and  C_28
REMARK   12  A    between atoms: C_26  and  C_29
REMARK   13  A    between atoms: C_33  and  N_34
REMARK   14  A    between atoms: C_37  and  O_38
REMARK                            x       y       z     vdW  Elec       q    Type
REMARK                         _______ _______ _______ _____ _____    ______ ____
ROOT
ATOM      1  C   UNK A   0      -6.549   3.224 130.449  0.00  0.00    +0.000 C 
ENDROOT
BRANCH   1   9
ATOM      2  CA  LEU A   2      -5.323   3.220 128.012  0.00  0.00    +0.000 C 
ATOM      3  C   LEU A   2      -6.174   2.981 126.721  0.00  0.00    +0.000 C 
ATOM      4  O   LEU A   2      -6.348   3.781 125.816  0.00  0.00    +0.000 OA
ATOM      5  N   UNK A   1      -6.680   1.718 126.626  0.00  0.00    +0.000 N 
ATOM      6  C   UNK A   1      -6.233   0.697 127.539  0.00  0.00    +0.000 C 
ATOM      7  C   UNK A   1      -6.422   1.191 128.964  0.00  0.00    +0.000 C 
ATOM      8  O   UNK A   1      -6.767   0.396 129.797  0.00  0.00    +0.000 OA
ATOM      9  N   LEU A   2      -6.080   2.545 129.164  0.00  0.00    +0.000 N 
ATOM     10  H   UNK A   1      -7.159   1.507 125.758  0.00  0.00    +0.000 HD
BRANCH   6  11
ATOM     11  C   UNK A   1      -6.953  -0.654 127.413  0.00  0.00    +0.000 C 
ATOM     12  C   UNK A   1      -5.929  -1.705 126.990  0.00  0.00    +0.000 C 
ATOM     13  C   UNK A   1      -6.208  -1.817 125.523  0.00  0.00    +0.000 A 
ATOM     14  C   UNK A   1      -5.378  -2.337 124.551  0.00  0.00    +0.000 A 
ATOM     15  C   UNK A   1      -5.841  -2.370 123.235  0.00  0.00    +0.000 A 
ATOM     16  C   UNK A   1      -7.122  -1.896 122.911  0.00  0.00    +0.000 A 
ATOM     17  C   UNK A   1      -7.946  -1.351 123.895  0.00  0.00    +0.000 A 
ATOM     18  C   UNK A   1      -7.462  -1.294 125.192  0.00  0.00    +0.000 A 
ATOM     19  C   UNK A   1      -8.135  -0.741 126.403  0.00  0.00    +0.000 C 
ENDBRANCH   6  11
BRANCH   2  20
ATOM     20  CB  LEU A   2      -5.163   4.723 128.081  0.00  0.00    +0.000 C 
BRANCH  20  22
ATOM     21  CD1 LEU A   2      -3.530   6.753 128.202  0.00  0.00    +0.000 C 
ATOM     22  CG  LEU A   2      -3.835   5.366 127.605  0.00  0.00    +0.000 C 
ATOM     23  CD2 LEU A   2      -2.559   4.556 127.760  0.00  0.00    +0.000 C 
ENDBRANCH  20  22
ENDBRANCH   2  20
ENDBRANCH   1   9
BRANCH   1  24
ATOM     24  C   UNK A   0      -7.640   4.316 130.300  0.00  0.00    +0.000 A 
ATOM     25  C   UNK A   0      -7.434   5.625 130.736  0.00  0.00    +0.000 A 
ATOM     26  C   UNK A   0      -8.408   6.593 130.688  0.00  0.00    +0.000 A 
ATOM     27  C   UNK A   0      -9.585   6.352 130.018  0.00  0.00    +0.000 A 
ATOM     28  C   UNK A   0      -9.837   5.058 129.561  0.00  0.00    +0.000 A 
ATOM     29  C   UNK A   0      -8.911   4.030 129.764  0.00  0.00    +0.000 A 
BRANCH  27  30
ATOM     30  N   UNK A   0     -10.464   7.377 129.797  0.00  0.00    +0.000 N 
ATOM     31  C   UNK A   0     -10.160   8.351 128.777  0.00  0.00    +0.000 C 
ATOM     32  C   UNK A   0     -11.250   8.292 127.713  0.00  0.00    +0.000 C 
ATOM     33  C   UNK A   0     -12.644   8.413 128.331  0.00  0.00    +0.000 C 
ATOM     34  C   UNK A   0     -12.880   7.400 129.454  0.00  0.00    +0.000 C 
ATOM     35  C   UNK A   0     -11.750   7.423 130.476  0.00  0.00    +0.000 C 
BRANCH  33  36
ATOM     36  O   UNK A   0     -12.852   9.743 128.812  0.00  0.00    +0.000 OA
ATOM     37  H   UNK A   0     -13.235   9.691 129.705  0.00  0.00    +0.000 HD
ENDBRANCH  33  36
ENDBRANCH  27  30
ENDBRANCH   1  24
BRANCH   1  38
ATOM     38  C   UNK A   0      -5.441   3.621 131.562  0.00  0.00    +0.000 C 
ATOM     39  O   UNK A   0      -5.609   3.497 132.770  0.00  0.00    +0.000 OA
ATOM     40  N   UNK A   0      -4.209   4.108 131.219  0.00  0.00    +0.000 N 
ATOM     41  H   UNK A   0      -3.812   3.880 130.339  0.00  0.00    +0.000 HD
BRANCH  40  42
ATOM     42  C   UNK A   0      -3.282   4.760 132.137  0.00  0.00    +0.000 C 
ATOM     43  C   UNK A   0      -4.019   5.833 132.957  0.00  0.00    +0.000 C 
ATOM     44  C   UNK A   0      -2.672   3.621 132.940  0.00  0.00    +0.000 C 
ATOM     45  C   UNK A   0      -2.166   5.508 131.364  0.00  0.00    +0.000 C 
ENDBRANCH  40  42
ENDBRANCH   1  38
TORSDOF 9
ENDMDL
MODEL 3
REMARK VINA RESULT:      -9.2      1.336      1.855
REMARK  Name = CHEMBL213112
REMARK  14 active torsions:
REMARK  status: ('A' for Active; 'I' for Inactive)
REMARK    1  A    between atoms: CD1_1  and  CG_2
REMARK    2  A    between atoms: CG_2  and  CD2_3
REMARK    3  A    between atoms: CG_2  and  CB_4
REMARK    4  A    between atoms: CB_4  and  CA_5
REMARK    5  A    between atoms: C_9  and  C_10
REMARK    6  A    between atoms: N_21  and  C_22
REMARK    7  A    between atoms: C_22  and  C_23
REMARK    8  A    between atoms: C_22  and  C_30
REMARK    9  A    between atoms: N_25  and  C_26
REMARK   10  A    between atoms: C_26  and  C_27
REMARK   11  A    between atoms: C_26  and  C_28
REMARK   12  A    between atoms: C_26  and  C_29
REMARK   13  A    between atoms: C_33  and  N_34
REMARK   14  A    between atoms: C_37  and  O_38
REMARK                            x       y       z     vdW  Elec       q    Type
REMARK                         _______ _______ _______ _____ _____    ______ ____
ROOT
ATOM      1  C   UNK A   0      -5.805   3.837 130.880  0.00  0.00    +0.000 C 
ENDROOT
BRANCH   1   9
ATOM      2  CA  LEU A   2      -7.019   1.903 132.373  0.00  0.00    +0.000 C 
ATOM      3  C   LEU A   2      -6.153   0.987 133.300  0.00  0.00    +0.000 C 
ATOM      4  O   LEU A   2      -6.213   0.936 134.518  0.00  0.00    +0.000 OA
ATOM      5  N   UNK A   1      -5.329   0.142 132.618  0.00  0.00    +0.000 N 
ATOM      6  C   UNK A   1      -5.473  -0.003 131.191  0.00  0.00    +0.000 C 
ATOM      7  C   UNK A   1      -5.403   1.371 130.546  0.00  0.00    +0.000 C 
ATOM      8  O   UNK A   1      -4.846   1.469 129.485  0.00  0.00    +0.000 OA
ATOM      9  N   LEU A   2      -6.092   2.383 131.246  0.00  0.00    +0.000 N 
ATOM     10  H   UNK A   1      -4.822  -0.526 133.189  0.00  0.00    +0.000 HD
BRANCH   6  11
ATOM     11  C   UNK A   1      -4.419  -0.892 130.514  0.00  0.00    +0.000 C 
ATOM     12  C   UNK A   1      -5.146  -1.947 129.681  0.00  0.00    +0.000 C 
ATOM     13  C   UNK A   1      -5.067  -3.141 130.579  0.00  0.00    +0.000 A 
ATOM     14  C   UNK A   1      -5.845  -4.280 130.527  0.00  0.00    +0.000 A 
ATOM     15  C   UNK A   1      -5.593  -5.295 131.451  0.00  0.00    +0.000 A 
ATOM     16  C   UNK A   1      -4.567  -5.166 132.400  0.00  0.00    +0.000 A 
ATOM     17  C   UNK A   1      -3.800  -4.003 132.461  0.00  0.00    +0.000 A 
ATOM     18  C   UNK A   1      -4.082  -2.989 131.560  0.00  0.00    +0.000 A 
ATOM     19  C   UNK A   1      -3.426  -1.654 131.441  0.00  0.00    +0.000 C 
ENDBRANCH   6  11
BRANCH   2  20
ATOM     20  CB  LEU A   2      -7.574   2.958 133.303  0.00  0.00    +0.000 C 
BRANCH  20  22
ATOM     21  CD1 LEU A   2      -9.594   4.603 133.431  0.00  0.00    +0.000 C 
ATOM     22  CG  LEU A   2      -9.110   3.141 133.410  0.00  0.00    +0.000 C 
ATOM     23  CD2 LEU A   2      -9.982   2.427 132.392  0.00  0.00    +0.000 C 
ENDBRANCH  20  22
ENDBRANCH   2  20
ENDBRANCH   1   9
BRANCH   1  24
ATOM     24  C   UNK A   0      -7.035   4.739 130.599  0.00  0.00    +0.000 A 
ATOM     25  C   UNK A   0      -7.140   6.024 131.129  0.00  0.00    +0.000 A 
ATOM     26  C   UNK A   0      -8.251   6.815 130.963  0.00  0.00    +0.000 A 
ATOM     27  C   UNK A   0      -9.243   6.434 130.089  0.00  0.00    +0.000 A 
ATOM     28  C   UNK A   0      -9.181   5.156 129.530  0.00  0.00    +0.000 A 
ATOM     29  C   UNK A   0      -8.131   4.287 129.838  0.00  0.00    +0.000 A 
BRANCH  27  30
ATOM     30  N   UNK A   0     -10.244   7.312 129.771  0.00  0.00    +0.000 N 
ATOM     31  C   UNK A   0     -10.004   8.308 128.757  0.00  0.00    +0.000 C 
ATOM     32  C   UNK A   0     -10.978   8.072 127.608  0.00  0.00    +0.000 C 
ATOM     33  C   UNK A   0     -12.422   7.987 128.106  0.00  0.00    +0.000 C 
ATOM     34  C   UNK A   0     -12.597   6.963 129.229  0.00  0.00    +0.000 C 
ATOM     35  C   UNK A   0     -11.575   7.169 130.340  0.00  0.00    +0.000 C 
BRANCH  33  36
ATOM     36  O   UNK A   0     -12.868   9.275 128.536  0.00  0.00    +0.000 OA
ATOM     37  H   UNK A   0     -12.151   9.697 129.040  0.00  0.00    +0.000 HD
ENDBRANCH  33  36
ENDBRANCH  27  30
ENDBRANCH   1  24
BRANCH   1  38
ATOM     38  C   UNK A   0      -4.579   4.152 129.868  0.00  0.00    +0.000 C 
ATOM     39  O   UNK A   0      -3.444   4.436 130.235  0.00  0.00    +0.000 OA
ATOM     40  N   UNK A   0      -4.726   4.095 128.509  0.00  0.00    +0.000 N 
ATOM     41  H   UNK A   0      -5.421   3.511 128.108  0.00  0.00    +0.000 HD
BRANCH  40  42
ATOM     42  C   UNK A   0      -3.782   4.642 127.542  0.00  0.00    +0.000 C 
ATOM     43  C   UNK A   0      -3.574   6.145 127.800  0.00  0.00    +0.000 C 
ATOM     44  C   UNK A   0      -2.541   3.773 127.681  0.00  0.00    +0.000 C 
ATOM     45  C   UNK A   0      -4.336   4.532 126.099  0.00  0.00    +0.000 C 
ENDBRANCH  40  42
ENDBRANCH   1  38
TORSDOF 9
ENDMDL
MODEL 4
REMARK VINA RESULT:      -9.1      2.625      5.598
REMARK  Name = CHEMBL213112
REMARK  14 active torsions:
REMARK  status: ('A' for Active; 'I' for Inactive)
REMARK    1  A    between atoms: CD1_1  and  CG_2
REMARK    2  A    between atoms: CG_2  and  CD2_3
REMARK    3  A    between atoms: CG_2  and  CB_4
REMARK    4  A    between atoms: CB_4  and  CA_5
REMARK    5  A    between atoms: C_9  and  C_10
REMARK    6  A    between atoms: N_21  and  C_22
REMARK    7  A    between atoms: C_22  and  C_23
REMARK    8  A    between atoms: C_22  and  C_30
REMARK    9  A    between atoms: N_25  and  C_26
REMARK   10  A    between atoms: C_26  and  C_27
REMARK   11  A    between atoms: C_26  and  C_28
REMARK   12  A    between atoms: C_26  and  C_29
REMARK   13  A    between atoms: C_33  and  N_34
REMARK   14  A    between atoms: C_37  and  O_38
REMARK                            x       y       z     vdW  Elec       q    Type
REMARK                         _______ _______ _______ _____ _____    ______ ____
ROOT
ATOM      1  C   UNK A   0      -7.407   3.916 129.607  0.00  0.00    +0.000 C 
ENDROOT
BRANCH   1   9
ATOM      2  CA  LEU A   2      -7.430   2.190 131.719  0.00  0.00    +0.000 C 
ATOM      3  C   LEU A   2      -6.328   1.084 131.824  0.00  0.00    +0.000 C 
ATOM      4  O   LEU A   2      -5.483   0.991 132.700  0.00  0.00    +0.000 OA
ATOM      5  N   UNK A   1      -6.421   0.126 130.858  0.00  0.00    +0.000 N 
ATOM      6  C   UNK A   1      -7.586   0.075 130.010  0.00  0.00    +0.000 C 
ATOM      7  C   UNK A   1      -7.788   1.437 129.367  0.00  0.00    +0.000 C 
ATOM      8  O   UNK A   1      -8.182   1.472 128.231  0.00  0.00    +0.000 OA
ATOM      9  N   LEU A   2      -7.565   2.531 130.228  0.00  0.00    +0.000 N 
ATOM     10  H   UNK A   1      -5.777  -0.651 130.953  0.00  0.00    +0.000 HD
BRANCH   6  11
ATOM     11  C   UNK A   1      -7.531  -0.970 128.886  0.00  0.00    +0.000 C 
ATOM     12  C   UNK A   1      -7.968  -2.317 129.461  0.00  0.00    +0.000 C 
ATOM     13  C   UNK A   1      -6.648  -2.990 129.674  0.00  0.00    +0.000 A 
ATOM     14  C   UNK A   1      -6.383  -4.071 130.489  0.00  0.00    +0.000 A 
ATOM     15  C   UNK A   1      -5.078  -4.565 130.529  0.00  0.00    +0.000 A 
ATOM     16  C   UNK A   1      -4.065  -3.984 129.750  0.00  0.00    +0.000 A 
ATOM     17  C   UNK A   1      -4.336  -2.877 128.946  0.00  0.00    +0.000 A 
ATOM     18  C   UNK A   1      -5.628  -2.376 128.941  0.00  0.00    +0.000 A 
ATOM     19  C   UNK A   1      -6.157  -1.200 128.191  0.00  0.00    +0.000 C 
ENDBRANCH   6  11
BRANCH   2  20
ATOM     20  CB  LEU A   2      -6.942   3.290 132.636  0.00  0.00    +0.000 C 
BRANCH  20  22
ATOM     21  CD1 LEU A   2      -7.900   5.391 133.849  0.00  0.00    +0.000 C 
ATOM     22  CG  LEU A   2      -7.900   3.857 133.715  0.00  0.00    +0.000 C 
ATOM     23  CD2 LEU A   2      -9.361   3.444 133.655  0.00  0.00    +0.000 C 
ENDBRANCH  20  22
ENDBRANCH   2  20
ENDBRANCH   1   9
BRANCH   1  24
ATOM     24  C   UNK A   0      -6.145   4.721 130.017  0.00  0.00    +0.000 A 
ATOM     25  C   UNK A   0      -6.236   5.986 130.595  0.00  0.00    +0.000 A 
ATOM     26  C   UNK A   0      -5.137   6.754 130.895  0.00  0.00    +0.000 A 
ATOM     27  C   UNK A   0      -3.875   6.212 130.811  0.00  0.00    +0.000 A 
ATOM     28  C   UNK A   0      -3.732   4.946 130.240  0.00  0.00    +0.000 A 
ATOM     29  C   UNK A   0      -4.844   4.236 129.777  0.00  0.00    +0.000 A 
BRANCH  27  30
ATOM     30  N   UNK A   0      -2.802   6.906 131.301  0.00  0.00    +0.000 N 
ATOM     31  C   UNK A   0      -3.038   8.078 132.107  0.00  0.00    +0.000 C 
ATOM     32  C   UNK A   0      -2.459   7.834 133.497  0.00  0.00    +0.000 C 
ATOM     33  C   UNK A   0      -1.000   7.380 133.423  0.00  0.00    +0.000 C 
ATOM     34  C   UNK A   0      -0.805   6.176 132.498  0.00  0.00    +0.000 C 
ATOM     35  C   UNK A   0      -1.446   6.408 131.135  0.00  0.00    +0.000 C 
BRANCH  33  36
ATOM     36  O   UNK A   0      -0.169   8.465 133.006  0.00  0.00    +0.000 OA
ATOM     37  H   UNK A   0       0.740   8.288 133.301  0.00  0.00    +0.000 HD
ENDBRANCH  33  36
ENDBRANCH  27  30
ENDBRANCH   1  24
BRANCH   1  38
ATOM     38  C   UNK A   0      -8.715   4.863 129.484  0.00  0.00    +0.000 C 
ATOM     39  O   UNK A   0      -9.041   5.452 128.459  0.00  0.00    +0.000 OA
ATOM     40  N   UNK A   0      -9.576   5.052 130.530  0.00  0.00    +0.000 N 
ATOM     41  H   UNK A   0      -9.663   4.358 131.234  0.00  0.00    +0.000 HD
BRANCH  40  42
ATOM     42  C   UNK A   0     -10.590   6.098 130.602  0.00  0.00    +0.000 C 
ATOM     43  C   UNK A   0     -10.016   7.424 130.073  0.00  0.00    +0.000 C 
ATOM     44  C   UNK A   0     -11.775   5.539 129.829  0.00  0.00    +0.000 C 
ATOM     45  C   UNK A   0     -11.007   6.370 132.070  0.00  0.00    +0.000 C 
ENDBRANCH  40  42
ENDBRANCH   1  38
TORSDOF 9
ENDMDL
MODEL 5
REMARK VINA RESULT:      -9.1      1.697      2.337
REMARK  Name = CHEMBL213112
REMARK  14 active torsions:
REMARK  status: ('A' for Active; 'I' for Inactive)
REMARK    1  A    between atoms: CD1_1  and  CG_2
REMARK    2  A    between atoms: CG_2  and  CD2_3
REMARK    3  A    between atoms: CG_2  and  CB_4
REMARK    4  A    between atoms: CB_4  and  CA_5
REMARK    5  A    between atoms: C_9  and  C_10
REMARK    6  A    between atoms: N_21  and  C_22
REMARK    7  A    between atoms: C_22  and  C_23
REMARK    8  A    between atoms: C_22  and  C_30
REMARK    9  A    between atoms: N_25  and  C_26
REMARK   10  A    between atoms: C_26  and  C_27
REMARK   11  A    between atoms: C_26  and  C_28
REMARK   12  A    between atoms: C_26  and  C_29
REMARK   13  A    between atoms: C_33  and  N_34
REMARK   14  A    between atoms: C_37  and  O_38
REMARK                            x       y       z     vdW  Elec       q    Type
REMARK                         _______ _______ _______ _____ _____    ______ ____
ROOT
ATOM      1  C   UNK A   0      -5.844   4.458 131.602  0.00  0.00    +0.000 C 
ENDROOT
BRANCH   1   9
ATOM      2  CA  LEU A   2      -6.374   2.374 133.281  0.00  0.00    +0.000 C 
ATOM      3  C   LEU A   2      -5.199   1.475 133.790  0.00  0.00    +0.000 C 
ATOM      4  O   LEU A   2      -4.832   1.360 134.949  0.00  0.00    +0.000 OA
ATOM      5  N   UNK A   1      -4.622   0.723 132.810  0.00  0.00    +0.000 N 
ATOM      6  C   UNK A   1      -5.243   0.639 131.512  0.00  0.00    +0.000 C 
ATOM      7  C   UNK A   1      -5.465   2.045 130.980  0.00  0.00    +0.000 C 
ATOM      8  O   UNK A   1      -5.314   2.234 129.802  0.00  0.00    +0.000 OA
ATOM      9  N   LEU A   2      -5.918   2.971 131.942  0.00  0.00    +0.000 N 
ATOM     10  H   UNK A   1      -3.918   0.065 133.126  0.00  0.00    +0.000 HD
BRANCH   6  11
ATOM     11  C   UNK A   1      -4.446  -0.140 130.456  0.00  0.00    +0.000 C 
ATOM     12  C   UNK A   1      -5.437  -0.804 129.501  0.00  0.00    +0.000 C 
ATOM     13  C   UNK A   1      -5.452  -2.208 130.018  0.00  0.00    +0.000 A 
ATOM     14  C   UNK A   1      -6.412  -3.173 129.791  0.00  0.00    +0.000 A 
ATOM     15  C   UNK A   1      -6.224  -4.438 130.351  0.00  0.00    +0.000 A 
ATOM     16  C   UNK A   1      -5.083  -4.723 131.117  0.00  0.00    +0.000 A 
ATOM     17  C   UNK A   1      -4.128  -3.736 131.361  0.00  0.00    +0.000 A 
ATOM     18  C   UNK A   1      -4.343  -2.476 130.826  0.00  0.00    +0.000 A 
ATOM     19  C   UNK A   1      -3.490  -1.260 130.964  0.00  0.00    +0.000 C 
ENDBRANCH   6  11
BRANCH   2  20
ATOM     20  CB  LEU A   2      -6.624   3.341 134.417  0.00  0.00    +0.000 C 
BRANCH  20  22
ATOM     21  CD1 LEU A   2      -8.073   5.498 134.650  0.00  0.00    +0.000 C 
ATOM     22  CG  LEU A   2      -8.036   3.959 134.589  0.00  0.00    +0.000 C 
ATOM     23  CD2 LEU A   2      -9.113   3.555 133.597  0.00  0.00    +0.000 C 
ENDBRANCH  20  22
ENDBRANCH   2  20
ENDBRANCH   1   9
BRANCH   1  24
ATOM     24  C   UNK A   0      -7.101   5.082 130.940  0.00  0.00    +0.000 A 
ATOM     25  C   UNK A   0      -7.801   4.425 129.929  0.00  0.00    +0.000 A 
ATOM     26  C   UNK A   0      -8.869   4.986 129.270  0.00  0.00    +0.000 A 
ATOM     27  C   UNK A   0      -9.416   6.164 129.725  0.00  0.00    +0.000 A 
ATOM     28  C   UNK A   0      -8.752   6.858 130.737  0.00  0.00    +0.000 A 
ATOM     29  C   UNK A   0      -7.566   6.365 131.289  0.00  0.00    +0.000 A 
BRANCH  27  30
ATOM     30  N   UNK A   0     -10.596   6.613 129.197  0.00  0.00    +0.000 N 
ATOM     31  C   UNK A   0     -11.797   6.518 129.990  0.00  0.00    +0.000 C 
ATOM     32  C   UNK A   0     -12.329   7.926 130.234  0.00  0.00    +0.000 C 
ATOM     33  C   UNK A   0     -12.476   8.703 128.924  0.00  0.00    +0.000 C 
ATOM     34  C   UNK A   0     -11.189   8.709 128.096  0.00  0.00    +0.000 C 
ATOM     35  C   UNK A   0     -10.632   7.302 127.916  0.00  0.00    +0.000 C 
BRANCH  33  36
ATOM     36  O   UNK A   0     -13.557   8.169 128.156  0.00  0.00    +0.000 OA
ATOM     37  H   UNK A   0     -13.753   8.786 127.431  0.00  0.00    +0.000 HD
ENDBRANCH  33  36
ENDBRANCH  27  30
ENDBRANCH   1  24
BRANCH   1  38
ATOM     38  C   UNK A   0      -4.472   5.040 130.968  0.00  0.00    +0.000 C 
ATOM     39  O   UNK A   0      -3.360   4.582 131.205  0.00  0.00    +0.000 OA
ATOM     40  N   UNK A   0      -4.466   6.086 130.086  0.00  0.00    +0.000 N 
ATOM     41  H   UNK A   0      -5.262   6.266 129.522  0.00  0.00    +0.000 HD
BRANCH  40  42
ATOM     42  C   UNK A   0      -3.285   6.853 129.706  0.00  0.00    +0.000 C 
ATOM     43  C   UNK A   0      -2.513   6.116 128.598  0.00  0.00    +0.000 C 
ATOM     44  C   UNK A   0      -3.823   8.226 129.331  0.00  0.00    +0.000 C 
ATOM     45  C   UNK A   0      -2.301   6.986 130.895  0.00  0.00    +0.000 C 
ENDBRANCH  40  42
ENDBRANCH   1  38
TORSDOF 9
ENDMDL
MODEL 6
REMARK VINA RESULT:      -9.0      3.615      8.099
REMARK  Name = CHEMBL213112
REMARK  14 active torsions:
REMARK  status: ('A' for Active; 'I' for Inactive)
REMARK    1  A    between atoms: CD1_1  and  CG_2
REMARK    2  A    between atoms: CG_2  and  CD2_3
REMARK    3  A    between atoms: CG_2  and  CB_4
REMARK    4  A    between atoms: CB_4  and  CA_5
REMARK    5  A    between atoms: C_9  and  C_10
REMARK    6  A    between atoms: N_21  and  C_22
REMARK    7  A    between atoms: C_22  and  C_23
REMARK    8  A    between atoms: C_22  and  C_30
REMARK    9  A    between atoms: N_25  and  C_26
REMARK   10  A    between atoms: C_26  and  C_27
REMARK   11  A    between atoms: C_26  and  C_28
REMARK   12  A    between atoms: C_26  and  C_29
REMARK   13  A    between atoms: C_33  and  N_34
REMARK   14  A    between atoms: C_37  and  O_38
REMARK                            x       y       z     vdW  Elec       q    Type
REMARK                         _______ _______ _______ _____ _____    ______ ____
ROOT
ATOM      1  C   UNK A   0      -8.118   3.441 129.604  0.00  0.00    +0.000 C 
ENDROOT
BRANCH   1   9
ATOM      2  CA  LEU A   2      -6.336   3.024 131.627  0.00  0.00    +0.000 C 
ATOM      3  C   LEU A   2      -5.951   4.209 132.574  0.00  0.00    +0.000 C 
ATOM      4  O   LEU A   2      -6.178   4.275 133.771  0.00  0.00    +0.000 OA
ATOM      5  N   UNK A   1      -5.236   5.192 131.956  0.00  0.00    +0.000 N 
ATOM      6  C   UNK A   1      -4.719   4.975 130.628  0.00  0.00    +0.000 C 
ATOM      7  C   UNK A   1      -5.861   4.558 129.716  0.00  0.00    +0.000 C 
ATOM      8  O   UNK A   1      -5.857   4.962 128.584  0.00  0.00    +0.000 OA
ATOM      9  N   LEU A   2      -6.774   3.653 130.297  0.00  0.00    +0.000 N 
ATOM     10  H   UNK A   1      -4.896   5.928 132.564  0.00  0.00    +0.000 HD
BRANCH   6  11
ATOM     11  C   UNK A   1      -4.029   6.189 129.988  0.00  0.00    +0.000 C 
ATOM     12  C   UNK A   1      -2.534   5.893 129.887  0.00  0.00    +0.000 C 
ATOM     13  C   UNK A   1      -2.001   6.651 131.063  0.00  0.00    +0.000 A 
ATOM     14  C   UNK A   1      -0.784   6.477 131.688  0.00  0.00    +0.000 A 
ATOM     15  C   UNK A   1      -0.467   7.310 132.762  0.00  0.00    +0.000 A 
ATOM     16  C   UNK A   1      -1.359   8.306 133.187  0.00  0.00    +0.000 A 
ATOM     17  C   UNK A   1      -2.598   8.462 132.564  0.00  0.00    +0.000 A 
ATOM     18  C   UNK A   1      -2.913   7.607 131.521  0.00  0.00    +0.000 A 
ATOM     19  C   UNK A   1      -4.171   7.558 130.719  0.00  0.00    +0.000 C 
ENDBRANCH   6  11
BRANCH   2  20
ATOM     20  CB  LEU A   2      -7.381   2.252 132.401  0.00  0.00    +0.000 C 
BRANCH  20  22
ATOM     21  CD1 LEU A   2      -8.780   0.113 131.878  0.00  0.00    +0.000 C 
ATOM     22  CG  LEU A   2      -7.419   0.706 132.289  0.00  0.00    +0.000 C 
ATOM     23  CD2 LEU A   2      -6.386   0.034 131.400  0.00  0.00    +0.000 C 
ENDBRANCH  20  22
ENDBRANCH   2  20
ENDBRANCH   1   9
BRANCH   1  24
ATOM     24  C   UNK A   0      -8.119   2.524 128.353  0.00  0.00    +0.000 A 
ATOM     25  C   UNK A   0      -8.259   1.141 128.457  0.00  0.00    +0.000 A 
ATOM     26  C   UNK A   0      -8.185   0.297 127.374  0.00  0.00    +0.000 A 
ATOM     27  C   UNK A   0      -8.160   0.814 126.099  0.00  0.00    +0.000 A 
ATOM     28  C   UNK A   0      -8.022   2.194 125.944  0.00  0.00    +0.000 A 
ATOM     29  C   UNK A   0      -7.926   3.037 127.055  0.00  0.00    +0.000 A 
BRANCH  27  30
ATOM     30  N   UNK A   0      -8.291  -0.023 125.024  0.00  0.00    +0.000 N 
ATOM     31  C   UNK A   0      -7.925   0.460 123.715  0.00  0.00    +0.000 C 
ATOM     32  C   UNK A   0      -6.779  -0.394 123.187  0.00  0.00    +0.000 C 
ATOM     33  C   UNK A   0      -7.112  -1.886 123.259  0.00  0.00    +0.000 C 
ATOM     34  C   UNK A   0      -7.559  -2.321 124.656  0.00  0.00    +0.000 C 
ATOM     35  C   UNK A   0      -8.660  -1.419 125.199  0.00  0.00    +0.000 C 
BRANCH  33  36
ATOM     36  O   UNK A   0      -8.116  -2.210 122.294  0.00  0.00    +0.000 OA
ATOM     37  H   UNK A   0      -8.940  -1.757 122.543  0.00  0.00    +0.000 HD
ENDBRANCH  33  36
ENDBRANCH  27  30
ENDBRANCH   1  24
BRANCH   1  38
ATOM     38  C   UNK A   0      -9.104   4.714 129.424  0.00  0.00    +0.000 C 
ATOM     39  O   UNK A   0      -9.066   5.480 128.467  0.00  0.00    +0.000 OA
ATOM     40  N   UNK A   0     -10.083   5.009 130.334  0.00  0.00    +0.000 N 
ATOM     41  H   UNK A   0     -10.475   4.290 130.893  0.00  0.00    +0.000 HD
BRANCH  40  42
ATOM     42  C   UNK A   0     -10.803   6.276 130.407  0.00  0.00    +0.000 C 
ATOM     43  C   UNK A   0     -11.984   6.268 129.422  0.00  0.00    +0.000 C 
ATOM     44  C   UNK A   0     -11.170   6.424 131.876  0.00  0.00    +0.000 C 
ATOM     45  C   UNK A   0      -9.897   7.457 129.975  0.00  0.00    +0.000 C 
ENDBRANCH  40  42
ENDBRANCH   1  38
TORSDOF 9
ENDMDL
MODEL 7
REMARK VINA RESULT:      -9.0      3.595      7.259
REMARK  Name = CHEMBL213112
REMARK  14 active torsions:
REMARK  status: ('A' for Active; 'I' for Inactive)
REMARK    1  A    between atoms: CD1_1  and  CG_2
REMARK    2  A    between atoms: CG_2  and  CD2_3
REMARK    3  A    between atoms: CG_2  and  CB_4
REMARK    4  A    between atoms: CB_4  and  CA_5
REMARK    5  A    between atoms: C_9  and  C_10
REMARK    6  A    between atoms: N_21  and  C_22
REMARK    7  A    between atoms: C_22  and  C_23
REMARK    8  A    between atoms: C_22  and  C_30
REMARK    9  A    between atoms: N_25  and  C_26
REMARK   10  A    between atoms: C_26  and  C_27
REMARK   11  A    between atoms: C_26  and  C_28
REMARK   12  A    between atoms: C_26  and  C_29
REMARK   13  A    between atoms: C_33  and  N_34
REMARK   14  A    between atoms: C_37  and  O_38
REMARK                            x       y       z     vdW  Elec       q    Type
REMARK                         _______ _______ _______ _____ _____    ______ ____
ROOT
ATOM      1  C   UNK A   0      -6.640   4.574 128.787  0.00  0.00    +0.000 C 
ENDROOT
BRANCH   1   9
ATOM      2  CA  LEU A   2      -5.238   3.154 126.926  0.00  0.00    +0.000 C 
ATOM      3  C   LEU A   2      -5.925   2.763 125.576  0.00  0.00    +0.000 C 
ATOM      4  O   LEU A   2      -5.595   3.144 124.464  0.00  0.00    +0.000 OA
ATOM      5  N   UNK A   1      -6.932   1.853 125.718  0.00  0.00    +0.000 N 
ATOM      6  C   UNK A   1      -7.122   1.188 126.983  0.00  0.00    +0.000 C 
ATOM      7  C   UNK A   1      -7.254   2.235 128.076  0.00  0.00    +0.000 C 
ATOM      8  O   UNK A   1      -8.029   2.024 128.971  0.00  0.00    +0.000 OA
ATOM      9  N   LEU A   2      -6.365   3.323 127.956  0.00  0.00    +0.000 N 
ATOM     10  H   UNK A   1      -7.335   1.513 124.852  0.00  0.00    +0.000 HD
BRANCH   6  11
ATOM     11  C   UNK A   1      -8.353   0.273 127.061  0.00  0.00    +0.000 C 
ATOM     12  C   UNK A   1      -7.875  -1.151 127.341  0.00  0.00    +0.000 C 
ATOM     13  C   UNK A   1      -7.944  -1.761 125.976  0.00  0.00    +0.000 A 
ATOM     14  C   UNK A   1      -7.307  -2.903 125.537  0.00  0.00    +0.000 A 
ATOM     15  C   UNK A   1      -7.524  -3.318 124.222  0.00  0.00    +0.000 A 
ATOM     16  C   UNK A   1      -8.376  -2.597 123.372  0.00  0.00    +0.000 A 
ATOM     17  C   UNK A   1      -8.999  -1.430 123.816  0.00  0.00    +0.000 A 
ATOM     18  C   UNK A   1      -8.749  -1.012 125.112  0.00  0.00    +0.000 A 
ATOM     19  C   UNK A   1      -9.272   0.202 125.805  0.00  0.00    +0.000 C 
ENDBRANCH   6  11
BRANCH   2  20
ATOM     20  CB  LEU A   2      -4.425   4.384 126.588  0.00  0.00    +0.000 C 
BRANCH  20  22
ATOM     21  CD1 LEU A   2      -2.536   5.369 128.093  0.00  0.00    +0.000 C 
ATOM     22  CG  LEU A   2      -2.916   4.415 126.945  0.00  0.00    +0.000 C 
ATOM     23  CD2 LEU A   2      -2.233   3.095 127.257  0.00  0.00    +0.000 C 
ENDBRANCH  20  22
ENDBRANCH   2  20
ENDBRANCH   1   9
BRANCH   1  24
ATOM     24  C   UNK A   0      -5.661   4.861 129.956  0.00  0.00    +0.000 A 
ATOM     25  C   UNK A   0      -4.890   3.853 130.532  0.00  0.00    +0.000 A 
ATOM     26  C   UNK A   0      -4.074   4.061 131.618  0.00  0.00    +0.000 A 
ATOM     27  C   UNK A   0      -3.837   5.340 132.065  0.00  0.00    +0.000 A 
ATOM     28  C   UNK A   0      -4.583   6.385 131.517  0.00  0.00    +0.000 A 
ATOM     29  C   UNK A   0      -5.540   6.143 130.527  0.00  0.00    +0.000 A 
BRANCH  27  30
ATOM     30  N   UNK A   0      -2.872   5.563 133.010  0.00  0.00    +0.000 N 
ATOM     31  C   UNK A   0      -1.505   5.221 132.706  0.00  0.00    +0.000 C 
ATOM     32  C   UNK A   0      -0.667   6.494 132.749  0.00  0.00    +0.000 C 
ATOM     33  C   UNK A   0      -0.869   7.254 134.062  0.00  0.00    +0.000 C 
ATOM     34  C   UNK A   0      -2.345   7.524 134.362  0.00  0.00    +0.000 C 
ATOM     35  C   UNK A   0      -3.182   6.256 134.251  0.00  0.00    +0.000 C 
BRANCH  33  36
ATOM     36  O   UNK A   0      -0.268   6.535 135.141  0.00  0.00    +0.000 OA
ATOM     37  H   UNK A   0      -0.576   6.922 135.978  0.00  0.00    +0.000 HD
ENDBRANCH  33  36
ENDBRANCH  27  30
ENDBRANCH   1  24
BRANCH   1  38
ATOM     38  C   UNK A   0      -8.173   4.919 129.181  0.00  0.00    +0.000 C 
ATOM     39  O   UNK A   0      -9.016   5.305 128.380  0.00  0.00    +0.000 OA
ATOM     40  N   UNK A   0      -8.644   4.775 130.458  0.00  0.00    +0.000 N 
ATOM     41  H   UNK A   0      -8.222   4.121 131.073  0.00  0.00    +0.000 HD
BRANCH  40  42
ATOM     42  C   UNK A   0      -9.896   5.334 130.956  0.00  0.00    +0.000 C 
ATOM     43  C   UNK A   0     -10.059   6.783 130.465  0.00  0.00    +0.000 C 
ATOM     44  C   UNK A   0     -10.965   4.357 130.490  0.00  0.00    +0.000 C 
ATOM     45  C   UNK A   0      -9.896   5.408 132.504  0.00  0.00    +0.000 C 
ENDBRANCH  40  42
ENDBRANCH   1  38
TORSDOF 9
ENDMDL
MODEL 8
REMARK VINA RESULT:      -9.0      2.369      4.167
REMARK  Name = CHEMBL213112
REMARK  14 active torsions:
REMARK  status: ('A' for Active; 'I' for Inactive)
REMARK    1  A    between atoms: CD1_1  and  CG_2
REMARK    2  A    between atoms: CG_2  and  CD2_3
REMARK    3  A    between atoms: CG_2  and  CB_4
REMARK    4  A    between atoms: CB_4  and  CA_5
REMARK    5  A    between atoms: C_9  and  C_10
REMARK    6  A    between atoms: N_21  and  C_22
REMARK    7  A    between atoms: C_22  and  C_23
REMARK    8  A    between atoms: C_22  and  C_30
REMARK    9  A    between atoms: N_25  and  C_26
REMARK   10  A    between atoms: C_26  and  C_27
REMARK   11  A    between atoms: C_26  and  C_28
REMARK   12  A    between atoms: C_26  and  C_29
REMARK   13  A    between atoms: C_33  and  N_34
REMARK   14  A    between atoms: C_37  and  O_38
REMARK                            x       y       z     vdW  Elec       q    Type
REMARK                         _______ _______ _______ _____ _____    ______ ____
ROOT
ATOM      1  C   UNK A   0      -5.530   4.709 131.624  0.00  0.00    +0.000 C 
ENDROOT
BRANCH   1   9
ATOM      2  CA  LEU A   2      -4.300   2.922 129.970  0.00  0.00    +0.000 C 
ATOM      3  C   LEU A   2      -5.145   1.800 129.280  0.00  0.00    +0.000 C 
ATOM      4  O   LEU A   2      -5.327   1.672 128.080  0.00  0.00    +0.000 OA
ATOM      5  N   UNK A   1      -5.634   0.872 130.151  0.00  0.00    +0.000 N 
ATOM      6  C   UNK A   1      -5.176   0.860 131.518  0.00  0.00    +0.000 C 
ATOM      7  C   UNK A   1      -5.374   2.242 132.117  0.00  0.00    +0.000 C 
ATOM      8  O   UNK A   1      -5.711   2.316 133.269  0.00  0.00    +0.000 OA
ATOM      9  N   LEU A   2      -5.050   3.308 131.252  0.00  0.00    +0.000 N 
ATOM     10  H   UNK A   1      -6.110   0.085 129.724  0.00  0.00    +0.000 HD
BRANCH   6  11
ATOM     11  C   UNK A   1      -5.879  -0.153 132.434  0.00  0.00    +0.000 C 
ATOM     12  C   UNK A   1      -4.866  -1.228 132.825  0.00  0.00    +0.000 C 
ATOM     13  C   UNK A   1      -5.240  -2.340 131.896  0.00  0.00    +0.000 A 
ATOM     14  C   UNK A   1      -4.468  -3.426 131.537  0.00  0.00    +0.000 A 
ATOM     15  C   UNK A   1      -5.017  -4.369 130.666  0.00  0.00    +0.000 A 
ATOM     16  C   UNK A   1      -6.325  -4.222 130.179  0.00  0.00    +0.000 A 
ATOM     17  C   UNK A   1      -7.091  -3.110 130.528  0.00  0.00    +0.000 A 
ATOM     18  C   UNK A   1      -6.523  -2.165 131.366  0.00  0.00    +0.000 A 
ATOM     19  C   UNK A   1      -7.124  -0.892 131.860  0.00  0.00    +0.000 C 
ENDBRANCH   6  11
BRANCH   2  20
ATOM     20  CB  LEU A   2      -4.159   3.990 128.907  0.00  0.00    +0.000 C 
BRANCH  20  22
ATOM     21  CD1 LEU A   2      -2.228   3.545 127.211  0.00  0.00    +0.000 C 
ATOM     22  CG  LEU A   2      -2.744   4.374 128.402  0.00  0.00    +0.000 C 
ATOM     23  CD2 LEU A   2      -2.491   5.828 128.040  0.00  0.00    +0.000 C 
ENDBRANCH  20  22
ENDBRANCH   2  20
ENDBRANCH   1   9
BRANCH   1  24
ATOM     24  C   UNK A   0      -6.890   5.159 131.028  0.00  0.00    +0.000 A 
ATOM     25  C   UNK A   0      -7.423   6.421 131.285  0.00  0.00    +0.000 A 
ATOM     26  C   UNK A   0      -8.660   6.818 130.836  0.00  0.00    +0.000 A 
ATOM     27  C   UNK A   0      -9.348   6.037 129.937  0.00  0.00    +0.000 A 
ATOM     28  C   UNK A   0      -8.853   4.765 129.645  0.00  0.00    +0.000 A 
ATOM     29  C   UNK A   0      -7.678   4.297 130.240  0.00  0.00    +0.000 A 
BRANCH  27  30
ATOM     30  N   UNK A   0     -10.478   6.525 129.338  0.00  0.00    +0.000 N 
ATOM     31  C   UNK A   0     -11.720   6.508 130.070  0.00  0.00    +0.000 C 
ATOM     32  C   UNK A   0     -12.197   7.945 130.249  0.00  0.00    +0.000 C 
ATOM     33  C   UNK A   0     -12.241   8.690 128.913  0.00  0.00    +0.000 C 
ATOM     34  C   UNK A   0     -10.915   8.613 128.153  0.00  0.00    +0.000 C 
ATOM     35  C   UNK A   0     -10.417   7.177 128.039  0.00  0.00    +0.000 C 
BRANCH  33  36
ATOM     36  O   UNK A   0     -13.306   8.184 128.105  0.00  0.00    +0.000 OA
ATOM     37  H   UNK A   0     -14.104   8.115 128.656  0.00  0.00    +0.000 HD
ENDBRANCH  33  36
ENDBRANCH  27  30
ENDBRANCH   1  24
BRANCH   1  38
ATOM     38  C   UNK A   0      -4.449   5.916 131.647  0.00  0.00    +0.000 C 
ATOM     39  O   UNK A   0      -4.404   6.811 130.811  0.00  0.00    +0.000 OA
ATOM     40  N   UNK A   0      -3.512   6.031 132.637  0.00  0.00    +0.000 N 
ATOM     41  H   UNK A   0      -3.687   5.649 133.536  0.00  0.00    +0.000 HD
BRANCH  40  42
ATOM     42  C   UNK A   0      -2.335   6.892 132.579  0.00  0.00    +0.000 C 
ATOM     43  C   UNK A   0      -2.753   8.332 132.234  0.00  0.00    +0.000 C 
ATOM     44  C   UNK A   0      -1.658   6.709 133.929  0.00  0.00    +0.000 C 
ATOM     45  C   UNK A   0      -1.374   6.446 131.448  0.00  0.00    +0.000 C 
ENDBRANCH  40  42
ENDBRANCH   1  38
TORSDOF 9
ENDMDL
MODEL 9
REMARK VINA RESULT:      -8.6      2.885      8.893
REMARK  Name = CHEMBL213112
REMARK  14 active torsions:
REMARK  status: ('A' for Active; 'I' for Inactive)
REMARK    1  A    between atoms: CD1_1  and  CG_2
REMARK    2  A    between atoms: CG_2  and  CD2_3
REMARK    3  A    between atoms: CG_2  and  CB_4
REMARK    4  A    between atoms: CB_4  and  CA_5
REMARK    5  A    between atoms: C_9  and  C_10
REMARK    6  A    between atoms: N_21  and  C_22
REMARK    7  A    between atoms: C_22  and  C_23
REMARK    8  A    between atoms: C_22  and  C_30
REMARK    9  A    between atoms: N_25  and  C_26
REMARK   10  A    between atoms: C_26  and  C_27
REMARK   11  A    between atoms: C_26  and  C_28
REMARK   12  A    between atoms: C_26  and  C_29
REMARK   13  A    between atoms: C_33  and  N_34
REMARK   14  A    between atoms: C_37  and  O_38
REMARK                            x       y       z     vdW  Elec       q    Type
REMARK                         _______ _______ _______ _____ _____    ______ ____
ROOT
ATOM      1  C   UNK A   0      -7.213   2.365 129.906  0.00  0.00    +0.000 C 
ENDROOT
BRANCH   1   9
ATOM      2  CA  LEU A   2      -6.915   5.069 129.711  0.00  0.00    +0.000 C 
ATOM      3  C   LEU A   2      -7.255   5.974 130.942  0.00  0.00    +0.000 C 
ATOM      4  O   LEU A   2      -6.467   6.668 131.564  0.00  0.00    +0.000 OA
ATOM      5  N   UNK A   1      -8.583   6.001 131.250  0.00  0.00    +0.000 N 
ATOM      6  C   UNK A   1      -9.541   5.421 130.342  0.00  0.00    +0.000 C 
ATOM      7  C   UNK A   1      -9.138   3.986 130.049  0.00  0.00    +0.000 C 
ATOM      8  O   UNK A   1     -10.010   3.167 129.929  0.00  0.00    +0.000 OA
ATOM      9  N   LEU A   2      -7.753   3.792 129.864  0.00  0.00    +0.000 N 
ATOM     10  H   UNK A   1      -8.845   6.647 131.986  0.00  0.00    +0.000 HD
BRANCH   6  11
ATOM     11  C   UNK A   1     -10.993   5.406 130.844  0.00  0.00    +0.000 C 
ATOM     12  C   UNK A   1     -11.912   5.172 129.647  0.00  0.00    +0.000 C 
ATOM     13  C   UNK A   1     -12.393   6.561 129.366  0.00  0.00    +0.000 A 
ATOM     14  C   UNK A   1     -12.959   7.030 128.199  0.00  0.00    +0.000 A 
ATOM     15  C   UNK A   1     -13.364   8.365 128.150  0.00  0.00    +0.000 A 
ATOM     16  C   UNK A   1     -13.210   9.205 129.264  0.00  0.00    +0.000 A 
ATOM     17  C   UNK A   1     -12.616   8.729 130.433  0.00  0.00    +0.000 A 
ATOM     18  C   UNK A   1     -12.189   7.412 130.457  0.00  0.00    +0.000 A 
ATOM     19  C   UNK A   1     -11.511   6.684 131.569  0.00  0.00    +0.000 C 
ENDBRANCH   6  11
BRANCH   2  20
ATOM     20  CB  LEU A   2      -5.411   4.916 129.765  0.00  0.00    +0.000 C 
BRANCH  20  22
ATOM     21  CD1 LEU A   2      -3.936   3.156 128.528  0.00  0.00    +0.000 C 
ATOM     22  CG  LEU A   2      -4.643   4.524 128.477  0.00  0.00    +0.000 C 
ATOM     23  CD2 LEU A   2      -5.403   4.550 127.162  0.00  0.00    +0.000 C 
ENDBRANCH  20  22
ENDBRANCH   2  20
ENDBRANCH   1   9
BRANCH   1  24
ATOM     24  C   UNK A   0      -7.631   1.429 128.742  0.00  0.00    +0.000 A 
ATOM     25  C   UNK A   0      -7.672   0.043 128.892  0.00  0.00    +0.000 A 
ATOM     26  C   UNK A   0      -7.962  -0.814 127.858  0.00  0.00    +0.000 A 
ATOM     27  C   UNK A   0      -8.419  -0.317 126.659  0.00  0.00    +0.000 A 
ATOM     28  C   UNK A   0      -8.398   1.065 126.461  0.00  0.00    +0.000 A 
ATOM     29  C   UNK A   0      -7.939   1.927 127.461  0.00  0.00    +0.000 A 
BRANCH  27  30
ATOM     30  N   UNK A   0      -8.898  -1.174 125.705  0.00  0.00    +0.000 N 
ATOM     31  C   UNK A   0      -8.936  -0.738 124.331  0.00  0.00    +0.000 C 
ATOM     32  C   UNK A   0      -8.033  -1.650 123.509  0.00  0.00    +0.000 C 
ATOM     33  C   UNK A   0      -8.373  -3.125 123.732  0.00  0.00    +0.000 C 
ATOM     34  C   UNK A   0      -8.384  -3.508 125.214  0.00  0.00    +0.000 C 
ATOM     35  C   UNK A   0      -9.238  -2.549 126.034  0.00  0.00    +0.000 C 
BRANCH  33  36
ATOM     36  O   UNK A   0      -9.633  -3.433 123.132  0.00  0.00    +0.000 OA
ATOM     37  H   UNK A   0     -10.175  -2.626 123.122  0.00  0.00    +0.000 HD
ENDBRANCH  33  36
ENDBRANCH  27  30
ENDBRANCH   1  24
BRANCH   1  38
ATOM     38  C   UNK A   0      -7.188   1.589 131.328  0.00  0.00    +0.000 C 
ATOM     39  O   UNK A   0      -8.181   1.391 132.018  0.00  0.00    +0.000 OA
ATOM     40  N   UNK A   0      -6.035   1.070 131.852  0.00  0.00    +0.000 N 
ATOM     41  H   UNK A   0      -5.291   0.806 131.251  0.00  0.00    +0.000 HD
BRANCH  40  42
ATOM     42  C   UNK A   0      -5.866   0.631 133.233  0.00  0.00    +0.000 C 
ATOM     43  C   UNK A   0      -6.358   1.724 134.197  0.00  0.00    +0.000 C 
ATOM     44  C   UNK A   0      -6.608  -0.695 133.307  0.00  0.00    +0.000 C 
ATOM     45  C   UNK A   0      -4.369   0.410 133.568  0.00  0.00    +0.000 C 
ENDBRANCH  40  42
ENDBRANCH   1  38
TORSDOF 9
ENDMDL
