MODEL 1
REMARK VINA RESULT:     -11.0      0.000      0.000
REMARK  Name = CHEMBL3763342
REMARK  9 active torsions:
REMARK  status: ('A' for Active; 'I' for Inactive)
REMARK    1  A    between atoms: C_1  and  C_2
REMARK    2  A    between atoms: C_4  and  C_5
REMARK    3  A    between atoms: N_12  and  C_13
REMARK    4  A    between atoms: C_24  and  C_25
REMARK    5  A    between atoms: C_25  and  N_26
REMARK    6  A    between atoms: N_32  and  C_33
REMARK    7  A    between atoms: C_33  and  C_34
REMARK    8  A    between atoms: C_36  and  O_37
REMARK    9  A    between atoms: C_39  and  O_40
REMARK                            x       y       z     vdW  Elec       q    Type
REMARK                         _______ _______ _______ _____ _____    ______ ____
ROOT
ATOM      1  C   UNL     1      -6.942  -3.648 130.522  0.00  0.00    +0.000 C 
ATOM      2  C   UNL     1      -7.280  -2.195 130.371  0.00  0.00    +0.000 A 
ATOM      3  C   UNL     1      -7.262  -1.432 131.556  0.00  0.00    +0.000 A 
ATOM      4  C   UNL     1      -7.588  -0.064 131.558  0.00  0.00    +0.000 A 
ATOM      5  C   UNL     1      -7.853   0.540 130.342  0.00  0.00    +0.000 A 
ATOM      6  C   UNL     1      -7.898  -0.199 129.162  0.00  0.00    +0.000 A 
ATOM      7  C   UNL     1      -7.641  -1.582 129.144  0.00  0.00    +0.000 A 
ENDROOT
BRANCH   4   8
ATOM      8  C   UNL     1      -7.532   0.721 132.829  0.00  0.00    +0.000 C 
ATOM      9  O   UNL     1      -6.852   0.208 133.719  0.00  0.00    +0.000 OA
ATOM     10  N   UNL     1      -8.087   2.033 132.853  0.00  0.00    +0.000 N 
ATOM     11  C   UNL     1      -9.559   2.273 132.654  0.00  0.00    +0.000 C 
ATOM     12  C   UNL     1      -9.882   3.297 131.596  0.00  0.00    +0.000 A 
ATOM     13  C   UNL     1     -10.931   3.374 130.627  0.00  0.00    +0.000 A 
ATOM     14  N   UNL     1     -10.885   4.485 129.873  0.00  0.00    +0.000 NA
ATOM     15  N   UNL     1      -9.818   5.142 130.358  0.00  0.00    +0.000 N 
ATOM     16  C   UNL     1      -9.396   6.427 129.835  0.00  0.00    +0.000 C 
ATOM     17  C   UNL     1      -9.185   4.454 131.364  0.00  0.00    +0.000 A 
ATOM     18  N   UNL     1      -8.084   4.963 131.924  0.00  0.00    +0.000 N 
ATOM     19  C   UNL     1      -7.252   4.412 132.909  0.00  0.00    +0.000 A 
ATOM     20  C   UNL     1      -6.244   5.311 133.351  0.00  0.00    +0.000 A 
ATOM     21  C   UNL     1      -5.321   4.976 134.326  0.00  0.00    +0.000 A 
ATOM     22  C   UNL     1      -5.401   3.727 134.903  0.00  0.00    +0.000 A 
ATOM     23  C   UNL     1      -6.363   2.814 134.460  0.00  0.00    +0.000 A 
ATOM     24  C   UNL     1      -7.289   3.102 133.436  0.00  0.00    +0.000 A 
ATOM     25  H   UNL     1      -7.783   5.891 131.653  0.00  0.00    +0.000 HD
ENDBRANCH   4   8
BRANCH   7  26
ATOM     26  C   UNL     1      -7.772  -2.242 127.770  0.00  0.00    +0.000 C 
BRANCH  26  27
ATOM     27  N   UNL     1      -7.513  -1.379 126.657  0.00  0.00    +0.000 N 
ATOM     28  C   UNL     1      -8.437  -1.059 125.704  0.00  0.00    +0.000 C 
ATOM     29  O   UNL     1      -9.448  -1.671 125.499  0.00  0.00    +0.000 OA
ATOM     30  N   UNL     1      -8.089   0.211 125.192  0.00  0.00    +0.000 N 
ATOM     31  C   UNL     1      -9.240   0.964 124.518  0.00  0.00    +0.000 C 
ATOM     32  C   UNL     1      -8.890   2.452 124.426  0.00  0.00    +0.000 C 
ATOM     33  N   UNL     1      -7.545   2.759 123.864  0.00  0.00    +0.000 NA
ATOM     34  C   UNL     1      -6.478   2.165 124.716  0.00  0.00    +0.000 C 
ATOM     35  C   UNL     1      -6.562   0.644 124.879  0.00  0.00    +0.000 C 
ATOM     36  H   UNL     1      -7.137  -0.494 126.878  0.00  0.00    +0.000 HD
BRANCH  33  37
ATOM     37  C   UNL     1      -7.390   2.640 122.350  0.00  0.00    +0.000 C 
BRANCH  37  38
ATOM     38  C   UNL     1      -6.576   3.648 121.513  0.00  0.00    +0.000 A 
ATOM     39  C   UNL     1      -5.473   4.404 121.781  0.00  0.00    +0.000 A 
ATOM     40  C   UNL     1      -4.979   5.308 120.761  0.00  0.00    +0.000 A 
ATOM     41  C   UNL     1      -5.526   5.484 119.473  0.00  0.00    +0.000 A 
ATOM     42  C   UNL     1      -6.554   4.691 119.179  0.00  0.00    +0.000 A 
ATOM     43  C   UNL     1      -6.952   3.896 120.226  0.00  0.00    +0.000 A 
BRANCH  40  44
ATOM     44  O   UNL     1      -3.872   6.060 121.010  0.00  0.00    +0.000 OA
ATOM     45  H   UNL     1      -3.141   5.430 121.059  0.00  0.00    +0.000 HD
ENDBRANCH  40  44
BRANCH  42  46
ATOM     46  O   UNL     1      -7.203   4.552 118.003  0.00  0.00    +0.000 OA
ATOM     47  H   UNL     1      -8.078   4.965 117.981  0.00  0.00    +0.000 HD
ENDBRANCH  42  46
ENDBRANCH  37  38
ENDBRANCH  33  37
ENDBRANCH  26  27
ENDBRANCH   7  26
TORSDOF 7
ENDMDL
MODEL 2
REMARK VINA RESULT:     -10.5      2.011      2.617
REMARK  Name = CHEMBL3763342
REMARK  9 active torsions:
REMARK  status: ('A' for Active; 'I' for Inactive)
REMARK    1  A    between atoms: C_1  and  C_2
REMARK    2  A    between atoms: C_4  and  C_5
REMARK    3  A    between atoms: N_12  and  C_13
REMARK    4  A    between atoms: C_24  and  C_25
REMARK    5  A    between atoms: C_25  and  N_26
REMARK    6  A    between atoms: N_32  and  C_33
REMARK    7  A    between atoms: C_33  and  C_34
REMARK    8  A    between atoms: C_36  and  O_37
REMARK    9  A    between atoms: C_39  and  O_40
REMARK                            x       y       z     vdW  Elec       q    Type
REMARK                         _______ _______ _______ _____ _____    ______ ____
ROOT
ATOM      1  C   UNL     1      -9.711  -4.352 128.210  0.00  0.00    +0.000 C 
ATOM      2  C   UNL     1      -8.517  -3.449 128.290  0.00  0.00    +0.000 A 
ATOM      3  C   UNL     1      -8.137  -3.046 129.587  0.00  0.00    +0.000 A 
ATOM      4  C   UNL     1      -7.053  -2.177 129.801  0.00  0.00    +0.000 A 
ATOM      5  C   UNL     1      -6.312  -1.783 128.701  0.00  0.00    +0.000 A 
ATOM      6  C   UNL     1      -6.683  -2.150 127.410  0.00  0.00    +0.000 A 
ATOM      7  C   UNL     1      -7.803  -2.965 127.165  0.00  0.00    +0.000 A 
ENDROOT
BRANCH   4   8
ATOM      8  C   UNL     1      -6.659  -1.793 131.191  0.00  0.00    +0.000 C 
ATOM      9  O   UNL     1      -6.164  -2.706 131.855  0.00  0.00    +0.000 OA
ATOM     10  N   UNL     1      -6.708  -0.420 131.567  0.00  0.00    +0.000 N 
ATOM     11  C   UNL     1      -8.005   0.340 131.619  0.00  0.00    +0.000 C 
ATOM     12  C   UNL     1      -7.993   1.640 130.856  0.00  0.00    +0.000 A 
ATOM     13  C   UNL     1      -8.992   2.298 130.072  0.00  0.00    +0.000 A 
ATOM     14  N   UNL     1      -8.589   3.480 129.572  0.00  0.00    +0.000 NA
ATOM     15  N   UNL     1      -7.336   3.601 130.042  0.00  0.00    +0.000 N 
ATOM     16  C   UNL     1      -6.510   4.757 129.753  0.00  0.00    +0.000 C 
ATOM     17  C   UNL     1      -6.942   2.516 130.786  0.00  0.00    +0.000 A 
ATOM     18  N   UNL     1      -5.706   2.473 131.291  0.00  0.00    +0.000 N 
ATOM     19  C   UNL     1      -5.078   1.451 132.017  0.00  0.00    +0.000 A 
ATOM     20  C   UNL     1      -3.796   1.824 132.504  0.00  0.00    +0.000 A 
ATOM     21  C   UNL     1      -3.007   0.970 133.255  0.00  0.00    +0.000 A 
ATOM     22  C   UNL     1      -3.497  -0.281 133.558  0.00  0.00    +0.000 A 
ATOM     23  C   UNL     1      -4.743  -0.681 133.062  0.00  0.00    +0.000 A 
ATOM     24  C   UNL     1      -5.553   0.143 132.254  0.00  0.00    +0.000 A 
ATOM     25  H   UNL     1      -5.108   3.283 131.187  0.00  0.00    +0.000 HD
ENDBRANCH   4   8
BRANCH   7  26
ATOM     26  C   UNL     1      -8.088  -3.237 125.687  0.00  0.00    +0.000 C 
BRANCH  26  27
ATOM     27  N   UNL     1      -7.869  -2.123 124.813  0.00  0.00    +0.000 N 
ATOM     28  C   UNL     1      -8.823  -1.590 123.997  0.00  0.00    +0.000 C 
ATOM     29  O   UNL     1      -9.838  -2.145 123.677  0.00  0.00    +0.000 OA
ATOM     30  N   UNL     1      -8.497  -0.229 123.803  0.00  0.00    +0.000 N 
ATOM     31  C   UNL     1      -9.672   0.653 123.371  0.00  0.00    +0.000 C 
ATOM     32  C   UNL     1      -9.332   2.122 123.637  0.00  0.00    +0.000 C 
ATOM     33  N   UNL     1      -8.007   2.574 123.128  0.00  0.00    +0.000 NA
ATOM     34  C   UNL     1      -6.911   1.801 123.776  0.00  0.00    +0.000 C 
ATOM     35  C   UNL     1      -6.983   0.286 123.561  0.00  0.00    +0.000 C 
ATOM     36  H   UNL     1      -7.489  -1.315 125.235  0.00  0.00    +0.000 HD
BRANCH  33  37
ATOM     37  C   UNL     1      -7.900   2.833 121.628  0.00  0.00    +0.000 C 
BRANCH  37  38
ATOM     38  C   UNL     1      -6.869   3.807 121.021  0.00  0.00    +0.000 A 
ATOM     39  C   UNL     1      -5.764   4.425 121.525  0.00  0.00    +0.000 A 
ATOM     40  C   UNL     1      -5.025   5.342 120.679  0.00  0.00    +0.000 A 
ATOM     41  C   UNL     1      -5.330   5.662 119.340  0.00  0.00    +0.000 A 
ATOM     42  C   UNL     1      -6.362   5.001 118.818  0.00  0.00    +0.000 A 
ATOM     43  C   UNL     1      -7.000   4.181 119.716  0.00  0.00    +0.000 A 
BRANCH  40  44
ATOM     44  O   UNL     1      -3.913   5.957 121.165  0.00  0.00    +0.000 OA
ATOM     45  H   UNL     1      -3.400   5.257 121.591  0.00  0.00    +0.000 HD
ENDBRANCH  40  44
BRANCH  42  46
ATOM     46  O   UNL     1      -6.814   5.011 117.546  0.00  0.00    +0.000 OA
ATOM     47  H   UNL     1      -6.503   5.761 117.019  0.00  0.00    +0.000 HD
ENDBRANCH  42  46
ENDBRANCH  37  38
ENDBRANCH  33  37
ENDBRANCH  26  27
ENDBRANCH   7  26
TORSDOF 7
ENDMDL
MODEL 3
REMARK VINA RESULT:     -10.4      3.228      5.073
REMARK  Name = CHEMBL3763342
REMARK  9 active torsions:
REMARK  status: ('A' for Active; 'I' for Inactive)
REMARK    1  A    between atoms: C_1  and  C_2
REMARK    2  A    between atoms: C_4  and  C_5
REMARK    3  A    between atoms: N_12  and  C_13
REMARK    4  A    between atoms: C_24  and  C_25
REMARK    5  A    between atoms: C_25  and  N_26
REMARK    6  A    between atoms: N_32  and  C_33
REMARK    7  A    between atoms: C_33  and  C_34
REMARK    8  A    between atoms: C_36  and  O_37
REMARK    9  A    between atoms: C_39  and  O_40
REMARK                            x       y       z     vdW  Elec       q    Type
REMARK                         _______ _______ _______ _____ _____    ______ ____
ROOT
ATOM      1  C   UNL     1      -4.345   7.918 130.227  0.00  0.00    +0.000 C 
ATOM      2  C   UNL     1      -3.986   6.520 130.632  0.00  0.00    +0.000 A 
ATOM      3  C   UNL     1      -4.442   6.110 131.902  0.00  0.00    +0.000 A 
ATOM      4  C   UNL     1      -4.149   4.834 132.415  0.00  0.00    +0.000 A 
ATOM      5  C   UNL     1      -3.461   3.952 131.602  0.00  0.00    +0.000 A 
ATOM      6  C   UNL     1      -2.982   4.342 130.354  0.00  0.00    +0.000 A 
ATOM      7  C   UNL     1      -3.204   5.635 129.846  0.00  0.00    +0.000 A 
ENDROOT
BRANCH   4   8
ATOM      8  C   UNL     1      -4.673   4.423 133.753  0.00  0.00    +0.000 C 
ATOM      9  O   UNL     1      -3.814   4.319 134.631  0.00  0.00    +0.000 OA
ATOM     10  N   UNL     1      -6.082   4.367 133.954  0.00  0.00    +0.000 N 
ATOM     11  C   UNL     1      -6.950   3.393 133.205  0.00  0.00    +0.000 C 
ATOM     12  C   UNL     1      -8.135   4.021 132.518  0.00  0.00    +0.000 A 
ATOM     13  C   UNL     1      -8.771   3.747 131.266  0.00  0.00    +0.000 A 
ATOM     14  N   UNL     1      -9.840   4.526 131.025  0.00  0.00    +0.000 NA
ATOM     15  N   UNL     1      -9.913   5.295 132.125  0.00  0.00    +0.000 N 
ATOM     16  C   UNL     1     -10.948   6.295 132.301  0.00  0.00    +0.000 C 
ATOM     17  C   UNL     1      -8.903   5.039 133.019  0.00  0.00    +0.000 A 
ATOM     18  N   UNL     1      -8.820   5.750 134.146  0.00  0.00    +0.000 N 
ATOM     19  C   UNL     1      -7.850   5.704 135.158  0.00  0.00    +0.000 A 
ATOM     20  C   UNL     1      -8.172   6.523 136.274  0.00  0.00    +0.000 A 
ATOM     21  C   UNL     1      -7.357   6.616 137.389  0.00  0.00    +0.000 A 
ATOM     22  C   UNL     1      -6.202   5.867 137.422  0.00  0.00    +0.000 A 
ATOM     23  C   UNL     1      -5.848   5.080 136.321  0.00  0.00    +0.000 A 
ATOM     24  C   UNL     1      -6.628   4.996 135.149  0.00  0.00    +0.000 A 
ATOM     25  H   UNL     1      -9.556   6.411 134.361  0.00  0.00    +0.000 HD
ENDBRANCH   4   8
BRANCH   7  26
ATOM     26  C   UNL     1      -2.574   5.905 128.479  0.00  0.00    +0.000 C 
BRANCH  26  27
ATOM     27  N   UNL     1      -3.293   5.368 127.363  0.00  0.00    +0.000 N 
ATOM     28  C   UNL     1      -3.212   4.068 126.954  0.00  0.00    +0.000 C 
ATOM     29  O   UNL     1      -2.335   3.308 127.259  0.00  0.00    +0.000 OA
ATOM     30  N   UNL     1      -4.435   3.751 126.321  0.00  0.00    +0.000 N 
ATOM     31  C   UNL     1      -4.751   2.254 126.259  0.00  0.00    +0.000 C 
ATOM     32  C   UNL     1      -6.247   2.059 125.992  0.00  0.00    +0.000 C 
ATOM     33  N   UNL     1      -6.802   2.850 124.858  0.00  0.00    +0.000 NA
ATOM     34  C   UNL     1      -6.642   4.308 125.115  0.00  0.00    +0.000 C 
ATOM     35  C   UNL     1      -5.195   4.768 125.319  0.00  0.00    +0.000 C 
ATOM     36  H   UNL     1      -4.268   5.517 127.369  0.00  0.00    +0.000 HD
BRANCH  33  37
ATOM     37  C   UNL     1      -6.495   2.341 123.452  0.00  0.00    +0.000 C 
BRANCH  37  38
ATOM     38  C   UNL     1      -7.034   3.029 122.181  0.00  0.00    +0.000 A 
ATOM     39  C   UNL     1      -8.281   3.148 121.644  0.00  0.00    +0.000 A 
ATOM     40  C   UNL     1      -8.436   3.837 120.377  0.00  0.00    +0.000 A 
ATOM     41  C   UNL     1      -7.402   4.431 119.625  0.00  0.00    +0.000 A 
ATOM     42  C   UNL     1      -6.195   4.388 120.184  0.00  0.00    +0.000 A 
ATOM     43  C   UNL     1      -6.161   3.690 121.366  0.00  0.00    +0.000 A 
BRANCH  40  44
ATOM     44  O   UNL     1      -9.676   3.972 119.834  0.00  0.00    +0.000 OA
ATOM     45  H   UNL     1      -9.703   4.871 119.480  0.00  0.00    +0.000 HD
ENDBRANCH  40  44
BRANCH  42  46
ATOM     46  O   UNL     1      -5.048   4.962 119.762  0.00  0.00    +0.000 OA
ATOM     47  H   UNL     1      -4.323   4.921 120.402  0.00  0.00    +0.000 HD
ENDBRANCH  42  46
ENDBRANCH  37  38
ENDBRANCH  33  37
ENDBRANCH  26  27
ENDBRANCH   7  26
TORSDOF 7
ENDMDL
MODEL 4
REMARK VINA RESULT:     -10.3      2.276      3.629
REMARK  Name = CHEMBL3763342
REMARK  9 active torsions:
REMARK  status: ('A' for Active; 'I' for Inactive)
REMARK    1  A    between atoms: C_1  and  C_2
REMARK    2  A    between atoms: C_4  and  C_5
REMARK    3  A    between atoms: N_12  and  C_13
REMARK    4  A    between atoms: C_24  and  C_25
REMARK    5  A    between atoms: C_25  and  N_26
REMARK    6  A    between atoms: N_32  and  C_33
REMARK    7  A    between atoms: C_33  and  C_34
REMARK    8  A    between atoms: C_36  and  O_37
REMARK    9  A    between atoms: C_39  and  O_40
REMARK                            x       y       z     vdW  Elec       q    Type
REMARK                         _______ _______ _______ _____ _____    ______ ____
ROOT
ATOM      1  C   UNL     1      -9.831  -4.374 128.408  0.00  0.00    +0.000 C 
ATOM      2  C   UNL     1      -8.561  -3.584 128.518  0.00  0.00    +0.000 A 
ATOM      3  C   UNL     1      -7.946  -3.582 129.787  0.00  0.00    +0.000 A 
ATOM      4  C   UNL     1      -6.767  -2.857 130.034  0.00  0.00    +0.000 A 
ATOM      5  C   UNL     1      -6.175  -2.202 128.968  0.00  0.00    +0.000 A 
ATOM      6  C   UNL     1      -6.777  -2.172 127.713  0.00  0.00    +0.000 A 
ATOM      7  C   UNL     1      -7.992  -2.835 127.458  0.00  0.00    +0.000 A 
ENDROOT
BRANCH   4   8
ATOM      8  C   UNL     1      -6.126  -2.899 131.383  0.00  0.00    +0.000 C 
ATOM      9  O   UNL     1      -5.461  -3.912 131.605  0.00  0.00    +0.000 OA
ATOM     10  N   UNL     1      -6.172  -1.736 132.205  0.00  0.00    +0.000 N 
ATOM     11  C   UNL     1      -7.472  -1.190 132.730  0.00  0.00    +0.000 C 
ATOM     12  C   UNL     1      -7.680   0.279 132.462  0.00  0.00    +0.000 A 
ATOM     13  C   UNL     1      -8.849   1.034 132.128  0.00  0.00    +0.000 A 
ATOM     14  N   UNL     1      -8.617   2.352 131.998  0.00  0.00    +0.000 NA
ATOM     15  N   UNL     1      -7.303   2.460 132.261  0.00  0.00    +0.000 N 
ATOM     16  C   UNL     1      -6.614   3.735 132.246  0.00  0.00    +0.000 C 
ATOM     17  C   UNL     1      -6.712   1.247 132.516  0.00  0.00    +0.000 A 
ATOM     18  N   UNL     1      -5.401   1.187 132.760  0.00  0.00    +0.000 N 
ATOM     19  C   UNL     1      -4.587   0.067 132.979  0.00  0.00    +0.000 A 
ATOM     20  C   UNL     1      -3.256   0.409 133.339  0.00  0.00    +0.000 A 
ATOM     21  C   UNL     1      -2.289  -0.544 133.611  0.00  0.00    +0.000 A 
ATOM     22  C   UNL     1      -2.643  -1.874 133.551  0.00  0.00    +0.000 A 
ATOM     23  C   UNL     1      -3.938  -2.235 133.167  0.00  0.00    +0.000 A 
ATOM     24  C   UNL     1      -4.936  -1.294 132.836  0.00  0.00    +0.000 A 
ATOM     25  H   UNL     1      -4.879   2.051 132.836  0.00  0.00    +0.000 HD
ENDBRANCH   4   8
BRANCH   7  26
ATOM     26  C   UNL     1      -8.529  -2.665 126.036  0.00  0.00    +0.000 C 
BRANCH  26  27
ATOM     27  N   UNL     1      -7.958  -1.579 125.298  0.00  0.00    +0.000 N 
ATOM     28  C   UNL     1      -8.458  -1.106 124.120  0.00  0.00    +0.000 C 
ATOM     29  O   UNL     1      -9.221  -1.703 123.411  0.00  0.00    +0.000 OA
ATOM     30  N   UNL     1      -8.095   0.256 124.026  0.00  0.00    +0.000 N 
ATOM     31  C   UNL     1      -8.966   1.084 123.078  0.00  0.00    +0.000 C 
ATOM     32  C   UNL     1      -8.795   2.573 123.398  0.00  0.00    +0.000 C 
ATOM     33  N   UNL     1      -7.387   3.045 123.506  0.00  0.00    +0.000 NA
ATOM     34  C   UNL     1      -6.682   2.331 124.606  0.00  0.00    +0.000 C 
ATOM     35  C   UNL     1      -6.635   0.807 124.454  0.00  0.00    +0.000 C 
ATOM     36  H   UNL     1      -7.813  -0.745 125.805  0.00  0.00    +0.000 HD
BRANCH  33  37
ATOM     37  C   UNL     1      -6.630   3.251 122.197  0.00  0.00    +0.000 C 
BRANCH  37  38
ATOM     38  C   UNL     1      -7.311   3.766 120.912  0.00  0.00    +0.000 A 
ATOM     39  C   UNL     1      -8.604   3.765 120.480  0.00  0.00    +0.000 A 
ATOM     40  C   UNL     1      -8.904   4.299 119.165  0.00  0.00    +0.000 A 
ATOM     41  C   UNL     1      -7.972   4.851 118.262  0.00  0.00    +0.000 A 
ATOM     42  C   UNL     1      -6.721   4.927 118.711  0.00  0.00    +0.000 A 
ATOM     43  C   UNL     1      -6.549   4.369 119.955  0.00  0.00    +0.000 A 
BRANCH  40  44
ATOM     44  O   UNL     1     -10.192   4.316 118.726  0.00  0.00    +0.000 OA
ATOM     45  H   UNL     1     -10.496   3.400 118.792  0.00  0.00    +0.000 HD
ENDBRANCH  40  44
BRANCH  42  46
ATOM     46  O   UNL     1      -5.648   5.501 118.128  0.00  0.00    +0.000 OA
ATOM     47  H   UNL     1      -5.623   5.410 117.164  0.00  0.00    +0.000 HD
ENDBRANCH  42  46
ENDBRANCH  37  38
ENDBRANCH  33  37
ENDBRANCH  26  27
ENDBRANCH   7  26
TORSDOF 7
ENDMDL
MODEL 5
REMARK VINA RESULT:      -9.9      3.774      6.497
REMARK  Name = CHEMBL3763342
REMARK  9 active torsions:
REMARK  status: ('A' for Active; 'I' for Inactive)
REMARK    1  A    between atoms: C_1  and  C_2
REMARK    2  A    between atoms: C_4  and  C_5
REMARK    3  A    between atoms: N_12  and  C_13
REMARK    4  A    between atoms: C_24  and  C_25
REMARK    5  A    between atoms: C_25  and  N_26
REMARK    6  A    between atoms: N_32  and  C_33
REMARK    7  A    between atoms: C_33  and  C_34
REMARK    8  A    between atoms: C_36  and  O_37
REMARK    9  A    between atoms: C_39  and  O_40
REMARK                            x       y       z     vdW  Elec       q    Type
REMARK                         _______ _______ _______ _____ _____    ______ ____
ROOT
ATOM      1  C   UNL     1      -4.141   8.435 129.963  0.00  0.00    +0.000 C 
ATOM      2  C   UNL     1      -3.560   7.233 130.645  0.00  0.00    +0.000 A 
ATOM      3  C   UNL     1      -3.838   7.113 132.022  0.00  0.00    +0.000 A 
ATOM      4  C   UNL     1      -3.329   6.048 132.786  0.00  0.00    +0.000 A 
ATOM      5  C   UNL     1      -2.606   5.067 132.131  0.00  0.00    +0.000 A 
ATOM      6  C   UNL     1      -2.300   5.179 130.777  0.00  0.00    +0.000 A 
ATOM      7  C   UNL     1      -2.742   6.268 130.004  0.00  0.00    +0.000 A 
ENDROOT
BRANCH   4   8
ATOM      8  C   UNL     1      -3.667   5.935 134.238  0.00  0.00    +0.000 C 
ATOM      9  O   UNL     1      -3.080   6.738 134.966  0.00  0.00    +0.000 OA
ATOM     10  N   UNL     1      -4.733   5.076 134.633  0.00  0.00    +0.000 N 
ATOM     11  C   UNL     1      -4.663   3.586 134.432  0.00  0.00    +0.000 C 
ATOM     12  C   UNL     1      -5.858   3.001 133.725  0.00  0.00    +0.000 A 
ATOM     13  C   UNL     1      -5.981   1.945 132.766  0.00  0.00    +0.000 A 
ATOM     14  N   UNL     1      -7.250   1.701 132.396  0.00  0.00    +0.000 NA
ATOM     15  N   UNL     1      -7.957   2.585 133.121  0.00  0.00    +0.000 N 
ATOM     16  C   UNL     1      -9.402   2.667 133.044  0.00  0.00    +0.000 C 
ATOM     17  C   UNL     1      -7.161   3.387 133.901  0.00  0.00    +0.000 A 
ATOM     18  N   UNL     1      -7.717   4.340 134.654  0.00  0.00    +0.000 N 
ATOM     19  C   UNL     1      -7.102   5.302 135.467  0.00  0.00    +0.000 A 
ATOM     20  C   UNL     1      -8.031   6.067 136.223  0.00  0.00    +0.000 A 
ATOM     21  C   UNL     1      -7.638   7.063 137.100  0.00  0.00    +0.000 A 
ATOM     22  C   UNL     1      -6.292   7.305 137.258  0.00  0.00    +0.000 A 
ATOM     23  C   UNL     1      -5.360   6.587 136.500  0.00  0.00    +0.000 A 
ATOM     24  C   UNL     1      -5.724   5.599 135.563  0.00  0.00    +0.000 A 
ATOM     25  H   UNL     1      -8.726   4.399 134.700  0.00  0.00    +0.000 HD
ENDBRANCH   4   8
BRANCH   7  26
ATOM     26  C   UNL     1      -2.282   6.249 128.545  0.00  0.00    +0.000 C 
BRANCH  26  27
ATOM     27  N   UNL     1      -3.186   5.615 127.633  0.00  0.00    +0.000 N 
ATOM     28  C   UNL     1      -3.024   4.349 127.151  0.00  0.00    +0.000 C 
ATOM     29  O   UNL     1      -1.994   3.734 127.173  0.00  0.00    +0.000 OA
ATOM     30  N   UNL     1      -4.310   3.848 126.848  0.00  0.00    +0.000 N 
ATOM     31  C   UNL     1      -4.403   2.320 126.795  0.00  0.00    +0.000 C 
ATOM     32  C   UNL     1      -5.868   1.893 126.924  0.00  0.00    +0.000 C 
ATOM     33  N   UNL     1      -6.821   2.597 126.019  0.00  0.00    +0.000 NA
ATOM     34  C   UNL     1      -6.818   4.059 126.300  0.00  0.00    +0.000 C 
ATOM     35  C   UNL     1      -5.456   4.741 126.137  0.00  0.00    +0.000 C 
ATOM     36  H   UNL     1      -4.135   5.608 127.905  0.00  0.00    +0.000 HD
BRANCH  33  37
ATOM     37  C   UNL     1      -6.832   2.156 124.558  0.00  0.00    +0.000 C 
BRANCH  37  38
ATOM     38  C   UNL     1      -7.420   0.806 124.099  0.00  0.00    +0.000 A 
ATOM     39  C   UNL     1      -6.970  -0.479 124.176  0.00  0.00    +0.000 A 
ATOM     40  C   UNL     1      -7.768  -1.537 123.586  0.00  0.00    +0.000 A 
ATOM     41  C   UNL     1      -9.008  -1.375 122.935  0.00  0.00    +0.000 A 
ATOM     42  C   UNL     1      -9.489  -0.134 122.927  0.00  0.00    +0.000 A 
ATOM     43  C   UNL     1      -8.640   0.788 123.489  0.00  0.00    +0.000 A 
BRANCH  40  44
ATOM     44  O   UNL     1      -7.337  -2.825 123.665  0.00  0.00    +0.000 OA
ATOM     45  H   UNL     1      -6.407  -2.800 123.403  0.00  0.00    +0.000 HD
ENDBRANCH  40  44
BRANCH  42  46
ATOM     46  O   UNL     1     -10.687   0.305 122.485  0.00  0.00    +0.000 OA
ATOM     47  H   UNL     1     -10.760   0.356 121.521  0.00  0.00    +0.000 HD
ENDBRANCH  42  46
ENDBRANCH  37  38
ENDBRANCH  33  37
ENDBRANCH  26  27
ENDBRANCH   7  26
TORSDOF 7
ENDMDL
MODEL 6
REMARK VINA RESULT:      -9.8      3.492      8.763
REMARK  Name = CHEMBL3763342
REMARK  9 active torsions:
REMARK  status: ('A' for Active; 'I' for Inactive)
REMARK    1  A    between atoms: C_1  and  C_2
REMARK    2  A    between atoms: C_4  and  C_5
REMARK    3  A    between atoms: N_12  and  C_13
REMARK    4  A    between atoms: C_24  and  C_25
REMARK    5  A    between atoms: C_25  and  N_26
REMARK    6  A    between atoms: N_32  and  C_33
REMARK    7  A    between atoms: C_33  and  C_34
REMARK    8  A    between atoms: C_36  and  O_37
REMARK    9  A    between atoms: C_39  and  O_40
REMARK                            x       y       z     vdW  Elec       q    Type
REMARK                         _______ _______ _______ _____ _____    ______ ____
ROOT
ATOM      1  C   UNL     1      -3.961  -0.958 132.113  0.00  0.00    +0.000 C 
ATOM      2  C   UNL     1      -4.988  -0.638 131.068  0.00  0.00    +0.000 A 
ATOM      3  C   UNL     1      -4.807  -1.261 129.816  0.00  0.00    +0.000 A 
ATOM      4  C   UNL     1      -5.682  -1.023 128.741  0.00  0.00    +0.000 A 
ATOM      5  C   UNL     1      -6.782  -0.214 128.968  0.00  0.00    +0.000 A 
ATOM      6  C   UNL     1      -6.966   0.429 130.189  0.00  0.00    +0.000 A 
ATOM      7  C   UNL     1      -6.069   0.259 131.260  0.00  0.00    +0.000 A 
ENDROOT
BRANCH   4   8
ATOM      8  C   UNL     1      -5.478  -1.722 127.436  0.00  0.00    +0.000 C 
ATOM      9  O   UNL     1      -5.216  -2.922 127.532  0.00  0.00    +0.000 OA
ATOM     10  N   UNL     1      -5.772  -1.026 126.228  0.00  0.00    +0.000 N 
ATOM     11  C   UNL     1      -4.997   0.193 125.809  0.00  0.00    +0.000 C 
ATOM     12  C   UNL     1      -5.855   1.383 125.464  0.00  0.00    +0.000 A 
ATOM     13  C   UNL     1      -5.678   2.786 125.684  0.00  0.00    +0.000 A 
ATOM     14  N   UNL     1      -6.676   3.537 125.188  0.00  0.00    +0.000 NA
ATOM     15  N   UNL     1      -7.497   2.629 124.632  0.00  0.00    +0.000 N 
ATOM     16  C   UNL     1      -8.723   3.006 123.957  0.00  0.00    +0.000 C 
ATOM     17  C   UNL     1      -7.052   1.341 124.800  0.00  0.00    +0.000 A 
ATOM     18  N   UNL     1      -7.780   0.323 124.332  0.00  0.00    +0.000 N 
ATOM     19  C   UNL     1      -7.554  -1.056 124.444  0.00  0.00    +0.000 A 
ATOM     20  C   UNL     1      -8.483  -1.833 123.700  0.00  0.00    +0.000 A 
ATOM     21  C   UNL     1      -8.436  -3.215 123.661  0.00  0.00    +0.000 A 
ATOM     22  C   UNL     1      -7.434  -3.858 124.354  0.00  0.00    +0.000 A 
ATOM     23  C   UNL     1      -6.529  -3.116 125.121  0.00  0.00    +0.000 A 
ATOM     24  C   UNL     1      -6.575  -1.710 125.223  0.00  0.00    +0.000 A 
ATOM     25  H   UNL     1      -8.608   0.526 123.787  0.00  0.00    +0.000 HD
ENDBRANCH   4   8
BRANCH   7  26
ATOM     26  C   UNL     1      -6.404   1.071 132.513  0.00  0.00    +0.000 C 
BRANCH  26  27
ATOM     27  N   UNL     1      -7.496   1.986 132.368  0.00  0.00    +0.000 N 
ATOM     28  C   UNL     1      -7.350   3.328 132.168  0.00  0.00    +0.000 C 
ATOM     29  O   UNL     1      -6.346   3.947 132.388  0.00  0.00    +0.000 OA
ATOM     30  N   UNL     1      -8.491   3.774 131.464  0.00  0.00    +0.000 N 
ATOM     31  C   UNL     1      -8.297   5.089 130.704  0.00  0.00    +0.000 C 
ATOM     32  C   UNL     1      -9.391   5.230 129.642  0.00  0.00    +0.000 C 
ATOM     33  N   UNL     1     -10.782   4.999 130.123  0.00  0.00    +0.000 NA
ATOM     34  C   UNL     1     -10.928   3.613 130.645  0.00  0.00    +0.000 C 
ATOM     35  C   UNL     1      -9.987   3.262 131.803  0.00  0.00    +0.000 C 
ATOM     36  H   UNL     1      -8.164   1.751 131.681  0.00  0.00    +0.000 HD
BRANCH  33  37
ATOM     37  C   UNL     1     -11.427   6.128 130.923  0.00  0.00    +0.000 C 
BRANCH  37  38
ATOM     38  C   UNL     1     -12.096   7.347 130.253  0.00  0.00    +0.000 A 
ATOM     39  C   UNL     1     -12.453   8.580 130.711  0.00  0.00    +0.000 A 
ATOM     40  C   UNL     1     -13.125   9.496 129.809  0.00  0.00    +0.000 A 
ATOM     41  C   UNL     1     -13.444   9.244 128.459  0.00  0.00    +0.000 A 
ATOM     42  C   UNL     1     -13.025   8.072 127.985  0.00  0.00    +0.000 A 
ATOM     43  C   UNL     1     -12.426   7.279 128.932  0.00  0.00    +0.000 A 
BRANCH  40  44
ATOM     44  O   UNL     1     -13.478  10.734 130.249  0.00  0.00    +0.000 OA
ATOM     45  H   UNL     1     -12.647  11.219 130.340  0.00  0.00    +0.000 HD
ENDBRANCH  40  44
BRANCH  42  46
ATOM     46  O   UNL     1     -13.082   7.605 126.719  0.00  0.00    +0.000 OA
ATOM     47  H   UNL     1     -12.255   7.215 126.402  0.00  0.00    +0.000 HD
ENDBRANCH  42  46
ENDBRANCH  37  38
ENDBRANCH  33  37
ENDBRANCH  26  27
ENDBRANCH   7  26
TORSDOF 7
ENDMDL
MODEL 7
REMARK VINA RESULT:      -9.7      4.073     11.339
REMARK  Name = CHEMBL3763342
REMARK  9 active torsions:
REMARK  status: ('A' for Active; 'I' for Inactive)
REMARK    1  A    between atoms: C_1  and  C_2
REMARK    2  A    between atoms: C_4  and  C_5
REMARK    3  A    between atoms: N_12  and  C_13
REMARK    4  A    between atoms: C_24  and  C_25
REMARK    5  A    between atoms: C_25  and  N_26
REMARK    6  A    between atoms: N_32  and  C_33
REMARK    7  A    between atoms: C_33  and  C_34
REMARK    8  A    between atoms: C_36  and  O_37
REMARK    9  A    between atoms: C_39  and  O_40
REMARK                            x       y       z     vdW  Elec       q    Type
REMARK                         _______ _______ _______ _____ _____    ______ ____
ROOT
ATOM      1  C   UNL     1      -1.871   3.033 126.948  0.00  0.00    +0.000 C 
ATOM      2  C   UNL     1      -3.314   3.425 126.847  0.00  0.00    +0.000 A 
ATOM      3  C   UNL     1      -4.158   2.504 126.192  0.00  0.00    +0.000 A 
ATOM      4  C   UNL     1      -5.527   2.763 126.005  0.00  0.00    +0.000 A 
ATOM      5  C   UNL     1      -6.049   3.921 126.554  0.00  0.00    +0.000 A 
ATOM      6  C   UNL     1      -5.230   4.854 127.185  0.00  0.00    +0.000 A 
ATOM      7  C   UNL     1      -3.845   4.649 127.327  0.00  0.00    +0.000 A 
ENDROOT
BRANCH   4   8
ATOM      8  C   UNL     1      -6.398   1.752 125.331  0.00  0.00    +0.000 C 
ATOM      9  O   UNL     1      -6.810   2.090 124.220  0.00  0.00    +0.000 OA
ATOM     10  N   UNL     1      -6.529   0.458 125.912  0.00  0.00    +0.000 N 
ATOM     11  C   UNL     1      -7.168   0.257 127.259  0.00  0.00    +0.000 C 
ATOM     12  C   UNL     1      -6.338  -0.550 128.224  0.00  0.00    +0.000 A 
ATOM     13  C   UNL     1      -6.141  -0.445 129.637  0.00  0.00    +0.000 A 
ATOM     14  N   UNL     1      -5.332  -1.395 130.138  0.00  0.00    +0.000 NA
ATOM     15  N   UNL     1      -5.015  -2.129 129.058  0.00  0.00    +0.000 N 
ATOM     16  C   UNL     1      -4.151  -3.291 129.140  0.00  0.00    +0.000 C 
ATOM     17  C   UNL     1      -5.574  -1.641 127.903  0.00  0.00    +0.000 A 
ATOM     18  N   UNL     1      -5.321  -2.244 126.738  0.00  0.00    +0.000 N 
ATOM     19  C   UNL     1      -5.727  -1.887 125.445  0.00  0.00    +0.000 A 
ATOM     20  C   UNL     1      -5.371  -2.851 124.464  0.00  0.00    +0.000 A 
ATOM     21  C   UNL     1      -5.685  -2.703 123.124  0.00  0.00    +0.000 A 
ATOM     22  C   UNL     1      -6.391  -1.586 122.735  0.00  0.00    +0.000 A 
ATOM     23  C   UNL     1      -6.723  -0.607 123.678  0.00  0.00    +0.000 A 
ATOM     24  C   UNL     1      -6.378  -0.700 125.043  0.00  0.00    +0.000 A 
ATOM     25  H   UNL     1      -4.786  -3.104 126.740  0.00  0.00    +0.000 HD
ENDBRANCH   4   8
BRANCH   7  26
ATOM     26  C   UNL     1      -3.093   5.794 128.010  0.00  0.00    +0.000 C 
BRANCH  26  27
ATOM     27  N   UNL     1      -3.235   5.847 129.434  0.00  0.00    +0.000 N 
ATOM     28  C   UNL     1      -4.123   6.653 130.086  0.00  0.00    +0.000 C 
ATOM     29  O   UNL     1      -4.662   7.609 129.602  0.00  0.00    +0.000 OA
ATOM     30  N   UNL     1      -4.438   6.023 131.311  0.00  0.00    +0.000 N 
ATOM     31  C   UNL     1      -5.762   6.474 131.936  0.00  0.00    +0.000 C 
ATOM     32  C   UNL     1      -6.217   5.437 132.967  0.00  0.00    +0.000 C 
ATOM     33  N   UNL     1      -5.183   5.021 133.956  0.00  0.00    +0.000 NA
ATOM     34  C   UNL     1      -4.025   4.393 133.262  0.00  0.00    +0.000 C 
ATOM     35  C   UNL     1      -3.330   5.291 132.233  0.00  0.00    +0.000 C 
ATOM     36  H   UNL     1      -3.381   4.980 129.883  0.00  0.00    +0.000 HD
BRANCH  33  37
ATOM     37  C   UNL     1      -4.883   6.000 135.088  0.00  0.00    +0.000 C 
BRANCH  37  38
ATOM     38  C   UNL     1      -5.734   6.075 136.373  0.00  0.00    +0.000 A 
ATOM     39  C   UNL     1      -5.518   5.672 137.656  0.00  0.00    +0.000 A 
ATOM     40  C   UNL     1      -6.573   5.853 138.635  0.00  0.00    +0.000 A 
ATOM     41  C   UNL     1      -7.835   6.433 138.396  0.00  0.00    +0.000 A 
ATOM     42  C   UNL     1      -8.021   6.900 137.163  0.00  0.00    +0.000 A 
ATOM     43  C   UNL     1      -6.969   6.652 136.316  0.00  0.00    +0.000 A 
BRANCH  40  44
ATOM     44  O   UNL     1      -6.367   5.466 139.923  0.00  0.00    +0.000 OA
ATOM     45  H   UNL     1      -5.728   6.098 140.280  0.00  0.00    +0.000 HD
ENDBRANCH  40  44
BRANCH  42  46
ATOM     46  O   UNL     1      -9.068   7.599 136.674  0.00  0.00    +0.000 OA
ATOM     47  H   UNL     1      -9.422   7.254 135.841  0.00  0.00    +0.000 HD
ENDBRANCH  42  46
ENDBRANCH  37  38
ENDBRANCH  33  37
ENDBRANCH  26  27
ENDBRANCH   7  26
TORSDOF 7
ENDMDL
MODEL 8
REMARK VINA RESULT:      -9.7      3.928     10.066
REMARK  Name = CHEMBL3763342
REMARK  9 active torsions:
REMARK  status: ('A' for Active; 'I' for Inactive)
REMARK    1  A    between atoms: C_1  and  C_2
REMARK    2  A    between atoms: C_4  and  C_5
REMARK    3  A    between atoms: N_12  and  C_13
REMARK    4  A    between atoms: C_24  and  C_25
REMARK    5  A    between atoms: C_25  and  N_26
REMARK    6  A    between atoms: N_32  and  C_33
REMARK    7  A    between atoms: C_33  and  C_34
REMARK    8  A    between atoms: C_36  and  O_37
REMARK    9  A    between atoms: C_39  and  O_40
REMARK                            x       y       z     vdW  Elec       q    Type
REMARK                         _______ _______ _______ _____ _____    ______ ____
ROOT
ATOM      1  C   UNL     1      -8.173   0.409 132.108  0.00  0.00    +0.000 C 
ATOM      2  C   UNL     1      -8.237   0.829 130.670  0.00  0.00    +0.000 A 
ATOM      3  C   UNL     1      -7.834  -0.140 129.728  0.00  0.00    +0.000 A 
ATOM      4  C   UNL     1      -7.818   0.134 128.349  0.00  0.00    +0.000 A 
ATOM      5  C   UNL     1      -8.287   1.366 127.928  0.00  0.00    +0.000 A 
ATOM      6  C   UNL     1      -8.667   2.345 128.842  0.00  0.00    +0.000 A 
ATOM      7  C   UNL     1      -8.630   2.118 130.230  0.00  0.00    +0.000 A 
ENDROOT
BRANCH   4   8
ATOM      8  C   UNL     1      -7.413  -0.926 127.376  0.00  0.00    +0.000 C 
ATOM      9  O   UNL     1      -7.486  -2.077 127.810  0.00  0.00    +0.000 OA
ATOM     10  N   UNL     1      -7.164  -0.559 126.022  0.00  0.00    +0.000 N 
ATOM     11  C   UNL     1      -6.032   0.358 125.646  0.00  0.00    +0.000 C 
ATOM     12  C   UNL     1      -6.439   1.522 124.781  0.00  0.00    +0.000 A 
ATOM     13  C   UNL     1      -6.004   2.885 124.744  0.00  0.00    +0.000 A 
ATOM     14  N   UNL     1      -6.602   3.613 123.786  0.00  0.00    +0.000 NA
ATOM     15  N   UNL     1      -7.415   2.726 123.188  0.00  0.00    +0.000 N 
ATOM     16  C   UNL     1      -8.262   3.085 122.067  0.00  0.00    +0.000 C 
ATOM     17  C   UNL     1      -7.362   1.483 123.769  0.00  0.00    +0.000 A 
ATOM     18  N   UNL     1      -8.141   0.502 123.308  0.00  0.00    +0.000 N 
ATOM     19  C   UNL     1      -8.296  -0.809 123.782  0.00  0.00    +0.000 A 
ATOM     20  C   UNL     1      -9.122  -1.608 122.947  0.00  0.00    +0.000 A 
ATOM     21  C   UNL     1      -9.398  -2.936 123.222  0.00  0.00    +0.000 A 
ATOM     22  C   UNL     1      -8.829  -3.507 124.339  0.00  0.00    +0.000 A 
ATOM     23  C   UNL     1      -8.039  -2.730 125.194  0.00  0.00    +0.000 A 
ATOM     24  C   UNL     1      -7.775  -1.363 124.972  0.00  0.00    +0.000 A 
ATOM     25  H   UNL     1      -8.699   0.670 122.480  0.00  0.00    +0.000 HD
ENDBRANCH   4   8
BRANCH   7  26
ATOM     26  C   UNL     1      -9.044   3.315 131.088  0.00  0.00    +0.000 C 
BRANCH  26  27
ATOM     27  N   UNL     1      -8.041   4.326 131.242  0.00  0.00    +0.000 N 
ATOM     28  C   UNL     1      -7.290   4.494 132.368  0.00  0.00    +0.000 C 
ATOM     29  O   UNL     1      -7.564   4.047 133.447  0.00  0.00    +0.000 OA
ATOM     30  N   UNL     1      -6.065   5.077 131.972  0.00  0.00    +0.000 N 
ATOM     31  C   UNL     1      -4.914   4.874 132.961  0.00  0.00    +0.000 C 
ATOM     32  C   UNL     1      -3.580   5.122 132.249  0.00  0.00    +0.000 C 
ATOM     33  N   UNL     1      -3.500   6.387 131.465  0.00  0.00    +0.000 NA
ATOM     34  C   UNL     1      -4.523   6.393 130.383  0.00  0.00    +0.000 C 
ATOM     35  C   UNL     1      -5.970   6.255 130.868  0.00  0.00    +0.000 C 
ATOM     36  H   UNL     1      -7.355   4.361 130.534  0.00  0.00    +0.000 HD
BRANCH  33  37
ATOM     37  C   UNL     1      -3.303   7.675 132.261  0.00  0.00    +0.000 C 
BRANCH  37  38
ATOM     38  C   UNL     1      -1.973   8.027 132.960  0.00  0.00    +0.000 A 
ATOM     39  C   UNL     1      -1.039   7.280 133.613  0.00  0.00    +0.000 A 
ATOM     40  C   UNL     1       0.100   7.949 134.212  0.00  0.00    +0.000 A 
ATOM     41  C   UNL     1       0.360   9.335 134.176  0.00  0.00    +0.000 A 
ATOM     42  C   UNL     1      -0.507  10.059 133.472  0.00  0.00    +0.000 A 
ATOM     43  C   UNL     1      -1.556   9.326 132.973  0.00  0.00    +0.000 A 
BRANCH  40  44
ATOM     44  O   UNL     1       1.047   7.215 134.857  0.00  0.00    +0.000 OA
ATOM     45  H   UNL     1       1.568   7.856 135.359  0.00  0.00    +0.000 HD
ENDBRANCH  40  44
BRANCH  42  46
ATOM     46  O   UNL     1      -0.459  11.373 133.167  0.00  0.00    +0.000 OA
ATOM     47  H   UNL     1      -0.794  11.955 133.864  0.00  0.00    +0.000 HD
ENDBRANCH  42  46
ENDBRANCH  37  38
ENDBRANCH  33  37
ENDBRANCH  26  27
ENDBRANCH   7  26
TORSDOF 7
ENDMDL
MODEL 9
REMARK VINA RESULT:      -9.7      3.378      9.106
REMARK  Name = CHEMBL3763342
REMARK  9 active torsions:
REMARK  status: ('A' for Active; 'I' for Inactive)
REMARK    1  A    between atoms: C_1  and  C_2
REMARK    2  A    between atoms: C_4  and  C_5
REMARK    3  A    between atoms: N_12  and  C_13
REMARK    4  A    between atoms: C_24  and  C_25
REMARK    5  A    between atoms: C_25  and  N_26
REMARK    6  A    between atoms: N_32  and  C_33
REMARK    7  A    between atoms: C_33  and  C_34
REMARK    8  A    between atoms: C_36  and  O_37
REMARK    9  A    between atoms: C_39  and  O_40
REMARK                            x       y       z     vdW  Elec       q    Type
REMARK                         _______ _______ _______ _____ _____    ______ ____
ROOT
ATOM      1  C   UNL     1      -7.833  -1.785 132.728  0.00  0.00    +0.000 C 
ATOM      2  C   UNL     1      -7.861  -1.050 131.421  0.00  0.00    +0.000 A 
ATOM      3  C   UNL     1      -7.637  -1.833 130.270  0.00  0.00    +0.000 A 
ATOM      4  C   UNL     1      -7.608  -1.263 128.985  0.00  0.00    +0.000 A 
ATOM      5  C   UNL     1      -7.886   0.087 128.869  0.00  0.00    +0.000 A 
ATOM      6  C   UNL     1      -8.087   0.883 129.994  0.00  0.00    +0.000 A 
ATOM      7  C   UNL     1      -8.056   0.349 131.295  0.00  0.00    +0.000 A 
ENDROOT
BRANCH   4   8
ATOM      8  C   UNL     1      -7.395  -2.127 127.784  0.00  0.00    +0.000 C 
ATOM      9  O   UNL     1      -7.783  -3.289 127.913  0.00  0.00    +0.000 OA
ATOM     10  N   UNL     1      -6.954  -1.524 126.571  0.00  0.00    +0.000 N 
ATOM     11  C   UNL     1      -5.606  -0.867 126.459  0.00  0.00    +0.000 C 
ATOM     12  C   UNL     1      -5.644   0.536 125.908  0.00  0.00    +0.000 A 
ATOM     13  C   UNL     1      -4.888   1.709 126.223  0.00  0.00    +0.000 A 
ATOM     14  N   UNL     1      -5.210   2.774 125.469  0.00  0.00    +0.000 NA
ATOM     15  N   UNL     1      -6.164   2.294 124.652  0.00  0.00    +0.000 N 
ATOM     16  C   UNL     1      -6.802   3.116 123.643  0.00  0.00    +0.000 C 
ATOM     17  C   UNL     1      -6.463   0.978 124.902  0.00  0.00    +0.000 A 
ATOM     18  N   UNL     1      -7.418   0.370 124.195  0.00  0.00    +0.000 N 
ATOM     19  C   UNL     1      -7.926  -0.931 124.320  0.00  0.00    +0.000 A 
ATOM     20  C   UNL     1      -8.852  -1.268 123.296  0.00  0.00    +0.000 A 
ATOM     21  C   UNL     1      -9.465  -2.506 123.223  0.00  0.00    +0.000 A 
ATOM     22  C   UNL     1      -9.145  -3.454 124.170  0.00  0.00    +0.000 A 
ATOM     23  C   UNL     1      -8.263  -3.134 125.207  0.00  0.00    +0.000 A 
ATOM     24  C   UNL     1      -7.655  -1.868 125.342  0.00  0.00    +0.000 A 
ATOM     25  H   UNL     1      -7.848   0.868 123.426  0.00  0.00    +0.000 HD
ENDBRANCH   4   8
BRANCH   7  26
ATOM     26  C   UNL     1      -8.258   1.372 132.414  0.00  0.00    +0.000 C 
BRANCH  26  27
ATOM     27  N   UNL     1      -7.209   2.338 132.548  0.00  0.00    +0.000 N 
ATOM     28  C   UNL     1      -7.411   3.645 132.886  0.00  0.00    +0.000 C 
ATOM     29  O   UNL     1      -8.464   4.216 132.814  0.00  0.00    +0.000 OA
ATOM     30  N   UNL     1      -6.235   4.098 133.526  0.00  0.00    +0.000 N 
ATOM     31  C   UNL     1      -6.430   5.326 134.421  0.00  0.00    +0.000 C 
ATOM     32  C   UNL     1      -5.251   5.441 135.391  0.00  0.00    +0.000 C 
ATOM     33  N   UNL     1      -3.900   5.343 134.770  0.00  0.00    +0.000 NA
ATOM     34  C   UNL     1      -3.727   4.021 134.109  0.00  0.00    +0.000 C 
ATOM     35  C   UNL     1      -4.751   3.715 133.010  0.00  0.00    +0.000 C 
ATOM     36  H   UNL     1      -6.468   2.086 133.149  0.00  0.00    +0.000 HD
BRANCH  33  37
ATOM     37  C   UNL     1      -3.396   6.578 134.028  0.00  0.00    +0.000 C 
BRANCH  37  38
ATOM     38  C   UNL     1      -3.381   6.676 132.488  0.00  0.00    +0.000 A 
ATOM     39  C   UNL     1      -2.416   6.452 131.551  0.00  0.00    +0.000 A 
ATOM     40  C   UNL     1      -2.727   6.692 130.155  0.00  0.00    +0.000 A 
ATOM     41  C   UNL     1      -3.966   7.130 129.644  0.00  0.00    +0.000 A 
ATOM     42  C   UNL     1      -4.934   7.273 130.547  0.00  0.00    +0.000 A 
ATOM     43  C   UNL     1      -4.521   7.045 131.837  0.00  0.00    +0.000 A 
BRANCH  40  44
ATOM     44  O   UNL     1      -1.778   6.462 129.207  0.00  0.00    +0.000 OA
ATOM     45  H   UNL     1      -2.208   6.655 128.363  0.00  0.00    +0.000 HD
ENDBRANCH  40  44
BRANCH  42  46
ATOM     46  O   UNL     1      -6.237   7.566 130.348  0.00  0.00    +0.000 OA
ATOM     47  H   UNL     1      -6.727   7.769 131.158  0.00  0.00    +0.000 HD
ENDBRANCH  42  46
ENDBRANCH  37  38
ENDBRANCH  33  37
ENDBRANCH  26  27
ENDBRANCH   7  26
TORSDOF 7
ENDMDL
