MODEL 1
REMARK VINA RESULT:      -7.6      0.000      0.000
REMARK  Name = CHEMBL1093367
REMARK  8 active torsions:
REMARK  status: ('A' for Active; 'I' for Inactive)
REMARK    1  A    between atoms: C_1  and  O_2
REMARK    2  A    between atoms: O_2  and  C_3
REMARK    3  A    between atoms: C_6  and  N_7
REMARK    4  A    between atoms: N_7  and  C_8
REMARK    5  A    between atoms: C_9  and  C_11
REMARK    6  A    between atoms: C_14  and  C_15
REMARK    7  A    between atoms: C_18  and  C_19
REMARK    8  A    between atoms: C_22  and  C_23
REMARK                            x       y       z     vdW  Elec       q    Type
REMARK                         _______ _______ _______ _____ _____    ______ ____
ROOT
ATOM      1  C   UNL     1      -7.068  -0.148 124.998  0.00  0.00    +0.000 A 
ATOM      2  C   UNL     1      -7.837   0.002 126.141  0.00  0.00    +0.000 A 
ATOM      3  N   UNL     1      -7.586  -0.667 127.298  0.00  0.00    +0.000 NA
ATOM      4  C   UNL     1      -6.566  -1.563 127.254  0.00  0.00    +0.000 A 
ATOM      5  C   UNL     1      -5.858  -1.769 126.072  0.00  0.00    +0.000 A 
ATOM      6  N   UNL     1      -6.069  -1.064 124.939  0.00  0.00    +0.000 NA
ENDROOT
BRANCH   4   7
ATOM      7  C   UNL     1      -6.260  -2.298 128.491  0.00  0.00    +0.000 A 
ATOM      8  C   UNL     1      -5.017  -2.099 129.121  0.00  0.00    +0.000 A 
ATOM      9  C   UNL     1      -4.634  -2.855 130.232  0.00  0.00    +0.000 A 
ATOM     10  C   UNL     1      -5.538  -3.736 130.823  0.00  0.00    +0.000 A 
ATOM     11  C   UNL     1      -6.830  -3.844 130.298  0.00  0.00    +0.000 A 
ATOM     12  C   UNL     1      -7.172  -3.200 129.091  0.00  0.00    +0.000 A 
ATOM     13  C   UNL     1      -8.480  -3.553 128.427  0.00  0.00    +0.000 C 
BRANCH  10  14
ATOM     14  C   UNL     1      -5.125  -4.552 131.926  0.00  0.00    +0.000 C 
ATOM     15  N   UNL     1      -4.797  -5.245 132.804  0.00  0.00    +0.000 NA
ENDBRANCH  10  14
ENDBRANCH   4   7
BRANCH   1  18
ATOM     16  N   UNL     1      -6.860   1.956 123.609  0.00  0.00    +0.000 N 
ATOM     17  C   UNL     1      -6.107   2.586 124.699  0.00  0.00    +0.000 C 
ATOM     18  C   UNL     1      -7.326   0.613 123.745  0.00  0.00    +0.000 C 
ATOM     19  O   UNL     1      -7.936  -0.032 122.892  0.00  0.00    +0.000 OA
BRANCH  16  23
ATOM     20  C   UNL     1      -7.356   4.157 119.992  0.00  0.00    +0.000 A 
ATOM     21  C   UNL     1      -8.464   3.838 120.745  0.00  0.00    +0.000 A 
ATOM     22  C   UNL     1      -8.301   3.122 121.930  0.00  0.00    +0.000 A 
ATOM     23  C   UNL     1      -7.045   2.704 122.374  0.00  0.00    +0.000 A 
ATOM     24  C   UNL     1      -6.000   3.067 121.515  0.00  0.00    +0.000 A 
ATOM     25  N   UNL     1      -6.119   3.771 120.352  0.00  0.00    +0.000 NA
BRANCH  20  27
ATOM     26  C   UNL     1      -6.235   5.468 118.397  0.00  0.00    +0.000 C 
ATOM     27  O   UNL     1      -7.431   4.801 118.787  0.00  0.00    +0.000 OA
ENDBRANCH  20  27
ENDBRANCH  16  23
ENDBRANCH   1  18
TORSDOF 5
ENDMDL
MODEL 2
REMARK VINA RESULT:      -7.5      1.769      2.104
REMARK  Name = CHEMBL1093367
REMARK  8 active torsions:
REMARK  status: ('A' for Active; 'I' for Inactive)
REMARK    1  A    between atoms: C_1  and  O_2
REMARK    2  A    between atoms: O_2  and  C_3
REMARK    3  A    between atoms: C_6  and  N_7
REMARK    4  A    between atoms: N_7  and  C_8
REMARK    5  A    between atoms: C_9  and  C_11
REMARK    6  A    between atoms: C_14  and  C_15
REMARK    7  A    between atoms: C_18  and  C_19
REMARK    8  A    between atoms: C_22  and  C_23
REMARK                            x       y       z     vdW  Elec       q    Type
REMARK                         _______ _______ _______ _____ _____    ______ ____
ROOT
ATOM      1  C   UNL     1      -7.209   0.325 125.310  0.00  0.00    +0.000 A 
ATOM      2  C   UNL     1      -8.296  -0.407 125.761  0.00  0.00    +0.000 A 
ATOM      3  N   UNL     1      -8.365  -0.939 127.011  0.00  0.00    +0.000 NA
ATOM      4  C   UNL     1      -7.263  -0.775 127.786  0.00  0.00    +0.000 A 
ATOM      5  C   UNL     1      -6.143  -0.113 127.289  0.00  0.00    +0.000 A 
ATOM      6  N   UNL     1      -6.093   0.465 126.069  0.00  0.00    +0.000 NA
ENDROOT
BRANCH   4   7
ATOM      7  C   UNL     1      -7.307  -1.329 129.149  0.00  0.00    +0.000 A 
ATOM      8  C   UNL     1      -6.916  -2.664 129.362  0.00  0.00    +0.000 A 
ATOM      9  C   UNL     1      -7.046  -3.270 130.615  0.00  0.00    +0.000 A 
ATOM     10  C   UNL     1      -7.444  -2.516 131.718  0.00  0.00    +0.000 A 
ATOM     11  C   UNL     1      -7.700  -1.150 131.555  0.00  0.00    +0.000 A 
ATOM     12  C   UNL     1      -7.717  -0.569 130.270  0.00  0.00    +0.000 A 
ATOM     13  C   UNL     1      -8.252   0.832 130.117  0.00  0.00    +0.000 C 
BRANCH  10  14
ATOM     14  C   UNL     1      -7.632  -3.150 132.988  0.00  0.00    +0.000 C 
ATOM     15  N   UNL     1      -7.772  -3.638 134.038  0.00  0.00    +0.000 NA
ENDBRANCH  10  14
ENDBRANCH   4   7
BRANCH   1  18
ATOM     16  N   UNL     1      -7.439   2.323 123.775  0.00  0.00    +0.000 N 
ATOM     17  C   UNL     1      -7.772   3.159 124.934  0.00  0.00    +0.000 C 
ATOM     18  C   UNL     1      -7.153   0.935 123.954  0.00  0.00    +0.000 C 
ATOM     19  O   UNL     1      -6.831   0.142 123.069  0.00  0.00    +0.000 OA
BRANCH  16  23
ATOM     20  C   UNL     1      -7.179   4.174 119.943  0.00  0.00    +0.000 A 
ATOM     21  C   UNL     1      -6.024   3.911 120.646  0.00  0.00    +0.000 A 
ATOM     22  C   UNL     1      -6.109   3.302 121.897  0.00  0.00    +0.000 A 
ATOM     23  C   UNL     1      -7.334   2.959 122.470  0.00  0.00    +0.000 A 
ATOM     24  C   UNL     1      -8.437   3.295 121.673  0.00  0.00    +0.000 A 
ATOM     25  N   UNL     1      -8.393   3.885 120.444  0.00  0.00    +0.000 NA
BRANCH  20  27
ATOM     26  C   UNL     1      -6.057   5.652 118.504  0.00  0.00    +0.000 C 
ATOM     27  O   UNL     1      -7.191   4.823 118.740  0.00  0.00    +0.000 OA
ENDBRANCH  20  27
ENDBRANCH  16  23
ENDBRANCH   1  18
TORSDOF 5
ENDMDL
MODEL 3
REMARK VINA RESULT:      -7.5      6.997     10.789
REMARK  Name = CHEMBL1093367
REMARK  8 active torsions:
REMARK  status: ('A' for Active; 'I' for Inactive)
REMARK    1  A    between atoms: C_1  and  O_2
REMARK    2  A    between atoms: O_2  and  C_3
REMARK    3  A    between atoms: C_6  and  N_7
REMARK    4  A    between atoms: N_7  and  C_8
REMARK    5  A    between atoms: C_9  and  C_11
REMARK    6  A    between atoms: C_14  and  C_15
REMARK    7  A    between atoms: C_18  and  C_19
REMARK    8  A    between atoms: C_22  and  C_23
REMARK                            x       y       z     vdW  Elec       q    Type
REMARK                         _______ _______ _______ _____ _____    ______ ____
ROOT
ATOM      1  C   UNL     1      -9.053   3.076 129.971  0.00  0.00    +0.000 A 
ATOM      2  C   UNL     1     -10.396   3.109 130.315  0.00  0.00    +0.000 A 
ATOM      3  N   UNL     1     -11.163   4.226 130.203  0.00  0.00    +0.000 NA
ATOM      4  C   UNL     1     -10.518   5.350 129.797  0.00  0.00    +0.000 A 
ATOM      5  C   UNL     1      -9.149   5.323 129.540  0.00  0.00    +0.000 A 
ATOM      6  N   UNL     1      -8.397   4.202 129.595  0.00  0.00    +0.000 NA
ENDROOT
BRANCH   4   7
ATOM      7  C   UNL     1     -11.319   6.575 129.655  0.00  0.00    +0.000 A 
ATOM      8  C   UNL     1     -11.461   7.162 128.384  0.00  0.00    +0.000 A 
ATOM      9  C   UNL     1     -12.117   8.385 128.215  0.00  0.00    +0.000 A 
ATOM     10  C   UNL     1     -12.764   8.986 129.294  0.00  0.00    +0.000 A 
ATOM     11  C   UNL     1     -12.756   8.346 130.538  0.00  0.00    +0.000 A 
ATOM     12  C   UNL     1     -11.972   7.193 130.749  0.00  0.00    +0.000 A 
ATOM     13  C   UNL     1     -11.786   6.693 132.160  0.00  0.00    +0.000 C 
BRANCH  10  14
ATOM     14  C   UNL     1     -13.385  10.266 129.133  0.00  0.00    +0.000 C 
ATOM     15  N   UNL     1     -13.887  11.314 129.036  0.00  0.00    +0.000 NA
ENDBRANCH  10  14
ENDBRANCH   4   7
BRANCH   1  18
ATOM     16  N   UNL     1      -8.023   1.023 128.909  0.00  0.00    +0.000 N 
ATOM     17  C   UNL     1      -8.615   1.407 127.623  0.00  0.00    +0.000 C 
ATOM     18  C   UNL     1      -8.227   1.842 130.062  0.00  0.00    +0.000 C 
ATOM     19  O   UNL     1      -7.757   1.644 131.183  0.00  0.00    +0.000 OA
BRANCH  16  23
ATOM     20  C   UNL     1      -5.500  -2.411 129.008  0.00  0.00    +0.000 A 
ATOM     21  C   UNL     1      -6.765  -2.488 129.547  0.00  0.00    +0.000 A 
ATOM     22  C   UNL     1      -7.591  -1.365 129.511  0.00  0.00    +0.000 A 
ATOM     23  C   UNL     1      -7.172  -0.156 128.954  0.00  0.00    +0.000 A 
ATOM     24  C   UNL     1      -5.861  -0.194 128.460  0.00  0.00    +0.000 A 
ATOM     25  N   UNL     1      -5.026  -1.273 128.472  0.00  0.00    +0.000 NA
BRANCH  20  27
ATOM     26  C   UNL     1      -3.312  -3.083 129.539  0.00  0.00    +0.000 C 
ATOM     27  O   UNL     1      -4.603  -3.443 129.058  0.00  0.00    +0.000 OA
ENDBRANCH  20  27
ENDBRANCH  16  23
ENDBRANCH   1  18
TORSDOF 5
ENDMDL
MODEL 4
REMARK VINA RESULT:      -7.3      2.453      2.919
REMARK  Name = CHEMBL1093367
REMARK  8 active torsions:
REMARK  status: ('A' for Active; 'I' for Inactive)
REMARK    1  A    between atoms: C_1  and  O_2
REMARK    2  A    between atoms: O_2  and  C_3
REMARK    3  A    between atoms: C_6  and  N_7
REMARK    4  A    between atoms: N_7  and  C_8
REMARK    5  A    between atoms: C_9  and  C_11
REMARK    6  A    between atoms: C_14  and  C_15
REMARK    7  A    between atoms: C_18  and  C_19
REMARK    8  A    between atoms: C_22  and  C_23
REMARK                            x       y       z     vdW  Elec       q    Type
REMARK                         _______ _______ _______ _____ _____    ______ ____
ROOT
ATOM      1  C   UNL     1      -7.284   2.125 126.110  0.00  0.00    +0.000 A 
ATOM      2  C   UNL     1      -6.189   1.577 126.758  0.00  0.00    +0.000 A 
ATOM      3  N   UNL     1      -6.288   0.866 127.913  0.00  0.00    +0.000 NA
ATOM      4  C   UNL     1      -7.532   0.779 128.450  0.00  0.00    +0.000 A 
ATOM      5  C   UNL     1      -8.611   1.410 127.834  0.00  0.00    +0.000 A 
ATOM      6  N   UNL     1      -8.524   2.068 126.657  0.00  0.00    +0.000 NA
ENDROOT
BRANCH   4   7
ATOM      7  C   UNL     1      -7.679   0.009 129.694  0.00  0.00    +0.000 A 
ATOM      8  C   UNL     1      -7.844   0.694 130.912  0.00  0.00    +0.000 A 
ATOM      9  C   UNL     1      -7.875   0.013 132.133  0.00  0.00    +0.000 A 
ATOM     10  C   UNL     1      -7.876  -1.381 132.155  0.00  0.00    +0.000 A 
ATOM     11  C   UNL     1      -7.856  -2.084 130.946  0.00  0.00    +0.000 A 
ATOM     12  C   UNL     1      -7.673  -1.406 129.723  0.00  0.00    +0.000 A 
ATOM     13  C   UNL     1      -7.395  -2.216 128.481  0.00  0.00    +0.000 C 
BRANCH  10  14
ATOM     14  C   UNL     1      -7.849  -2.077 133.407  0.00  0.00    +0.000 C 
ATOM     15  N   UNL     1      -7.855  -2.661 134.416  0.00  0.00    +0.000 NA
ENDBRANCH  10  14
ENDBRANCH   4   7
BRANCH   1  18
ATOM     16  N   UNL     1      -7.218   2.175 123.581  0.00  0.00    +0.000 N 
ATOM     17  C   UNL     1      -7.391   0.718 123.560  0.00  0.00    +0.000 C 
ATOM     18  C   UNL     1      -7.174   2.872 124.827  0.00  0.00    +0.000 C 
ATOM     19  O   UNL     1      -7.067   4.089 124.973  0.00  0.00    +0.000 OA
BRANCH  16  23
ATOM     20  C   UNL     1      -7.131   4.242 119.854  0.00  0.00    +0.000 A 
ATOM     21  C   UNL     1      -5.945   3.926 120.478  0.00  0.00    +0.000 A 
ATOM     22  C   UNL     1      -5.974   3.247 121.696  0.00  0.00    +0.000 A 
ATOM     23  C   UNL     1      -7.172   2.884 122.311  0.00  0.00    +0.000 A 
ATOM     24  C   UNL     1      -8.310   3.278 121.594  0.00  0.00    +0.000 A 
ATOM     25  N   UNL     1      -8.321   3.937 120.399  0.00  0.00    +0.000 NA
BRANCH  20  27
ATOM     26  C   UNL     1      -6.012   5.690 118.381  0.00  0.00    +0.000 C 
ATOM     27  O   UNL     1      -7.195   4.960 118.691  0.00  0.00    +0.000 OA
ENDBRANCH  20  27
ENDBRANCH  16  23
ENDBRANCH   1  18
TORSDOF 5
ENDMDL
MODEL 5
REMARK VINA RESULT:      -7.3      6.954      7.880
REMARK  Name = CHEMBL1093367
REMARK  8 active torsions:
REMARK  status: ('A' for Active; 'I' for Inactive)
REMARK    1  A    between atoms: C_1  and  O_2
REMARK    2  A    between atoms: O_2  and  C_3
REMARK    3  A    between atoms: C_6  and  N_7
REMARK    4  A    between atoms: N_7  and  C_8
REMARK    5  A    between atoms: C_9  and  C_11
REMARK    6  A    between atoms: C_14  and  C_15
REMARK    7  A    between atoms: C_18  and  C_19
REMARK    8  A    between atoms: C_22  and  C_23
REMARK                            x       y       z     vdW  Elec       q    Type
REMARK                         _______ _______ _______ _____ _____    ______ ____
ROOT
ATOM      1  C   UNL     1      -9.527   3.264 130.386  0.00  0.00    +0.000 A 
ATOM      2  C   UNL     1      -9.223   2.751 131.638  0.00  0.00    +0.000 A 
ATOM      3  N   UNL     1      -8.327   1.746 131.831  0.00  0.00    +0.000 NA
ATOM      4  C   UNL     1      -7.789   1.209 130.706  0.00  0.00    +0.000 A 
ATOM      5  C   UNL     1      -8.171   1.674 129.449  0.00  0.00    +0.000 A 
ATOM      6  N   UNL     1      -9.017   2.710 129.258  0.00  0.00    +0.000 NA
ENDROOT
BRANCH   4   7
ATOM      7  C   UNL     1      -6.808   0.126 130.877  0.00  0.00    +0.000 A 
ATOM      8  C   UNL     1      -7.262  -1.198 131.020  0.00  0.00    +0.000 A 
ATOM      9  C   UNL     1      -6.379  -2.245 131.297  0.00  0.00    +0.000 A 
ATOM     10  C   UNL     1      -5.004  -2.016 131.306  0.00  0.00    +0.000 A 
ATOM     11  C   UNL     1      -4.523  -0.733 131.024  0.00  0.00    +0.000 A 
ATOM     12  C   UNL     1      -5.411   0.355 130.894  0.00  0.00    +0.000 A 
ATOM     13  C   UNL     1      -4.843   1.752 130.854  0.00  0.00    +0.000 C 
BRANCH  10  14
ATOM     14  C   UNL     1      -4.104  -3.077 131.647  0.00  0.00    +0.000 C 
ATOM     15  N   UNL     1      -3.371  -3.929 131.957  0.00  0.00    +0.000 NA
ENDBRANCH  10  14
ENDBRANCH   4   7
BRANCH   1  18
ATOM     16  N   UNL     1     -10.023   5.739 130.222  0.00  0.00    +0.000 N 
ATOM     17  C   UNL     1      -8.601   6.026 130.443  0.00  0.00    +0.000 C 
ATOM     18  C   UNL     1     -10.482   4.387 130.184  0.00  0.00    +0.000 C 
ATOM     19  O   UNL     1     -11.638   4.021 129.974  0.00  0.00    +0.000 OA
BRANCH  16  23
ATOM     20  C   UNL     1     -12.625   9.026 129.448  0.00  0.00    +0.000 A 
ATOM     21  C   UNL     1     -12.820   8.263 130.578  0.00  0.00    +0.000 A 
ATOM     22  C   UNL     1     -11.966   7.190 130.832  0.00  0.00    +0.000 A 
ATOM     23  C   UNL     1     -10.922   6.855 129.969  0.00  0.00    +0.000 A 
ATOM     24  C   UNL     1     -10.837   7.688 128.846  0.00  0.00    +0.000 A 
ATOM     25  N   UNL     1     -11.649   8.749 128.566  0.00  0.00    +0.000 NA
BRANCH  20  27
ATOM     26  C   UNL     1     -13.553  11.097 130.056  0.00  0.00    +0.000 C 
ATOM     27  O   UNL     1     -13.452  10.055 129.090  0.00  0.00    +0.000 OA
ENDBRANCH  20  27
ENDBRANCH  16  23
ENDBRANCH   1  18
TORSDOF 5
ENDMDL
MODEL 6
REMARK VINA RESULT:      -7.3      1.662      2.506
REMARK  Name = CHEMBL1093367
REMARK  8 active torsions:
REMARK  status: ('A' for Active; 'I' for Inactive)
REMARK    1  A    between atoms: C_1  and  O_2
REMARK    2  A    between atoms: O_2  and  C_3
REMARK    3  A    between atoms: C_6  and  N_7
REMARK    4  A    between atoms: N_7  and  C_8
REMARK    5  A    between atoms: C_9  and  C_11
REMARK    6  A    between atoms: C_14  and  C_15
REMARK    7  A    between atoms: C_18  and  C_19
REMARK    8  A    between atoms: C_22  and  C_23
REMARK                            x       y       z     vdW  Elec       q    Type
REMARK                         _______ _______ _______ _____ _____    ______ ____
ROOT
ATOM      1  C   UNL     1      -6.944  -1.130 126.652  0.00  0.00    +0.000 A 
ATOM      2  C   UNL     1      -7.890  -1.992 127.185  0.00  0.00    +0.000 A 
ATOM      3  N   UNL     1      -7.720  -2.640 128.368  0.00  0.00    +0.000 NA
ATOM      4  C   UNL     1      -6.522  -2.453 128.979  0.00  0.00    +0.000 A 
ATOM      5  C   UNL     1      -5.546  -1.654 128.388  0.00  0.00    +0.000 A 
ATOM      6  N   UNL     1      -5.734  -0.965 127.242  0.00  0.00    +0.000 NA
ENDROOT
BRANCH   4   7
ATOM      7  C   UNL     1      -6.307  -3.131 130.267  0.00  0.00    +0.000 A 
ATOM      8  C   UNL     1      -5.602  -4.348 130.295  0.00  0.00    +0.000 A 
ATOM      9  C   UNL     1      -5.469  -5.086 131.475  0.00  0.00    +0.000 A 
ATOM     10  C   UNL     1      -5.923  -4.560 132.683  0.00  0.00    +0.000 A 
ATOM     11  C   UNL     1      -6.501  -3.287 132.700  0.00  0.00    +0.000 A 
ATOM     12  C   UNL     1      -6.774  -2.605 131.496  0.00  0.00    +0.000 A 
ATOM     13  C   UNL     1      -7.629  -1.364 131.545  0.00  0.00    +0.000 C 
BRANCH  10  14
ATOM     14  C   UNL     1      -5.839  -5.342 133.881  0.00  0.00    +0.000 C 
ATOM     15  N   UNL     1      -5.799  -5.961 134.868  0.00  0.00    +0.000 NA
ENDBRANCH  10  14
ENDBRANCH   4   7
BRANCH   1  18
ATOM     16  N   UNL     1      -7.625   0.951 125.384  0.00  0.00    +0.000 N 
ATOM     17  C   UNL     1      -7.896   1.624 126.659  0.00  0.00    +0.000 C 
ATOM     18  C   UNL     1      -7.150  -0.396 125.374  0.00  0.00    +0.000 C 
ATOM     19  O   UNL     1      -6.856  -1.053 124.375  0.00  0.00    +0.000 OA
BRANCH  16  23
ATOM     20  C   UNL     1      -8.118   3.158 121.771  0.00  0.00    +0.000 A 
ATOM     21  C   UNL     1      -6.888   3.145 122.391  0.00  0.00    +0.000 A 
ATOM     22  C   UNL     1      -6.727   2.419 123.570  0.00  0.00    +0.000 A 
ATOM     23  C   UNL     1      -7.779   1.712 124.154  0.00  0.00    +0.000 A 
ATOM     24  C   UNL     1      -8.984   1.819 123.446  0.00  0.00    +0.000 A 
ATOM     25  N   UNL     1      -9.179   2.513 122.287  0.00  0.00    +0.000 NA
BRANCH  20  27
ATOM     26  C   UNL     1      -7.240   4.164 119.838  0.00  0.00    +0.000 C 
ATOM     27  O   UNL     1      -8.381   3.893 120.647  0.00  0.00    +0.000 OA
ENDBRANCH  20  27
ENDBRANCH  16  23
ENDBRANCH   1  18
TORSDOF 5
ENDMDL
MODEL 7
REMARK VINA RESULT:      -7.1      7.128      8.039
REMARK  Name = CHEMBL1093367
REMARK  8 active torsions:
REMARK  status: ('A' for Active; 'I' for Inactive)
REMARK    1  A    between atoms: C_1  and  O_2
REMARK    2  A    between atoms: O_2  and  C_3
REMARK    3  A    between atoms: C_6  and  N_7
REMARK    4  A    between atoms: N_7  and  C_8
REMARK    5  A    between atoms: C_9  and  C_11
REMARK    6  A    between atoms: C_14  and  C_15
REMARK    7  A    between atoms: C_18  and  C_19
REMARK    8  A    between atoms: C_22  and  C_23
REMARK                            x       y       z     vdW  Elec       q    Type
REMARK                         _______ _______ _______ _____ _____    ______ ____
ROOT
ATOM      1  C   UNL     1      -9.125   3.516 130.830  0.00  0.00    +0.000 A 
ATOM      2  C   UNL     1      -8.085   3.093 130.016  0.00  0.00    +0.000 A 
ATOM      3  N   UNL     1      -7.198   2.131 130.385  0.00  0.00    +0.000 NA
ATOM      4  C   UNL     1      -7.341   1.646 131.646  0.00  0.00    +0.000 A 
ATOM      5  C   UNL     1      -8.335   2.144 132.485  0.00  0.00    +0.000 A 
ATOM      6  N   UNL     1      -9.252   3.059 132.101  0.00  0.00    +0.000 NA
ENDROOT
BRANCH   4   7
ATOM      7  C   UNL     1      -6.404   0.596 132.075  0.00  0.00    +0.000 A 
ATOM      8  C   UNL     1      -5.222   0.960 132.746  0.00  0.00    +0.000 A 
ATOM      9  C   UNL     1      -4.249   0.012 133.075  0.00  0.00    +0.000 A 
ATOM     10  C   UNL     1      -4.494  -1.344 132.859  0.00  0.00    +0.000 A 
ATOM     11  C   UNL     1      -5.724  -1.739 132.324  0.00  0.00    +0.000 A 
ATOM     12  C   UNL     1      -6.645  -0.781 131.853  0.00  0.00    +0.000 A 
ATOM     13  C   UNL     1      -7.831  -1.252 131.049  0.00  0.00    +0.000 C 
BRANCH  10  14
ATOM     14  C   UNL     1      -3.474  -2.309 133.142  0.00  0.00    +0.000 C 
ATOM     15  N   UNL     1      -2.659  -3.117 133.351  0.00  0.00    +0.000 NA
ENDBRANCH  10  14
ENDBRANCH   4   7
BRANCH   1  18
ATOM     16  N   UNL     1      -9.811   5.935 130.541  0.00  0.00    +0.000 N 
ATOM     17  C   UNL     1      -8.512   6.354 131.079  0.00  0.00    +0.000 C 
ATOM     18  C   UNL     1     -10.114   4.545 130.408  0.00  0.00    +0.000 C 
ATOM     19  O   UNL     1     -11.150   4.071 129.941  0.00  0.00    +0.000 OA
BRANCH  16  23
ATOM     20  C   UNL     1     -12.549   8.925 129.226  0.00  0.00    +0.000 A 
ATOM     21  C   UNL     1     -11.395   8.705 128.508  0.00  0.00    +0.000 A 
ATOM     22  C   UNL     1     -10.501   7.724 128.937  0.00  0.00    +0.000 A 
ATOM     23  C   UNL     1     -10.734   6.962 130.082  0.00  0.00    +0.000 A 
ATOM     24  C   UNL     1     -11.927   7.291 130.739  0.00  0.00    +0.000 A 
ATOM     25  N   UNL     1     -12.827   8.238 130.348  0.00  0.00    +0.000 NA
BRANCH  20  27
ATOM     26  C   UNL     1     -13.518  10.969 129.860  0.00  0.00    +0.000 C 
ATOM     27  O   UNL     1     -13.448   9.908 128.913  0.00  0.00    +0.000 OA
ENDBRANCH  20  27
ENDBRANCH  16  23
ENDBRANCH   1  18
TORSDOF 5
ENDMDL
MODEL 8
REMARK VINA RESULT:      -7.0      6.748      8.256
REMARK  Name = CHEMBL1093367
REMARK  8 active torsions:
REMARK  status: ('A' for Active; 'I' for Inactive)
REMARK    1  A    between atoms: C_1  and  O_2
REMARK    2  A    between atoms: O_2  and  C_3
REMARK    3  A    between atoms: C_6  and  N_7
REMARK    4  A    between atoms: N_7  and  C_8
REMARK    5  A    between atoms: C_9  and  C_11
REMARK    6  A    between atoms: C_14  and  C_15
REMARK    7  A    between atoms: C_18  and  C_19
REMARK    8  A    between atoms: C_22  and  C_23
REMARK                            x       y       z     vdW  Elec       q    Type
REMARK                         _______ _______ _______ _____ _____    ______ ____
ROOT
ATOM      1  C   UNL     1      -5.933   4.496 128.571  0.00  0.00    +0.000 A 
ATOM      2  C   UNL     1      -5.927   4.196 129.924  0.00  0.00    +0.000 A 
ATOM      3  N   UNL     1      -4.970   4.645 130.780  0.00  0.00    +0.000 NA
ATOM      4  C   UNL     1      -3.960   5.356 130.218  0.00  0.00    +0.000 A 
ATOM      5  C   UNL     1      -3.931   5.575 128.842  0.00  0.00    +0.000 A 
ATOM      6  N   UNL     1      -4.909   5.178 127.999  0.00  0.00    +0.000 NA
ENDROOT
BRANCH   4   7
ATOM      7  C   UNL     1      -2.912   5.867 131.116  0.00  0.00    +0.000 A 
ATOM      8  C   UNL     1      -2.037   4.959 131.739  0.00  0.00    +0.000 A 
ATOM      9  C   UNL     1      -1.099   5.383 132.685  0.00  0.00    +0.000 A 
ATOM     10  C   UNL     1      -0.923   6.743 132.933  0.00  0.00    +0.000 A 
ATOM     11  C   UNL     1      -1.685   7.672 132.218  0.00  0.00    +0.000 A 
ATOM     12  C   UNL     1      -2.734   7.247 131.376  0.00  0.00    +0.000 A 
ATOM     13  C   UNL     1      -3.692   8.279 130.836  0.00  0.00    +0.000 C 
BRANCH  10  14
ATOM     14  C   UNL     1      -0.004   7.173 133.944  0.00  0.00    +0.000 C 
ATOM     15  N   UNL     1       0.749   7.489 134.777  0.00  0.00    +0.000 NA
ENDBRANCH  10  14
ENDBRANCH   4   7
BRANCH   1  18
ATOM     16  N   UNL     1      -6.821   2.841 126.875  0.00  0.00    +0.000 N 
ATOM     17  C   UNL     1      -5.586   2.060 127.009  0.00  0.00    +0.000 C 
ATOM     18  C   UNL     1      -7.001   4.031 127.645  0.00  0.00    +0.000 C 
ATOM     19  O   UNL     1      -8.001   4.749 127.645  0.00  0.00    +0.000 OA
BRANCH  16  23
ATOM     20  C   UNL     1      -9.897   1.388 124.306  0.00  0.00    +0.000 A 
ATOM     21  C   UNL     1      -9.666   0.755 125.507  0.00  0.00    +0.000 A 
ATOM     22  C   UNL     1      -8.662   1.233 126.349  0.00  0.00    +0.000 A 
ATOM     23  C   UNL     1      -7.871   2.330 126.007  0.00  0.00    +0.000 A 
ATOM     24  C   UNL     1      -8.184   2.876 124.754  0.00  0.00    +0.000 A 
ATOM     25  N   UNL     1      -9.161   2.440 123.907  0.00  0.00    +0.000 NA
BRANCH  20  27
ATOM     26  C   UNL     1     -10.288   0.092 122.386  0.00  0.00    +0.000 C 
ATOM     27  O   UNL     1     -10.817   0.948 123.394  0.00  0.00    +0.000 OA
ENDBRANCH  20  27
ENDBRANCH  16  23
ENDBRANCH   1  18
TORSDOF 5
ENDMDL
MODEL 9
REMARK VINA RESULT:      -6.9      7.202     11.327
REMARK  Name = CHEMBL1093367
REMARK  8 active torsions:
REMARK  status: ('A' for Active; 'I' for Inactive)
REMARK    1  A    between atoms: C_1  and  O_2
REMARK    2  A    between atoms: O_2  and  C_3
REMARK    3  A    between atoms: C_6  and  N_7
REMARK    4  A    between atoms: N_7  and  C_8
REMARK    5  A    between atoms: C_9  and  C_11
REMARK    6  A    between atoms: C_14  and  C_15
REMARK    7  A    between atoms: C_18  and  C_19
REMARK    8  A    between atoms: C_22  and  C_23
REMARK                            x       y       z     vdW  Elec       q    Type
REMARK                         _______ _______ _______ _____ _____    ______ ____
ROOT
ATOM      1  C   UNL     1      -8.654   3.346 129.715  0.00  0.00    +0.000 A 
ATOM      2  C   UNL     1      -8.207   4.548 129.190  0.00  0.00    +0.000 A 
ATOM      3  N   UNL     1      -8.977   5.669 129.139  0.00  0.00    +0.000 NA
ATOM      4  C   UNL     1     -10.256   5.528 129.572  0.00  0.00    +0.000 A 
ATOM      5  C   UNL     1     -10.719   4.291 130.014  0.00  0.00    +0.000 A 
ATOM      6  N   UNL     1      -9.940   3.192 130.118  0.00  0.00    +0.000 NA
ENDROOT
BRANCH   4   7
ATOM      7  C   UNL     1     -11.115   6.722 129.541  0.00  0.00    +0.000 A 
ATOM      8  C   UNL     1     -11.280   7.421 128.331  0.00  0.00    +0.000 A 
ATOM      9  C   UNL     1     -11.993   8.622 128.274  0.00  0.00    +0.000 A 
ATOM     10  C   UNL     1     -12.671   9.085 129.400  0.00  0.00    +0.000 A 
ATOM     11  C   UNL     1     -12.637   8.331 130.577  0.00  0.00    +0.000 A 
ATOM     12  C   UNL     1     -11.800   7.201 130.684  0.00  0.00    +0.000 A 
ATOM     13  C   UNL     1     -11.594   6.578 132.042  0.00  0.00    +0.000 C 
BRANCH  10  14
ATOM     14  C   UNL     1     -13.352  10.345 129.356  0.00  0.00    +0.000 C 
ATOM     15  N   UNL     1     -13.887  11.379 129.293  0.00  0.00    +0.000 NA
ENDBRANCH  10  14
ENDBRANCH   4   7
BRANCH   1  18
ATOM     16  N   UNL     1      -6.881   1.972 130.884  0.00  0.00    +0.000 N 
ATOM     17  C   UNL     1      -6.795   2.996 131.931  0.00  0.00    +0.000 C 
ATOM     18  C   UNL     1      -7.797   2.133 129.800  0.00  0.00    +0.000 C 
ATOM     19  O   UNL     1      -7.983   1.332 128.884  0.00  0.00    +0.000 OA
BRANCH  16  23
ATOM     20  C   UNL     1      -4.537  -1.560 131.338  0.00  0.00    +0.000 A 
ATOM     21  C   UNL     1      -4.142  -0.600 130.433  0.00  0.00    +0.000 A 
ATOM     22  C   UNL     1      -4.907   0.557 130.288  0.00  0.00    +0.000 A 
ATOM     23  C   UNL     1      -6.073   0.770 131.025  0.00  0.00    +0.000 A 
ATOM     24  C   UNL     1      -6.384  -0.284 131.895  0.00  0.00    +0.000 A 
ATOM     25  N   UNL     1      -5.658  -1.427 132.068  0.00  0.00    +0.000 NA
BRANCH  20  27
ATOM     26  C   UNL     1      -3.791  -3.540 130.318  0.00  0.00    +0.000 C 
ATOM     27  O   UNL     1      -3.881  -2.750 131.499  0.00  0.00    +0.000 OA
ENDBRANCH  20  27
ENDBRANCH  16  23
ENDBRANCH   1  18
TORSDOF 5
ENDMDL
