MODEL 1
REMARK VINA RESULT:      -8.6      0.000      0.000
REMARK  Name = CHEMBL473442
REMARK  6 active torsions:
REMARK  status: ('A' for Active; 'I' for Inactive)
REMARK    1  A    between atoms: C_2  and  C_3
REMARK    2  A    between atoms: C_6  and  C_7
REMARK    3  A    between atoms: N_16  and  C_17
REMARK    4  A    between atoms: N_16  and  C_21
REMARK    5  A    between atoms: C_17  and  C_18
REMARK    6  A    between atoms: C_21  and  C_22
REMARK                            x       y       z     vdW  Elec       q    Type
REMARK                         _______ _______ _______ _____ _____    ______ ____
ROOT
ATOM      1  O   UNL     1      -8.843   1.977 127.681  0.00  0.00    +0.000 OA
ATOM      2  C   UNL     1      -8.348   1.146 126.907  0.00  0.00    +0.000 C 
ATOM      3  N   UNL     1      -7.961  -0.201 127.057  0.00  0.00    +0.000 N 
ENDROOT
BRANCH   2   4
ATOM      4  C   UNL     1      -8.181   1.859 125.678  0.00  0.00    +0.000 A 
ATOM      5  C   UNL     1      -6.895   2.171 125.284  0.00  0.00    +0.000 A 
ATOM      6  C   UNL     1      -6.735   2.759 124.061  0.00  0.00    +0.000 A 
ATOM      7  C   UNL     1      -7.815   2.812 123.161  0.00  0.00    +0.000 A 
ATOM      8  C   UNL     1      -9.092   2.375 123.532  0.00  0.00    +0.000 A 
ATOM      9  C   UNL     1      -9.282   1.906 124.809  0.00  0.00    +0.000 A 
BRANCH   7  10
ATOM     10  C   UNL     1      -7.568   3.301 121.826  0.00  0.00    +0.000 A 
ATOM     11  C   UNL     1      -6.258   3.590 121.416  0.00  0.00    +0.000 A 
ATOM     12  C   UNL     1      -6.036   4.204 120.192  0.00  0.00    +0.000 A 
ATOM     13  C   UNL     1      -7.114   4.449 119.342  0.00  0.00    +0.000 A 
ATOM     14  C   UNL     1      -8.411   4.123 119.736  0.00  0.00    +0.000 A 
ATOM     15 CL   UNL     1      -9.745   4.474 118.712  0.00  0.00    +0.000 Cl
ATOM     16  C   UNL     1      -8.644   3.553 120.975  0.00  0.00    +0.000 A 
ENDBRANCH   7  10
ENDBRANCH   2   4
BRANCH   3  17
ATOM     17  C   UNL     1      -7.920  -0.956 128.342  0.00  0.00    +0.000 C 
BRANCH  17  18
ATOM     18  C   UNL     1      -7.521  -2.400 128.368  0.00  0.00    +0.000 C 
ATOM     19  C   UNL     1      -7.365  -3.102 129.676  0.00  0.00    +0.000 C 
ATOM     20  C   UNL     1      -8.546  -3.417 128.723  0.00  0.00    +0.000 C 
ENDBRANCH  17  18
ENDBRANCH   3  17
BRANCH   3  21
ATOM     21  C   UNL     1      -7.606  -0.987 125.849  0.00  0.00    +0.000 C 
BRANCH  21  22
ATOM     22  C   UNL     1      -8.737  -1.514 124.952  0.00  0.00    +0.000 C 
ATOM     23  C   UNL     1      -8.937  -3.014 125.082  0.00  0.00    +0.000 C 
ATOM     24  C   UNL     1      -9.438  -3.387 123.711  0.00  0.00    +0.000 C 
ATOM     25  C   UNL     1      -8.680  -2.444 122.805  0.00  0.00    +0.000 C 
ATOM     26  O   UNL     1      -8.416  -1.261 123.568  0.00  0.00    +0.000 OA
ENDBRANCH  21  22
ENDBRANCH   3  21
TORSDOF 6
ENDMDL
MODEL 2
REMARK VINA RESULT:      -8.1      5.117      7.477
REMARK  Name = CHEMBL473442
REMARK  6 active torsions:
REMARK  status: ('A' for Active; 'I' for Inactive)
REMARK    1  A    between atoms: C_2  and  C_3
REMARK    2  A    between atoms: C_6  and  C_7
REMARK    3  A    between atoms: N_16  and  C_17
REMARK    4  A    between atoms: N_16  and  C_21
REMARK    5  A    between atoms: C_17  and  C_18
REMARK    6  A    between atoms: C_21  and  C_22
REMARK                            x       y       z     vdW  Elec       q    Type
REMARK                         _______ _______ _______ _____ _____    ______ ____
ROOT
ATOM      1  O   UNL     1      -5.718  -4.312 131.192  0.00  0.00    +0.000 OA
ATOM      2  C   UNL     1      -6.113  -3.141 131.263  0.00  0.00    +0.000 C 
ATOM      3  N   UNL     1      -6.160  -2.200 132.312  0.00  0.00    +0.000 N 
ENDROOT
BRANCH   2   4
ATOM      4  C   UNL     1      -6.604  -2.850 129.951  0.00  0.00    +0.000 A 
ATOM      5  C   UNL     1      -5.682  -2.537 128.972  0.00  0.00    +0.000 A 
ATOM      6  C   UNL     1      -6.148  -2.363 127.699  0.00  0.00    +0.000 A 
ATOM      7  C   UNL     1      -7.467  -2.728 127.378  0.00  0.00    +0.000 A 
ATOM      8  C   UNL     1      -8.360  -3.164 128.364  0.00  0.00    +0.000 A 
ATOM      9  C   UNL     1      -7.930  -3.213 129.667  0.00  0.00    +0.000 A 
BRANCH   7  10
ATOM     10  C   UNL     1      -7.874  -2.673 125.995  0.00  0.00    +0.000 A 
ATOM     11  C   UNL     1      -9.165  -3.074 125.626  0.00  0.00    +0.000 A 
ATOM     12  C   UNL     1      -9.505  -3.170 124.284  0.00  0.00    +0.000 A 
ATOM     13  C   UNL     1      -8.581  -2.780 123.315  0.00  0.00    +0.000 A 
ATOM     14  C   UNL     1      -7.310  -2.342 123.686  0.00  0.00    +0.000 A 
ATOM     15 CL   UNL     1      -6.154  -1.915 122.490  0.00  0.00    +0.000 Cl
ATOM     16  C   UNL     1      -6.951  -2.290 125.021  0.00  0.00    +0.000 A 
ENDBRANCH   7  10
ENDBRANCH   2   4
BRANCH   3  17
ATOM     17  C   UNL     1      -5.853  -2.478 133.743  0.00  0.00    +0.000 C 
BRANCH  17  18
ATOM     18  C   UNL     1      -6.890  -3.069 134.649  0.00  0.00    +0.000 C 
ATOM     19  C   UNL     1      -8.232  -3.427 134.102  0.00  0.00    +0.000 C 
ATOM     20  C   UNL     1      -7.210  -4.514 134.518  0.00  0.00    +0.000 C 
ENDBRANCH  17  18
ENDBRANCH   3  17
BRANCH   3  21
ATOM     21  C   UNL     1      -6.488  -0.786 131.997  0.00  0.00    +0.000 C 
BRANCH  21  22
ATOM     22  C   UNL     1      -7.833  -0.217 132.473  0.00  0.00    +0.000 C 
ATOM     23  C   UNL     1      -8.783   0.079 131.326  0.00  0.00    +0.000 C 
ATOM     24  C   UNL     1      -9.584   1.234 131.867  0.00  0.00    +0.000 C 
ATOM     25  C   UNL     1      -8.569   1.994 132.689  0.00  0.00    +0.000 C 
ATOM     26  O   UNL     1      -7.616   1.034 133.159  0.00  0.00    +0.000 OA
ENDBRANCH  21  22
ENDBRANCH   3  21
TORSDOF 6
ENDMDL
MODEL 3
REMARK VINA RESULT:      -7.6      3.829      8.728
REMARK  Name = CHEMBL473442
REMARK  6 active torsions:
REMARK  status: ('A' for Active; 'I' for Inactive)
REMARK    1  A    between atoms: C_2  and  C_3
REMARK    2  A    between atoms: C_6  and  C_7
REMARK    3  A    between atoms: N_16  and  C_17
REMARK    4  A    between atoms: N_16  and  C_21
REMARK    5  A    between atoms: C_17  and  C_18
REMARK    6  A    between atoms: C_21  and  C_22
REMARK                            x       y       z     vdW  Elec       q    Type
REMARK                         _______ _______ _______ _____ _____    ______ ____
ROOT
ATOM      1  O   UNL     1      -7.628   0.409 123.087  0.00  0.00    +0.000 OA
ATOM      2  C   UNL     1      -7.248   1.260 123.902  0.00  0.00    +0.000 C 
ATOM      3  N   UNL     1      -7.016   2.647 123.812  0.00  0.00    +0.000 N 
ENDROOT
BRANCH   2   4
ATOM      4  C   UNL     1      -7.024   0.524 125.108  0.00  0.00    +0.000 A 
ATOM      5  C   UNL     1      -8.110   0.275 125.923  0.00  0.00    +0.000 A 
ATOM      6  C   UNL     1      -7.910  -0.517 127.018  0.00  0.00    +0.000 A 
ATOM      7  C   UNL     1      -6.706  -1.231 127.157  0.00  0.00    +0.000 A 
ATOM      8  C   UNL     1      -5.653  -1.064 126.251  0.00  0.00    +0.000 A 
ATOM      9  C   UNL     1      -5.806  -0.167 125.222  0.00  0.00    +0.000 A 
BRANCH   7  10
ATOM     10  C   UNL     1      -6.593  -2.173 128.245  0.00  0.00    +0.000 A 
ATOM     11  C   UNL     1      -7.746  -2.647 128.886  0.00  0.00    +0.000 A 
ATOM     12  C   UNL     1      -7.634  -3.427 130.027  0.00  0.00    +0.000 A 
ATOM     13  C   UNL     1      -6.369  -3.805 130.477  0.00  0.00    +0.000 A 
ATOM     14  C   UNL     1      -5.223  -3.365 129.814  0.00  0.00    +0.000 A 
ATOM     15 CL   UNL     1      -3.664  -3.784 130.399  0.00  0.00    +0.000 Cl
ATOM     16  C   UNL     1      -5.329  -2.548 128.702  0.00  0.00    +0.000 A 
ENDBRANCH   7  10
ENDBRANCH   2   4
BRANCH   3  17
ATOM     17  C   UNL     1      -7.036   3.453 122.557  0.00  0.00    +0.000 C 
BRANCH  17  18
ATOM     18  C   UNL     1      -5.913   3.360 121.570  0.00  0.00    +0.000 C 
ATOM     19  C   UNL     1      -5.889   4.273 120.389  0.00  0.00    +0.000 C 
ATOM     20  C   UNL     1      -4.885   4.433 121.558  0.00  0.00    +0.000 C 
ENDBRANCH  17  18
ENDBRANCH   3  17
BRANCH   3  21
ATOM     21  C   UNL     1      -6.778   3.421 125.057  0.00  0.00    +0.000 C 
BRANCH  21  22
ATOM     22  C   UNL     1      -5.405   4.076 125.270  0.00  0.00    +0.000 C 
ATOM     23  C   UNL     1      -4.408   3.143 125.933  0.00  0.00    +0.000 C 
ATOM     24  C   UNL     1      -3.533   4.105 126.695  0.00  0.00    +0.000 C 
ATOM     25  C   UNL     1      -4.506   5.177 127.129  0.00  0.00    +0.000 C 
ATOM     26  O   UNL     1      -5.542   5.218 126.141  0.00  0.00    +0.000 OA
ENDBRANCH  21  22
ENDBRANCH   3  21
TORSDOF 6
ENDMDL
MODEL 4
REMARK VINA RESULT:      -7.6      4.964      7.118
REMARK  Name = CHEMBL473442
REMARK  6 active torsions:
REMARK  status: ('A' for Active; 'I' for Inactive)
REMARK    1  A    between atoms: C_2  and  C_3
REMARK    2  A    between atoms: C_6  and  C_7
REMARK    3  A    between atoms: N_16  and  C_17
REMARK    4  A    between atoms: N_16  and  C_21
REMARK    5  A    between atoms: C_17  and  C_18
REMARK    6  A    between atoms: C_21  and  C_22
REMARK                            x       y       z     vdW  Elec       q    Type
REMARK                         _______ _______ _______ _____ _____    ______ ____
ROOT
ATOM      1  O   UNL     1      -8.248  -1.135 131.557  0.00  0.00    +0.000 OA
ATOM      2  C   UNL     1      -7.422  -2.039 131.372  0.00  0.00    +0.000 C 
ATOM      3  N   UNL     1      -6.563  -2.752 132.233  0.00  0.00    +0.000 N 
ENDROOT
BRANCH   2   4
ATOM      4  C   UNL     1      -7.453  -2.266 129.960  0.00  0.00    +0.000 A 
ATOM      5  C   UNL     1      -8.304  -3.243 129.484  0.00  0.00    +0.000 A 
ATOM      6  C   UNL     1      -8.407  -3.384 128.128  0.00  0.00    +0.000 A 
ATOM      7  C   UNL     1      -7.850  -2.412 127.277  0.00  0.00    +0.000 A 
ATOM      8  C   UNL     1      -7.090  -1.352 127.784  0.00  0.00    +0.000 A 
ATOM      9  C   UNL     1      -6.876  -1.284 129.139  0.00  0.00    +0.000 A 
BRANCH   7  10
ATOM     10  C   UNL     1      -8.111  -2.515 125.861  0.00  0.00    +0.000 A 
ATOM     11  C   UNL     1      -9.325  -3.051 125.408  0.00  0.00    +0.000 A 
ATOM     12  C   UNL     1      -9.512  -3.295 124.055  0.00  0.00    +0.000 A 
ATOM     13  C   UNL     1      -8.521  -2.921 123.148  0.00  0.00    +0.000 A 
ATOM     14  C   UNL     1      -7.331  -2.350 123.598  0.00  0.00    +0.000 A 
ATOM     15 CL   UNL     1      -6.088  -1.939 122.486  0.00  0.00    +0.000 Cl
ATOM     16  C   UNL     1      -7.120  -2.148 124.951  0.00  0.00    +0.000 A 
ENDBRANCH   7  10
ENDBRANCH   2   4
BRANCH   3  17
ATOM     17  C   UNL     1      -6.327  -2.449 133.673  0.00  0.00    +0.000 C 
BRANCH  17  18
ATOM     18  C   UNL     1      -7.222  -3.017 134.732  0.00  0.00    +0.000 C 
ATOM     19  C   UNL     1      -8.500  -3.683 134.342  0.00  0.00    +0.000 C 
ATOM     20  C   UNL     1      -7.296  -4.494 134.885  0.00  0.00    +0.000 C 
ENDBRANCH  17  18
ENDBRANCH   3  17
BRANCH   3  21
ATOM     21  C   UNL     1      -5.853  -3.948 131.712  0.00  0.00    +0.000 C 
BRANCH  21  22
ATOM     22  C   UNL     1      -4.437  -3.777 131.142  0.00  0.00    +0.000 C 
ATOM     23  C   UNL     1      -3.940  -2.345 131.227  0.00  0.00    +0.000 C 
ATOM     24  C   UNL     1      -3.023  -2.256 130.034  0.00  0.00    +0.000 C 
ATOM     25  C   UNL     1      -3.712  -3.132 129.013  0.00  0.00    +0.000 C 
ATOM     26  O   UNL     1      -4.431  -4.132 129.743  0.00  0.00    +0.000 OA
ENDBRANCH  21  22
ENDBRANCH   3  21
TORSDOF 6
ENDMDL
MODEL 5
REMARK VINA RESULT:      -7.6      7.045     10.237
REMARK  Name = CHEMBL473442
REMARK  6 active torsions:
REMARK  status: ('A' for Active; 'I' for Inactive)
REMARK    1  A    between atoms: C_2  and  C_3
REMARK    2  A    between atoms: C_6  and  C_7
REMARK    3  A    between atoms: N_16  and  C_17
REMARK    4  A    between atoms: N_16  and  C_21
REMARK    5  A    between atoms: C_17  and  C_18
REMARK    6  A    between atoms: C_21  and  C_22
REMARK                            x       y       z     vdW  Elec       q    Type
REMARK                         _______ _______ _______ _____ _____    ______ ____
ROOT
ATOM      1  O   UNL     1     -11.579   3.943 130.058  0.00  0.00    +0.000 OA
ATOM      2  C   UNL     1     -10.483   4.344 130.473  0.00  0.00    +0.000 C 
ATOM      3  N   UNL     1      -9.963   5.626 130.741  0.00  0.00    +0.000 N 
ENDROOT
BRANCH   2   4
ATOM      4  C   UNL     1      -9.708   3.153 130.640  0.00  0.00    +0.000 A 
ATOM      5  C   UNL     1      -9.979   2.357 131.735  0.00  0.00    +0.000 A 
ATOM      6  C   UNL     1      -9.308   1.169 131.833  0.00  0.00    +0.000 A 
ATOM      7  C   UNL     1      -8.565   0.691 130.739  0.00  0.00    +0.000 A 
ATOM      8  C   UNL     1      -8.401   1.459 129.580  0.00  0.00    +0.000 A 
ATOM      9  C   UNL     1      -8.966   2.709 129.534  0.00  0.00    +0.000 A 
BRANCH   7  10
ATOM     10  C   UNL     1      -7.999  -0.634 130.826  0.00  0.00    +0.000 A 
ATOM     11  C   UNL     1      -7.703  -1.349 129.656  0.00  0.00    +0.000 A 
ATOM     12  C   UNL     1      -7.307  -2.675 129.737  0.00  0.00    +0.000 A 
ATOM     13  C   UNL     1      -7.122  -3.260 130.990  0.00  0.00    +0.000 A 
ATOM     14  C   UNL     1      -7.378  -2.534 132.152  0.00  0.00    +0.000 A 
ATOM     15 CL   UNL     1      -7.204  -3.271 133.694  0.00  0.00    +0.000 Cl
ATOM     16  C   UNL     1      -7.819  -1.225 132.076  0.00  0.00    +0.000 A 
ENDBRANCH   7  10
ENDBRANCH   2   4
BRANCH   3  17
ATOM     17  C   UNL     1     -10.627   6.920 130.414  0.00  0.00    +0.000 C 
BRANCH  17  18
ATOM     18  C   UNL     1     -11.023   7.243 129.005  0.00  0.00    +0.000 C 
ATOM     19  C   UNL     1     -11.901   8.419 128.734  0.00  0.00    +0.000 C 
ATOM     20  C   UNL     1     -10.402   8.420 128.342  0.00  0.00    +0.000 C 
ENDBRANCH  17  18
ENDBRANCH   3  17
BRANCH   3  21
ATOM     21  C   UNL     1      -8.667   5.743 131.457  0.00  0.00    +0.000 C 
BRANCH  21  22
ATOM     22  C   UNL     1      -7.373   5.831 130.634  0.00  0.00    +0.000 C 
ATOM     23  C   UNL     1      -6.299   4.879 131.128  0.00  0.00    +0.000 C 
ATOM     24  C   UNL     1      -5.034   5.617 130.775  0.00  0.00    +0.000 C 
ATOM     25  C   UNL     1      -5.415   7.064 130.988  0.00  0.00    +0.000 C 
ATOM     26  O   UNL     1      -6.822   7.161 130.737  0.00  0.00    +0.000 OA
ENDBRANCH  21  22
ENDBRANCH   3  21
TORSDOF 6
ENDMDL
MODEL 6
REMARK VINA RESULT:      -7.4      1.587      2.275
REMARK  Name = CHEMBL473442
REMARK  6 active torsions:
REMARK  status: ('A' for Active; 'I' for Inactive)
REMARK    1  A    between atoms: C_2  and  C_3
REMARK    2  A    between atoms: C_6  and  C_7
REMARK    3  A    between atoms: N_16  and  C_17
REMARK    4  A    between atoms: N_16  and  C_21
REMARK    5  A    between atoms: C_17  and  C_18
REMARK    6  A    between atoms: C_21  and  C_22
REMARK                            x       y       z     vdW  Elec       q    Type
REMARK                         _______ _______ _______ _____ _____    ______ ____
ROOT
ATOM      1  O   UNL     1      -8.831   2.184 127.214  0.00  0.00    +0.000 OA
ATOM      2  C   UNL     1      -7.914   1.405 126.921  0.00  0.00    +0.000 C 
ATOM      3  N   UNL     1      -7.263   0.373 127.626  0.00  0.00    +0.000 N 
ENDROOT
BRANCH   2   4
ATOM      4  C   UNL     1      -7.546   1.773 125.588  0.00  0.00    +0.000 A 
ATOM      5  C   UNL     1      -8.399   1.418 124.563  0.00  0.00    +0.000 A 
ATOM      6  C   UNL     1      -8.095   1.863 123.307  0.00  0.00    +0.000 A 
ATOM      7  C   UNL     1      -7.093   2.833 123.129  0.00  0.00    +0.000 A 
ATOM      8  C   UNL     1      -6.315   3.279 124.203  0.00  0.00    +0.000 A 
ATOM      9  C   UNL     1      -6.532   2.734 125.445  0.00  0.00    +0.000 A 
BRANCH   7  10
ATOM     10  C   UNL     1      -6.907   3.388 121.810  0.00  0.00    +0.000 A 
ATOM     11  C   UNL     1      -5.640   3.836 121.410  0.00  0.00    +0.000 A 
ATOM     12  C   UNL     1      -5.491   4.510 120.206  0.00  0.00    +0.000 A 
ATOM     13  C   UNL     1      -6.593   4.658 119.363  0.00  0.00    +0.000 A 
ATOM     14  C   UNL     1      -7.844   4.175 119.746  0.00  0.00    +0.000 A 
ATOM     15 CL   UNL     1      -9.212   4.405 118.734  0.00  0.00    +0.000 Cl
ATOM     16  C   UNL     1      -8.007   3.544 120.967  0.00  0.00    +0.000 A 
ENDBRANCH   7  10
ENDBRANCH   2   4
BRANCH   3  17
ATOM     17  C   UNL     1      -7.448   0.054 129.070  0.00  0.00    +0.000 C 
BRANCH  17  18
ATOM     18  C   UNL     1      -6.963   0.995 130.130  0.00  0.00    +0.000 C 
ATOM     19  C   UNL     1      -5.742   0.656 130.919  0.00  0.00    +0.000 C 
ATOM     20  C   UNL     1      -5.737   1.794 129.867  0.00  0.00    +0.000 C 
ENDBRANCH  17  18
ENDBRANCH   3  17
BRANCH   3  21
ATOM     21  C   UNL     1      -6.343  -0.532 126.891  0.00  0.00    +0.000 C 
BRANCH  21  22
ATOM     22  C   UNL     1      -6.887  -1.867 126.360  0.00  0.00    +0.000 C 
ATOM     23  C   UNL     1      -6.621  -2.061 124.878  0.00  0.00    +0.000 C 
ATOM     24  C   UNL     1      -7.793  -2.907 124.453  0.00  0.00    +0.000 C 
ATOM     25  C   UNL     1      -8.918  -2.387 125.319  0.00  0.00    +0.000 C 
ATOM     26  O   UNL     1      -8.320  -1.909 126.529  0.00  0.00    +0.000 OA
ENDBRANCH  21  22
ENDBRANCH   3  21
TORSDOF 6
ENDMDL
MODEL 7
REMARK VINA RESULT:      -7.3      5.394      7.707
REMARK  Name = CHEMBL473442
REMARK  6 active torsions:
REMARK  status: ('A' for Active; 'I' for Inactive)
REMARK    1  A    between atoms: C_2  and  C_3
REMARK    2  A    between atoms: C_6  and  C_7
REMARK    3  A    between atoms: N_16  and  C_17
REMARK    4  A    between atoms: N_16  and  C_21
REMARK    5  A    between atoms: C_17  and  C_18
REMARK    6  A    between atoms: C_21  and  C_22
REMARK                            x       y       z     vdW  Elec       q    Type
REMARK                         _______ _______ _______ _____ _____    ______ ____
ROOT
ATOM      1  O   UNL     1      -9.238  -0.053 131.838  0.00  0.00    +0.000 OA
ATOM      2  C   UNL     1      -8.099   0.331 131.543  0.00  0.00    +0.000 C 
ATOM      3  N   UNL     1      -7.171   1.180 132.180  0.00  0.00    +0.000 N 
ENDROOT
BRANCH   2   4
ATOM      4  C   UNL     1      -7.835  -0.275 130.274  0.00  0.00    +0.000 A 
ATOM      5  C   UNL     1      -7.866  -1.653 130.199  0.00  0.00    +0.000 A 
ATOM      6  C   UNL     1      -7.717  -2.222 128.966  0.00  0.00    +0.000 A 
ATOM      7  C   UNL     1      -7.774  -1.420 127.811  0.00  0.00    +0.000 A 
ATOM      8  C   UNL     1      -7.868  -0.026 127.899  0.00  0.00    +0.000 A 
ATOM      9  C   UNL     1      -7.885   0.556 129.143  0.00  0.00    +0.000 A 
BRANCH   7  10
ATOM     10  C   UNL     1      -7.766  -2.074 126.525  0.00  0.00    +0.000 A 
ATOM     11  C   UNL     1      -8.952  -2.611 126.003  0.00  0.00    +0.000 A 
ATOM     12  C   UNL     1      -8.916  -3.373 124.845  0.00  0.00    +0.000 A 
ATOM     13  C   UNL     1      -7.710  -3.525 124.161  0.00  0.00    +0.000 A 
ATOM     14  C   UNL     1      -6.539  -2.955 124.661  0.00  0.00    +0.000 A 
ATOM     15 CL   UNL     1      -5.044  -3.188 123.849  0.00  0.00    +0.000 Cl
ATOM     16  C   UNL     1      -6.561  -2.233 125.841  0.00  0.00    +0.000 A 
ENDBRANCH   7  10
ENDBRANCH   2   4
BRANCH   3  17
ATOM     17  C   UNL     1      -7.436   2.000 133.397  0.00  0.00    +0.000 C 
BRANCH  17  18
ATOM     18  C   UNL     1      -7.944   3.405 133.278  0.00  0.00    +0.000 C 
ATOM     19  C   UNL     1      -9.318   3.738 133.757  0.00  0.00    +0.000 C 
ATOM     20  C   UNL     1      -8.056   4.229 134.509  0.00  0.00    +0.000 C 
ENDBRANCH  17  18
ENDBRANCH   3  17
BRANCH   3  21
ATOM     21  C   UNL     1      -5.783   1.252 131.658  0.00  0.00    +0.000 C 
BRANCH  21  22
ATOM     22  C   UNL     1      -4.765   0.197 132.116  0.00  0.00    +0.000 C 
ATOM     23  C   UNL     1      -4.174  -0.588 130.959  0.00  0.00    +0.000 C 
ATOM     24  C   UNL     1      -3.887  -1.923 131.595  0.00  0.00    +0.000 C 
ATOM     25  C   UNL     1      -5.026  -2.083 132.576  0.00  0.00    +0.000 C 
ATOM     26  O   UNL     1      -5.415  -0.763 132.975  0.00  0.00    +0.000 OA
ENDBRANCH  21  22
ENDBRANCH   3  21
TORSDOF 6
ENDMDL
MODEL 8
REMARK VINA RESULT:      -7.3     12.176     14.495
REMARK  Name = CHEMBL473442
REMARK  6 active torsions:
REMARK  status: ('A' for Active; 'I' for Inactive)
REMARK    1  A    between atoms: C_2  and  C_3
REMARK    2  A    between atoms: C_6  and  C_7
REMARK    3  A    between atoms: N_16  and  C_17
REMARK    4  A    between atoms: N_16  and  C_21
REMARK    5  A    between atoms: C_17  and  C_18
REMARK    6  A    between atoms: C_21  and  C_22
REMARK                            x       y       z     vdW  Elec       q    Type
REMARK                         _______ _______ _______ _____ _____    ______ ____
ROOT
ATOM      1  O   UNL     1      -1.401   8.295 135.595  0.00  0.00    +0.000 OA
ATOM      2  C   UNL     1      -0.840   8.988 134.736  0.00  0.00    +0.000 C 
ATOM      3  N   UNL     1      -0.090  10.179 134.796  0.00  0.00    +0.000 N 
ENDROOT
BRANCH   2   4
ATOM      4  C   UNL     1      -1.125   8.323 133.501  0.00  0.00    +0.000 A 
ATOM      5  C   UNL     1      -0.362   7.221 133.171  0.00  0.00    +0.000 A 
ATOM      6  C   UNL     1      -0.707   6.530 132.044  0.00  0.00    +0.000 A 
ATOM      7  C   UNL     1      -1.928   6.800 131.400  0.00  0.00    +0.000 A 
ATOM      8  C   UNL     1      -2.756   7.846 131.823  0.00  0.00    +0.000 A 
ATOM      9  C   UNL     1      -2.345   8.626 132.876  0.00  0.00    +0.000 A 
BRANCH   7  10
ATOM     10  C   UNL     1      -2.326   5.948 130.306  0.00  0.00    +0.000 A 
ATOM     11  C   UNL     1      -2.165   6.383 128.983  0.00  0.00    +0.000 A 
ATOM     12  C   UNL     1      -2.688   5.634 127.939  0.00  0.00    +0.000 A 
ATOM     13  C   UNL     1      -3.295   4.408 128.212  0.00  0.00    +0.000 A 
ATOM     14  C   UNL     1      -3.418   3.959 129.526  0.00  0.00    +0.000 A 
ATOM     15 CL   UNL     1      -4.214   2.476 129.867  0.00  0.00    +0.000 Cl
ATOM     16  C   UNL     1      -2.940   4.724 130.575  0.00  0.00    +0.000 A 
ENDBRANCH   7  10
ENDBRANCH   2   4
BRANCH   3  17
ATOM     17  C   UNL     1       0.090  11.034 136.003  0.00  0.00    +0.000 C 
BRANCH  17  18
ATOM     18  C   UNL     1      -1.077  11.746 136.618  0.00  0.00    +0.000 C 
ATOM     19  C   UNL     1      -1.452  13.108 136.136  0.00  0.00    +0.000 C 
ATOM     20  C   UNL     1      -2.332  11.869 135.831  0.00  0.00    +0.000 C 
ENDBRANCH  17  18
ENDBRANCH   3  17
BRANCH   3  21
ATOM     21  C   UNL     1       0.645  10.630 133.586  0.00  0.00    +0.000 C 
BRANCH  21  22
ATOM     22  C   UNL     1       0.349  12.027 133.019  0.00  0.00    +0.000 C 
ATOM     23  C   UNL     1      -1.009  12.110 132.344  0.00  0.00    +0.000 C 
ATOM     24  C   UNL     1      -0.774  13.158 131.287  0.00  0.00    +0.000 C 
ATOM     25  C   UNL     1       0.657  12.904 130.872  0.00  0.00    +0.000 C 
ATOM     26  O   UNL     1       1.329  12.360 132.014  0.00  0.00    +0.000 OA
ENDBRANCH  21  22
ENDBRANCH   3  21
TORSDOF 6
ENDMDL
MODEL 9
REMARK VINA RESULT:      -7.3      3.701      8.062
REMARK  Name = CHEMBL473442
REMARK  6 active torsions:
REMARK  status: ('A' for Active; 'I' for Inactive)
REMARK    1  A    between atoms: C_2  and  C_3
REMARK    2  A    between atoms: C_6  and  C_7
REMARK    3  A    between atoms: N_16  and  C_17
REMARK    4  A    between atoms: N_16  and  C_21
REMARK    5  A    between atoms: C_17  and  C_18
REMARK    6  A    between atoms: C_21  and  C_22
REMARK                            x       y       z     vdW  Elec       q    Type
REMARK                         _______ _______ _______ _____ _____    ______ ____
ROOT
ATOM      1  O   UNL     1      -8.606   1.543 126.235  0.00  0.00    +0.000 OA
ATOM      2  C   UNL     1      -8.070   0.730 125.470  0.00  0.00    +0.000 C 
ATOM      3  N   UNL     1      -8.044   0.597 124.067  0.00  0.00    +0.000 N 
ENDROOT
BRANCH   2   4
ATOM      4  C   UNL     1      -7.411  -0.196 126.339  0.00  0.00    +0.000 A 
ATOM      5  C   UNL     1      -6.152   0.135 126.798  0.00  0.00    +0.000 A 
ATOM      6  C   UNL     1      -5.571  -0.702 127.709  0.00  0.00    +0.000 A 
ATOM      7  C   UNL     1      -6.334  -1.714 128.318  0.00  0.00    +0.000 A 
ATOM      8  C   UNL     1      -7.656  -1.960 127.930  0.00  0.00    +0.000 A 
ATOM      9  C   UNL     1      -8.198  -1.204 126.920  0.00  0.00    +0.000 A 
BRANCH   7  10
ATOM     10  C   UNL     1      -5.730  -2.477 129.384  0.00  0.00    +0.000 A 
ATOM     11  C   UNL     1      -6.198  -3.766 129.677  0.00  0.00    +0.000 A 
ATOM     12  C   UNL     1      -5.726  -4.436 130.795  0.00  0.00    +0.000 A 
ATOM     13  C   UNL     1      -4.723  -3.855 131.570  0.00  0.00    +0.000 A 
ATOM     14  C   UNL     1      -4.229  -2.590 131.252  0.00  0.00    +0.000 A 
ATOM     15 CL   UNL     1      -3.033  -1.850 132.238  0.00  0.00    +0.000 Cl
ATOM     16  C   UNL     1      -4.731  -1.897 130.165  0.00  0.00    +0.000 A 
ENDBRANCH   7  10
ENDBRANCH   2   4
BRANCH   3  17
ATOM     17  C   UNL     1      -8.854   1.395 123.103  0.00  0.00    +0.000 C 
BRANCH  17  18
ATOM     18  C   UNL     1      -8.550   2.841 122.860  0.00  0.00    +0.000 C 
ATOM     19  C   UNL     1      -7.267   3.227 122.200  0.00  0.00    +0.000 C 
ATOM     20  C   UNL     1      -8.628   3.362 121.470  0.00  0.00    +0.000 C 
ENDBRANCH  17  18
ENDBRANCH   3  17
BRANCH   3  21
ATOM     21  C   UNL     1      -7.103  -0.373 123.453  0.00  0.00    +0.000 C 
BRANCH  21  22
ATOM     22  C   UNL     1      -7.631  -1.755 123.040  0.00  0.00    +0.000 C 
ATOM     23  C   UNL     1      -9.138  -1.874 123.184  0.00  0.00    +0.000 C 
ATOM     24  C   UNL     1      -9.313  -3.339 123.487  0.00  0.00    +0.000 C 
ATOM     25  C   UNL     1      -8.091  -3.662 124.317  0.00  0.00    +0.000 C 
ATOM     26  O   UNL     1      -7.056  -2.769 123.891  0.00  0.00    +0.000 OA
ENDBRANCH  21  22
ENDBRANCH   3  21
TORSDOF 6
ENDMDL
