MODEL 1
REMARK VINA RESULT:      -8.4      0.000      0.000
REMARK  Name = CHEMBL511908
REMARK  6 active torsions:
REMARK  status: ('A' for Active; 'I' for Inactive)
REMARK    1  A    between atoms: C_1  and  O_2
REMARK    2  A    between atoms: O_2  and  C_3
REMARK    3  A    between atoms: C_6  and  N_7
REMARK    4  A    between atoms: C_8  and  C_9
REMARK    5  A    between atoms: C_12  and  C_13
REMARK    6  A    between atoms: C_16  and  C_17
REMARK                            x       y       z     vdW  Elec       q    Type
REMARK                         _______ _______ _______ _____ _____    ______ ____
ROOT
ATOM      1  N   UNL     1      -7.518   0.215 126.942  0.00  0.00    +0.000 N 
ATOM      2  C   UNL     1      -7.771   0.192 128.314  0.00  0.00    +0.000 A 
ATOM      3  C   UNL     1      -7.621  -0.932 129.273  0.00  0.00    +0.000 C 
ATOM      4  N   UNL     1      -8.058   1.412 128.720  0.00  0.00    +0.000 NA
ATOM      5  N   UNL     1      -8.007   2.252 127.649  0.00  0.00    +0.000 NA
ATOM      6  C   UNL     1      -7.719   1.545 126.579  0.00  0.00    +0.000 A 
ENDROOT
BRANCH   1  10
ATOM      7  C   UNL     1      -6.299  -2.990 124.433  0.00  0.00    +0.000 A 
ATOM      8  C   UNL     1      -5.369  -2.053 124.902  0.00  0.00    +0.000 A 
ATOM      9  C   UNL     1      -5.758  -0.977 125.720  0.00  0.00    +0.000 A 
ATOM     10  C   UNL     1      -7.102  -0.827 126.068  0.00  0.00    +0.000 A 
ATOM     11  C   UNL     1      -8.028  -1.800 125.650  0.00  0.00    +0.000 A 
ATOM     12  C   UNL     1      -7.631  -2.865 124.821  0.00  0.00    +0.000 A 
BRANCH   7  14
ATOM     13  C   UNL     1      -4.359  -4.169 123.699  0.00  0.00    +0.000 C 
ATOM     14  O   UNL     1      -5.778  -4.031 123.716  0.00  0.00    +0.000 OA
ENDBRANCH   7  14
ENDBRANCH   1  10
BRANCH   6  15
ATOM     15  C   UNL     1      -7.722   2.077 125.218  0.00  0.00    +0.000 A 
ATOM     16  C   UNL     1      -8.894   2.036 124.460  0.00  0.00    +0.000 A 
ATOM     17  C   UNL     1      -8.891   2.498 123.141  0.00  0.00    +0.000 A 
ATOM     18  C   UNL     1      -7.733   3.047 122.566  0.00  0.00    +0.000 A 
ATOM     19  C   UNL     1      -6.555   3.056 123.325  0.00  0.00    +0.000 A 
ATOM     20  C   UNL     1      -6.548   2.569 124.637  0.00  0.00    +0.000 A 
BRANCH  18  21
ATOM     21  C   UNL     1      -7.779   3.608 121.211  0.00  0.00    +0.000 A 
ATOM     22  C   UNL     1      -9.007   3.745 120.541  0.00  0.00    +0.000 A 
ATOM     23  C   UNL     1      -9.060   4.186 119.218  0.00  0.00    +0.000 A 
ATOM     24  C   UNL     1      -7.888   4.550 118.562  0.00  0.00    +0.000 A 
ATOM     25  C   UNL     1      -6.664   4.460 119.222  0.00  0.00    +0.000 A 
ATOM     26  C   UNL     1      -6.609   3.986 120.536  0.00  0.00    +0.000 A 
ENDBRANCH  18  21
ENDBRANCH   6  15
TORSDOF 4
ENDMDL
MODEL 2
REMARK VINA RESULT:      -8.0      3.855      8.816
REMARK  Name = CHEMBL511908
REMARK  6 active torsions:
REMARK  status: ('A' for Active; 'I' for Inactive)
REMARK    1  A    between atoms: C_1  and  O_2
REMARK    2  A    between atoms: O_2  and  C_3
REMARK    3  A    between atoms: C_6  and  N_7
REMARK    4  A    between atoms: C_8  and  C_9
REMARK    5  A    between atoms: C_12  and  C_13
REMARK    6  A    between atoms: C_16  and  C_17
REMARK                            x       y       z     vdW  Elec       q    Type
REMARK                         _______ _______ _______ _____ _____    ______ ____
ROOT
ATOM      1  N   UNL     1      -8.733  -1.087 124.583  0.00  0.00    +0.000 N 
ATOM      2  C   UNL     1      -9.443  -1.280 123.398  0.00  0.00    +0.000 A 
ATOM      3  C   UNL     1      -9.743  -0.304 122.319  0.00  0.00    +0.000 C 
ATOM      4  N   UNL     1      -9.730  -2.559 123.270  0.00  0.00    +0.000 NA
ATOM      5  N   UNL     1      -9.232  -3.228 124.347  0.00  0.00    +0.000 NA
ATOM      6  C   UNL     1      -8.665  -2.357 125.152  0.00  0.00    +0.000 A 
ENDROOT
BRANCH   1  10
ATOM      7  C   UNL     1      -7.085   2.511 126.129  0.00  0.00    +0.000 A 
ATOM      8  C   UNL     1      -6.421   1.790 125.128  0.00  0.00    +0.000 A 
ATOM      9  C   UNL     1      -6.945   0.589 124.616  0.00  0.00    +0.000 A 
ATOM     10  C   UNL     1      -8.147   0.093 125.122  0.00  0.00    +0.000 A 
ATOM     11  C   UNL     1      -8.847   0.845 126.082  0.00  0.00    +0.000 A 
ATOM     12  C   UNL     1      -8.309   2.038 126.597  0.00  0.00    +0.000 A 
BRANCH   7  14
ATOM     13  C   UNL     1      -5.427   4.167 125.678  0.00  0.00    +0.000 C 
ATOM     14  O   UNL     1      -6.511   3.703 126.479  0.00  0.00    +0.000 OA
ENDBRANCH   7  14
ENDBRANCH   1  10
BRANCH   6  15
ATOM     15  C   UNL     1      -8.149  -2.681 126.480  0.00  0.00    +0.000 A 
ATOM     16  C   UNL     1      -8.946  -3.391 127.380  0.00  0.00    +0.000 A 
ATOM     17  C   UNL     1      -8.477  -3.661 128.669  0.00  0.00    +0.000 A 
ATOM     18  C   UNL     1      -7.190  -3.267 129.071  0.00  0.00    +0.000 A 
ATOM     19  C   UNL     1      -6.410  -2.529 128.171  0.00  0.00    +0.000 A 
ATOM     20  C   UNL     1      -6.887  -2.233 126.889  0.00  0.00    +0.000 A 
BRANCH  18  21
ATOM     21  C   UNL     1      -6.686  -3.641 130.398  0.00  0.00    +0.000 A 
ATOM     22  C   UNL     1      -5.720  -4.655 130.529  0.00  0.00    +0.000 A 
ATOM     23  C   UNL     1      -5.301  -5.090 131.786  0.00  0.00    +0.000 A 
ATOM     24  C   UNL     1      -5.800  -4.480 132.933  0.00  0.00    +0.000 A 
ATOM     25  C   UNL     1      -6.728  -3.445 132.823  0.00  0.00    +0.000 A 
ATOM     26  C   UNL     1      -7.173  -3.033 131.564  0.00  0.00    +0.000 A 
ENDBRANCH  18  21
ENDBRANCH   6  15
TORSDOF 4
ENDMDL
MODEL 3
REMARK VINA RESULT:      -7.6      7.238      8.846
REMARK  Name = CHEMBL511908
REMARK  6 active torsions:
REMARK  status: ('A' for Active; 'I' for Inactive)
REMARK    1  A    between atoms: C_1  and  O_2
REMARK    2  A    between atoms: O_2  and  C_3
REMARK    3  A    between atoms: C_6  and  N_7
REMARK    4  A    between atoms: C_8  and  C_9
REMARK    5  A    between atoms: C_12  and  C_13
REMARK    6  A    between atoms: C_16  and  C_17
REMARK                            x       y       z     vdW  Elec       q    Type
REMARK                         _______ _______ _______ _____ _____    ______ ____
ROOT
ATOM      1  N   UNL     1      -6.734   3.791 133.758  0.00  0.00    +0.000 N 
ATOM      2  C   UNL     1      -5.957   3.702 134.914  0.00  0.00    +0.000 A 
ATOM      3  C   UNL     1      -5.214   2.535 135.452  0.00  0.00    +0.000 C 
ATOM      4  N   UNL     1      -5.841   4.901 135.449  0.00  0.00    +0.000 NA
ATOM      5  N   UNL     1      -6.528   5.791 134.679  0.00  0.00    +0.000 NA
ATOM      6  C   UNL     1      -7.091   5.136 133.688  0.00  0.00    +0.000 A 
ENDROOT
BRANCH   1  10
ATOM      7  C   UNL     1      -7.744   0.713 131.009  0.00  0.00    +0.000 A 
ATOM      8  C   UNL     1      -6.558   1.444 130.863  0.00  0.00    +0.000 A 
ATOM      9  C   UNL     1      -6.216   2.476 131.754  0.00  0.00    +0.000 A 
ATOM     10  C   UNL     1      -7.079   2.793 132.804  0.00  0.00    +0.000 A 
ATOM     11  C   UNL     1      -8.241   2.021 132.990  0.00  0.00    +0.000 A 
ATOM     12  C   UNL     1      -8.580   0.999 132.086  0.00  0.00    +0.000 A 
BRANCH   7  14
ATOM     13  C   UNL     1      -7.716  -1.640 130.615  0.00  0.00    +0.000 C 
ATOM     14  O   UNL     1      -7.916  -0.317 130.125  0.00  0.00    +0.000 OA
ENDBRANCH   7  14
ENDBRANCH   1  10
BRANCH   6  15
ATOM     15  C   UNL     1      -8.028   5.731 132.738  0.00  0.00    +0.000 A 
ATOM     16  C   UNL     1      -9.402   5.559 132.918  0.00  0.00    +0.000 A 
ATOM     17  C   UNL     1     -10.302   6.084 131.986  0.00  0.00    +0.000 A 
ATOM     18  C   UNL     1      -9.853   6.826 130.882  0.00  0.00    +0.000 A 
ATOM     19  C   UNL     1      -8.472   6.968 130.694  0.00  0.00    +0.000 A 
ATOM     20  C   UNL     1      -7.567   6.420 131.611  0.00  0.00    +0.000 A 
BRANCH  18  21
ATOM     21  C   UNL     1     -10.820   7.444 129.967  0.00  0.00    +0.000 A 
ATOM     22  C   UNL     1     -10.438   7.792 128.660  0.00  0.00    +0.000 A 
ATOM     23  C   UNL     1     -11.315   8.467 127.810  0.00  0.00    +0.000 A 
ATOM     24  C   UNL     1     -12.608   8.756 128.235  0.00  0.00    +0.000 A 
ATOM     25  C   UNL     1     -13.019   8.384 129.514  0.00  0.00    +0.000 A 
ATOM     26  C   UNL     1     -12.129   7.737 130.377  0.00  0.00    +0.000 A 
ENDBRANCH  18  21
ENDBRANCH   6  15
TORSDOF 4
ENDMDL
MODEL 4
REMARK VINA RESULT:      -7.6      2.597      8.240
REMARK  Name = CHEMBL511908
REMARK  6 active torsions:
REMARK  status: ('A' for Active; 'I' for Inactive)
REMARK    1  A    between atoms: C_1  and  O_2
REMARK    2  A    between atoms: O_2  and  C_3
REMARK    3  A    between atoms: C_6  and  N_7
REMARK    4  A    between atoms: C_8  and  C_9
REMARK    5  A    between atoms: C_12  and  C_13
REMARK    6  A    between atoms: C_16  and  C_17
REMARK                            x       y       z     vdW  Elec       q    Type
REMARK                         _______ _______ _______ _____ _____    ______ ____
ROOT
ATOM      1  N   UNL     1      -7.924  -0.129 125.537  0.00  0.00    +0.000 N 
ATOM      2  C   UNL     1      -8.398   1.022 124.906  0.00  0.00    +0.000 A 
ATOM      3  C   UNL     1      -8.396   1.364 123.461  0.00  0.00    +0.000 C 
ATOM      4  N   UNL     1      -9.016   1.775 125.793  0.00  0.00    +0.000 NA
ATOM      5  N   UNL     1      -8.962   1.157 127.006  0.00  0.00    +0.000 NA
ATOM      6  C   UNL     1      -8.284   0.039 126.872  0.00  0.00    +0.000 A 
ENDROOT
BRANCH   1  10
ATOM      7  C   UNL     1      -5.976  -3.594 124.036  0.00  0.00    +0.000 A 
ATOM      8  C   UNL     1      -5.240  -2.460 124.402  0.00  0.00    +0.000 A 
ATOM      9  C   UNL     1      -5.869  -1.299 124.887  0.00  0.00    +0.000 A 
ATOM     10  C   UNL     1      -7.261  -1.266 124.995  0.00  0.00    +0.000 A 
ATOM     11  C   UNL     1      -7.998  -2.423 124.687  0.00  0.00    +0.000 A 
ATOM     12  C   UNL     1      -7.359  -3.574 124.192  0.00  0.00    +0.000 A 
BRANCH   7  14
ATOM     13  C   UNL     1      -3.825  -4.509 123.553  0.00  0.00    +0.000 C 
ATOM     14  O   UNL     1      -5.236  -4.682 123.661  0.00  0.00    +0.000 OA
ENDBRANCH   7  14
ENDBRANCH   1  10
BRANCH   6  15
ATOM     15  C   UNL     1      -7.893  -0.822 127.986  0.00  0.00    +0.000 A 
ATOM     16  C   UNL     1      -7.043  -0.330 128.977  0.00  0.00    +0.000 A 
ATOM     17  C   UNL     1      -6.625  -1.162 130.019  0.00  0.00    +0.000 A 
ATOM     18  C   UNL     1      -7.079  -2.487 130.116  0.00  0.00    +0.000 A 
ATOM     19  C   UNL     1      -7.908  -2.981 129.100  0.00  0.00    +0.000 A 
ATOM     20  C   UNL     1      -8.306  -2.158 128.041  0.00  0.00    +0.000 A 
BRANCH  18  21
ATOM     21  C   UNL     1      -6.699  -3.314 131.268  0.00  0.00    +0.000 A 
ATOM     22  C   UNL     1      -7.240  -3.052 132.539  0.00  0.00    +0.000 A 
ATOM     23  C   UNL     1      -6.818  -3.764 133.661  0.00  0.00    +0.000 A 
ATOM     24  C   UNL     1      -5.887  -4.790 133.522  0.00  0.00    +0.000 A 
ATOM     25  C   UNL     1      -5.369  -5.093 132.264  0.00  0.00    +0.000 A 
ATOM     26  C   UNL     1      -5.768  -4.356 131.145  0.00  0.00    +0.000 A 
ENDBRANCH  18  21
ENDBRANCH   6  15
TORSDOF 4
ENDMDL
MODEL 5
REMARK VINA RESULT:      -7.6      7.413      8.815
REMARK  Name = CHEMBL511908
REMARK  6 active torsions:
REMARK  status: ('A' for Active; 'I' for Inactive)
REMARK    1  A    between atoms: C_1  and  O_2
REMARK    2  A    between atoms: O_2  and  C_3
REMARK    3  A    between atoms: C_6  and  N_7
REMARK    4  A    between atoms: C_8  and  C_9
REMARK    5  A    between atoms: C_12  and  C_13
REMARK    6  A    between atoms: C_16  and  C_17
REMARK                            x       y       z     vdW  Elec       q    Type
REMARK                         _______ _______ _______ _____ _____    ______ ____
ROOT
ATOM      1  N   UNL     1      -7.025   3.226 132.071  0.00  0.00    +0.000 N 
ATOM      2  C   UNL     1      -6.649   2.168 132.898  0.00  0.00    +0.000 A 
ATOM      3  C   UNL     1      -5.306   1.562 133.089  0.00  0.00    +0.000 C 
ATOM      4  N   UNL     1      -7.675   1.822 133.649  0.00  0.00    +0.000 NA
ATOM      5  N   UNL     1      -8.732   2.623 133.340  0.00  0.00    +0.000 NA
ATOM      6  C   UNL     1      -8.366   3.441 132.378  0.00  0.00    +0.000 A 
ENDROOT
BRANCH   1  10
ATOM      7  C   UNL     1      -4.819   5.597 129.320  0.00  0.00    +0.000 A 
ATOM      8  C   UNL     1      -5.558   4.491 128.882  0.00  0.00    +0.000 A 
ATOM      9  C   UNL     1      -6.281   3.686 129.780  0.00  0.00    +0.000 A 
ATOM     10  C   UNL     1      -6.256   3.985 131.144  0.00  0.00    +0.000 A 
ATOM     11  C   UNL     1      -5.566   5.130 131.580  0.00  0.00    +0.000 A 
ATOM     12  C   UNL     1      -4.836   5.921 130.675  0.00  0.00    +0.000 A 
BRANCH   7  14
ATOM     13  C   UNL     1      -2.807   6.338 128.273  0.00  0.00    +0.000 C 
ATOM     14  O   UNL     1      -4.231   6.343 128.336  0.00  0.00    +0.000 OA
ENDBRANCH   7  14
ENDBRANCH   1  10
BRANCH   6  15
ATOM     15  C   UNL     1      -9.276   4.349 131.682  0.00  0.00    +0.000 A 
ATOM     16  C   UNL     1     -10.257   3.833 130.833  0.00  0.00    +0.000 A 
ATOM     17  C   UNL     1     -11.098   4.697 130.127  0.00  0.00    +0.000 A 
ATOM     18  C   UNL     1     -11.006   6.089 130.285  0.00  0.00    +0.000 A 
ATOM     19  C   UNL     1      -9.999   6.598 131.116  0.00  0.00    +0.000 A 
ATOM     20  C   UNL     1      -9.138   5.736 131.803  0.00  0.00    +0.000 A 
BRANCH  18  21
ATOM     21  C   UNL     1     -11.959   6.973 129.603  0.00  0.00    +0.000 A 
ATOM     22  C   UNL     1     -12.896   6.442 128.699  0.00  0.00    +0.000 A 
ATOM     23  C   UNL     1     -13.744   7.276 127.970  0.00  0.00    +0.000 A 
ATOM     24  C   UNL     1     -13.708   8.653 128.175  0.00  0.00    +0.000 A 
ATOM     25  C   UNL     1     -12.814   9.195 129.097  0.00  0.00    +0.000 A 
ATOM     26  C   UNL     1     -11.941   8.361 129.802  0.00  0.00    +0.000 A 
ENDBRANCH  18  21
ENDBRANCH   6  15
TORSDOF 4
ENDMDL
MODEL 6
REMARK VINA RESULT:      -7.4      2.871      7.220
REMARK  Name = CHEMBL511908
REMARK  6 active torsions:
REMARK  status: ('A' for Active; 'I' for Inactive)
REMARK    1  A    between atoms: C_1  and  O_2
REMARK    2  A    between atoms: O_2  and  C_3
REMARK    3  A    between atoms: C_6  and  N_7
REMARK    4  A    between atoms: C_8  and  C_9
REMARK    5  A    between atoms: C_12  and  C_13
REMARK    6  A    between atoms: C_16  and  C_17
REMARK                            x       y       z     vdW  Elec       q    Type
REMARK                         _______ _______ _______ _____ _____    ______ ____
ROOT
ATOM      1  N   UNL     1      -6.757   2.689 123.536  0.00  0.00    +0.000 N 
ATOM      2  C   UNL     1      -6.145   3.561 122.635  0.00  0.00    +0.000 A 
ATOM      3  C   UNL     1      -6.221   3.578 121.152  0.00  0.00    +0.000 C 
ATOM      4  N   UNL     1      -5.549   4.525 123.307  0.00  0.00    +0.000 NA
ATOM      5  N   UNL     1      -5.744   4.315 124.639  0.00  0.00    +0.000 NA
ATOM      6  C   UNL     1      -6.433   3.206 124.788  0.00  0.00    +0.000 A 
ENDROOT
BRANCH   1  10
ATOM      7  C   UNL     1      -9.262  -0.692 122.945  0.00  0.00    +0.000 A 
ATOM      8  C   UNL     1      -7.903  -0.851 123.244  0.00  0.00    +0.000 A 
ATOM      9  C   UNL     1      -7.056   0.258 123.427  0.00  0.00    +0.000 A 
ATOM     10  C   UNL     1      -7.574   1.547 123.298  0.00  0.00    +0.000 A 
ATOM     11  C   UNL     1      -8.950   1.710 123.059  0.00  0.00    +0.000 A 
ATOM     12  C   UNL     1      -9.785   0.596 122.865  0.00  0.00    +0.000 A 
BRANCH   7  14
ATOM     13  C   UNL     1      -9.368  -3.043 123.343  0.00  0.00    +0.000 C 
ATOM     14  O   UNL     1      -9.990  -1.848 122.874  0.00  0.00    +0.000 OA
ENDBRANCH   7  14
ENDBRANCH   1  10
BRANCH   6  15
ATOM     15  C   UNL     1      -6.711   2.580 126.079  0.00  0.00    +0.000 A 
ATOM     16  C   UNL     1      -7.902   2.866 126.747  0.00  0.00    +0.000 A 
ATOM     17  C   UNL     1      -8.152   2.309 128.004  0.00  0.00    +0.000 A 
ATOM     18  C   UNL     1      -7.240   1.423 128.600  0.00  0.00    +0.000 A 
ATOM     19  C   UNL     1      -6.034   1.165 127.935  0.00  0.00    +0.000 A 
ATOM     20  C   UNL     1      -5.769   1.743 126.688  0.00  0.00    +0.000 A 
BRANCH  18  21
ATOM     21  C   UNL     1      -7.565   0.780 129.879  0.00  0.00    +0.000 A 
ATOM     22  C   UNL     1      -6.863  -0.364 130.295  0.00  0.00    +0.000 A 
ATOM     23  C   UNL     1      -7.222  -1.045 131.459  0.00  0.00    +0.000 A 
ATOM     24  C   UNL     1      -8.255  -0.558 132.256  0.00  0.00    +0.000 A 
ATOM     25  C   UNL     1      -8.937   0.599 131.880  0.00  0.00    +0.000 A 
ATOM     26  C   UNL     1      -8.598   1.260 130.697  0.00  0.00    +0.000 A 
ENDBRANCH  18  21
ENDBRANCH   6  15
TORSDOF 4
ENDMDL
MODEL 7
REMARK VINA RESULT:      -7.4      5.689      7.085
REMARK  Name = CHEMBL511908
REMARK  6 active torsions:
REMARK  status: ('A' for Active; 'I' for Inactive)
REMARK    1  A    between atoms: C_1  and  O_2
REMARK    2  A    between atoms: O_2  and  C_3
REMARK    3  A    between atoms: C_6  and  N_7
REMARK    4  A    between atoms: C_8  and  C_9
REMARK    5  A    between atoms: C_12  and  C_13
REMARK    6  A    between atoms: C_16  and  C_17
REMARK                            x       y       z     vdW  Elec       q    Type
REMARK                         _______ _______ _______ _____ _____    ______ ____
ROOT
ATOM      1  N   UNL     1      -6.664  -2.817 130.461  0.00  0.00    +0.000 N 
ATOM      2  C   UNL     1      -5.963  -3.784 131.182  0.00  0.00    +0.000 A 
ATOM      3  C   UNL     1      -5.607  -5.170 130.787  0.00  0.00    +0.000 C 
ATOM      4  N   UNL     1      -5.502  -3.243 132.292  0.00  0.00    +0.000 NA
ATOM      5  N   UNL     1      -5.883  -1.936 132.332  0.00  0.00    +0.000 NA
ATOM      6  C   UNL     1      -6.603  -1.680 131.263  0.00  0.00    +0.000 A 
ENDROOT
BRANCH   1  10
ATOM      7  C   UNL     1      -8.476  -3.185 126.636  0.00  0.00    +0.000 A 
ATOM      8  C   UNL     1      -7.251  -2.522 126.788  0.00  0.00    +0.000 A 
ATOM      9  C   UNL     1      -6.645  -2.378 128.049  0.00  0.00    +0.000 A 
ATOM     10  C   UNL     1      -7.279  -2.894 129.180  0.00  0.00    +0.000 A 
ATOM     11  C   UNL     1      -8.478  -3.613 129.023  0.00  0.00    +0.000 A 
ATOM     12  C   UNL     1      -9.082  -3.741 127.759  0.00  0.00    +0.000 A 
BRANCH   7  14
ATOM     13  C   UNL     1      -7.927  -3.529 124.339  0.00  0.00    +0.000 C 
ATOM     14  O   UNL     1      -8.914  -3.328 125.347  0.00  0.00    +0.000 OA
ENDBRANCH   7  14
ENDBRANCH   1  10
BRANCH   6  15
ATOM     15  C   UNL     1      -7.309  -0.421 131.030  0.00  0.00    +0.000 A 
ATOM     16  C   UNL     1      -6.719   0.570 130.244  0.00  0.00    +0.000 A 
ATOM     17  C   UNL     1      -7.366   1.795 130.058  0.00  0.00    +0.000 A 
ATOM     18  C   UNL     1      -8.630   2.039 130.617  0.00  0.00    +0.000 A 
ATOM     19  C   UNL     1      -9.201   1.050 131.429  0.00  0.00    +0.000 A 
ATOM     20  C   UNL     1      -8.543  -0.167 131.639  0.00  0.00    +0.000 A 
BRANCH  18  21
ATOM     21  C   UNL     1      -9.330   3.298 130.333  0.00  0.00    +0.000 A 
ATOM     22  C   UNL     1      -8.613   4.423 129.889  0.00  0.00    +0.000 A 
ATOM     23  C   UNL     1      -9.246   5.653 129.707  0.00  0.00    +0.000 A 
ATOM     24  C   UNL     1     -10.619   5.764 129.912  0.00  0.00    +0.000 A 
ATOM     25  C   UNL     1     -11.354   4.649 130.313  0.00  0.00    +0.000 A 
ATOM     26  C   UNL     1     -10.713   3.426 130.527  0.00  0.00    +0.000 A 
ENDBRANCH  18  21
ENDBRANCH   6  15
TORSDOF 4
ENDMDL
MODEL 8
REMARK VINA RESULT:      -7.3      7.576      9.470
REMARK  Name = CHEMBL511908
REMARK  6 active torsions:
REMARK  status: ('A' for Active; 'I' for Inactive)
REMARK    1  A    between atoms: C_1  and  O_2
REMARK    2  A    between atoms: O_2  and  C_3
REMARK    3  A    between atoms: C_6  and  N_7
REMARK    4  A    between atoms: C_8  and  C_9
REMARK    5  A    between atoms: C_12  and  C_13
REMARK    6  A    between atoms: C_16  and  C_17
REMARK                            x       y       z     vdW  Elec       q    Type
REMARK                         _______ _______ _______ _____ _____    ______ ____
ROOT
ATOM      1  N   UNL     1      -7.552   2.480 131.516  0.00  0.00    +0.000 N 
ATOM      2  C   UNL     1      -6.810   1.323 131.274  0.00  0.00    +0.000 A 
ATOM      3  C   UNL     1      -5.785   0.675 132.130  0.00  0.00    +0.000 C 
ATOM      4  N   UNL     1      -7.249   0.753 130.170  0.00  0.00    +0.000 NA
ATOM      5  N   UNL     1      -8.266   1.505 129.665  0.00  0.00    +0.000 NA
ATOM      6  C   UNL     1      -8.433   2.553 130.440  0.00  0.00    +0.000 A 
ENDROOT
BRANCH   1  10
ATOM      7  C   UNL     1      -7.528   5.254 134.734  0.00  0.00    +0.000 A 
ATOM      8  C   UNL     1      -6.582   5.342 133.705  0.00  0.00    +0.000 A 
ATOM      9  C   UNL     1      -6.566   4.423 132.640  0.00  0.00    +0.000 A 
ATOM     10  C   UNL     1      -7.504   3.390 132.609  0.00  0.00    +0.000 A 
ATOM     11  C   UNL     1      -8.493   3.335 133.608  0.00  0.00    +0.000 A 
ATOM     12  C   UNL     1      -8.492   4.251 134.675  0.00  0.00    +0.000 A 
BRANCH   7  14
ATOM     13  C   UNL     1      -6.261   6.443 136.371  0.00  0.00    +0.000 C 
ATOM     14  O   UNL     1      -7.485   6.257 135.663  0.00  0.00    +0.000 OA
ENDBRANCH   7  14
ENDBRANCH   1  10
BRANCH   6  15
ATOM     15  C   UNL     1      -9.335   3.663 130.137  0.00  0.00    +0.000 A 
ATOM     16  C   UNL     1      -8.847   4.795 129.483  0.00  0.00    +0.000 A 
ATOM     17  C   UNL     1      -9.693   5.880 129.234  0.00  0.00    +0.000 A 
ATOM     18  C   UNL     1     -11.049   5.840 129.594  0.00  0.00    +0.000 A 
ATOM     19  C   UNL     1     -11.523   4.712 130.277  0.00  0.00    +0.000 A 
ATOM     20  C   UNL     1     -10.672   3.635 130.551  0.00  0.00    +0.000 A 
BRANCH  18  21
ATOM     21  C   UNL     1     -11.938   6.954 129.241  0.00  0.00    +0.000 A 
ATOM     22  C   UNL     1     -12.813   6.843 128.147  0.00  0.00    +0.000 A 
ATOM     23  C   UNL     1     -13.595   7.925 127.739  0.00  0.00    +0.000 A 
ATOM     24  C   UNL     1     -13.555   9.118 128.454  0.00  0.00    +0.000 A 
ATOM     25  C   UNL     1     -12.723   9.234 129.566  0.00  0.00    +0.000 A 
ATOM     26  C   UNL     1     -11.916   8.161 129.954  0.00  0.00    +0.000 A 
ENDBRANCH  18  21
ENDBRANCH   6  15
TORSDOF 4
ENDMDL
MODEL 9
REMARK VINA RESULT:      -7.3      6.893      8.871
REMARK  Name = CHEMBL511908
REMARK  6 active torsions:
REMARK  status: ('A' for Active; 'I' for Inactive)
REMARK    1  A    between atoms: C_1  and  O_2
REMARK    2  A    between atoms: O_2  and  C_3
REMARK    3  A    between atoms: C_6  and  N_7
REMARK    4  A    between atoms: C_8  and  C_9
REMARK    5  A    between atoms: C_12  and  C_13
REMARK    6  A    between atoms: C_16  and  C_17
REMARK                            x       y       z     vdW  Elec       q    Type
REMARK                         _______ _______ _______ _____ _____    ______ ____
ROOT
ATOM      1  N   UNL     1      -4.726   4.667 132.315  0.00  0.00    +0.000 N 
ATOM      2  C   UNL     1      -3.886   4.374 133.390  0.00  0.00    +0.000 A 
ATOM      3  C   UNL     1      -2.600   3.631 133.395  0.00  0.00    +0.000 C 
ATOM      4  N   UNL     1      -4.331   4.991 134.465  0.00  0.00    +0.000 NA
ATOM      5  N   UNL     1      -5.454   5.688 134.136  0.00  0.00    +0.000 NA
ATOM      6  C   UNL     1      -5.717   5.475 132.866  0.00  0.00    +0.000 A 
ENDROOT
BRANCH   1  10
ATOM      7  C   UNL     1      -4.373   3.445 128.261  0.00  0.00    +0.000 A 
ATOM      8  C   UNL     1      -3.544   4.447 128.782  0.00  0.00    +0.000 A 
ATOM      9  C   UNL     1      -3.658   4.874 130.117  0.00  0.00    +0.000 A 
ATOM     10  C   UNL     1      -4.625   4.299 130.944  0.00  0.00    +0.000 A 
ATOM     11  C   UNL     1      -5.417   3.251 130.441  0.00  0.00    +0.000 A 
ATOM     12  C   UNL     1      -5.304   2.839 129.102  0.00  0.00    +0.000 A 
BRANCH   7  14
ATOM     13  C   UNL     1      -2.902   3.557 126.385  0.00  0.00    +0.000 C 
ATOM     14  O   UNL     1      -4.103   3.065 126.975  0.00  0.00    +0.000 OA
ENDBRANCH   7  14
ENDBRANCH   1  10
BRANCH   6  15
ATOM     15  C   UNL     1      -6.927   5.939 132.189  0.00  0.00    +0.000 A 
ATOM     16  C   UNL     1      -8.165   5.390 132.528  0.00  0.00    +0.000 A 
ATOM     17  C   UNL     1      -9.320   5.793 131.851  0.00  0.00    +0.000 A 
ATOM     18  C   UNL     1      -9.269   6.780 130.854  0.00  0.00    +0.000 A 
ATOM     19  C   UNL     1      -8.018   7.303 130.500  0.00  0.00    +0.000 A 
ATOM     20  C   UNL     1      -6.857   6.882 131.157  0.00  0.00    +0.000 A 
BRANCH  18  21
ATOM     21  C   UNL     1     -10.506   7.252 130.220  0.00  0.00    +0.000 A 
ATOM     22  C   UNL     1     -10.452   8.019 129.043  0.00  0.00    +0.000 A 
ATOM     23  C   UNL     1     -11.611   8.556 128.482  0.00  0.00    +0.000 A 
ATOM     24  C   UNL     1     -12.849   8.289 129.058  0.00  0.00    +0.000 A 
ATOM     25  C   UNL     1     -12.927   7.497 130.203  0.00  0.00    +0.000 A 
ATOM     26  C   UNL     1     -11.763   6.987 130.783  0.00  0.00    +0.000 A 
ENDBRANCH  18  21
ENDBRANCH   6  15
TORSDOF 4
ENDMDL
