MODEL 1
REMARK VINA RESULT:      -8.7      0.000      0.000
REMARK  Name = CHEMBL429736
REMARK  9 active torsions:
REMARK  status: ('A' for Active; 'I' for Inactive)
REMARK    1  A    between atoms: CD1_1  and  CG1_2
REMARK    2  A    between atoms: CG1_2  and  CB_3
REMARK    3  A    between atoms: CB_3  and  CG2_4
REMARK    4  A    between atoms: CB_3  and  CA_5
REMARK    5  A    between atoms: C_9  and  C_10
REMARK    6  A    between atoms: N_21  and  C_22
REMARK    7  A    between atoms: C_22  and  C_23
REMARK    8  A    between atoms: C_22  and  C_31
REMARK    9  A    between atoms: C_34  and  C_35
REMARK                            x       y       z     vdW  Elec       q    Type
REMARK                         _______ _______ _______ _____ _____    ______ ____
ROOT
ATOM      1  CA  ILE A   2      -8.220   2.718 128.697  0.00  0.00    +0.000 C 
ATOM      2  C   ILE A   2      -8.310   4.189 128.152  0.00  0.00    +0.000 C 
ATOM      3  O   ILE A   2      -8.390   4.712 127.082  0.00  0.00    +0.000 OA
ATOM      4  N   UNK A   1      -8.580   5.079 129.095  0.00  0.00    +0.000 N 
ATOM      5  C   UNK A   1      -9.193   4.693 130.309  0.00  0.00    +0.000 C 
ATOM      6  C   UNK A   1      -8.234   3.707 130.981  0.00  0.00    +0.000 C 
ATOM      7  O   UNK A   1      -8.117   3.792 132.190  0.00  0.00    +0.000 OA
ATOM      8  N   ILE A   2      -7.586   2.803 130.097  0.00  0.00    +0.000 N 
ATOM      9  H   UNK A   1      -8.778   5.945 128.608  0.00  0.00    +0.000 HD
ENDROOT
BRANCH   5  10
ATOM     10  C   UNK A   1      -9.316   5.952 131.165  0.00  0.00    +0.000 C 
ATOM     11  C   UNK A   1     -10.764   6.135 131.661  0.00  0.00    +0.000 C 
ATOM     12  C   UNK A   1     -11.364   7.001 130.588  0.00  0.00    +0.000 A 
ATOM     13  C   UNK A   1     -12.700   7.111 130.239  0.00  0.00    +0.000 A 
ATOM     14  C   UNK A   1     -13.030   7.853 129.102  0.00  0.00    +0.000 A 
ATOM     15  C   UNK A   1     -12.030   8.450 128.318  0.00  0.00    +0.000 A 
ATOM     16  C   UNK A   1     -10.683   8.317 128.659  0.00  0.00    +0.000 A 
ATOM     17  C   UNK A   1     -10.364   7.606 129.807  0.00  0.00    +0.000 A 
ATOM     18  C   UNK A   1      -8.998   7.221 130.307  0.00  0.00    +0.000 C 
ENDBRANCH   5  10
BRANCH   1  19
ATOM     19  CB  ILE A   2      -7.558   1.784 127.702  0.00  0.00    +0.000 C 
ATOM     20  CG2 ILE A   2      -8.513   0.893 126.840  0.00  0.00    +0.000 C 
BRANCH  19  22
ATOM     21  CD1 ILE A   2      -5.079   1.473 126.852  0.00  0.00    +0.000 C 
ATOM     22  CG1 ILE A   2      -6.155   2.442 127.118  0.00  0.00    +0.000 C 
ENDBRANCH  19  22
ENDBRANCH   1  19
BRANCH   8  23
ATOM     23  C   UNK A   0      -6.350   2.006 130.566  0.00  0.00    +0.000 C 
BRANCH  23  24
ATOM     24  C   UNK A   0      -4.790   2.695 130.546  0.00  0.00    +0.000 C 
ATOM     25  O   UNK A   0      -3.791   2.000 130.312  0.00  0.00    +0.000 OA
ATOM     26  N   UNK A   0      -4.556   4.076 130.471  0.00  0.00    +0.000 N 
ATOM     27  C   UNK A   0      -4.802   5.099 131.465  0.00  0.00    +0.000 C 
ATOM     28  C   UNK A   0      -5.325   6.479 130.615  0.00  0.00    +0.000 C 
ATOM     29  O   UNK A   0      -4.530   6.861 129.530  0.00  0.00    +0.000 OA
ATOM     30  C   UNK A   0      -4.283   5.726 128.724  0.00  0.00    +0.000 C 
ATOM     31  C   UNK A   0      -3.589   4.640 129.556  0.00  0.00    +0.000 C 
ENDBRANCH  23  24
BRANCH  23  32
ATOM     32  C   UNK A   0      -6.576   1.348 131.979  0.00  0.00    +0.000 A 
ATOM     33  C   UNK A   0      -7.467   0.357 132.336  0.00  0.00    +0.000 A 
ATOM     34  O   UNK A   0      -7.192  -0.090 133.581  0.00  0.00    +0.000 OA
ATOM     35  C   UNK A   0      -6.148   0.681 133.987  0.00  0.00    +0.000 A 
ATOM     36  C   UNK A   0      -5.602   0.296 135.310  0.00  0.00    +0.000 C 
ATOM     37  N   UNK A   0      -5.815   1.640 133.129  0.00  0.00    +0.000 NA
ENDBRANCH  23  32
ENDBRANCH   8  23
TORSDOF 6
ENDMDL
MODEL 2
REMARK VINA RESULT:      -8.5      1.968      5.252
REMARK  Name = CHEMBL429736
REMARK  9 active torsions:
REMARK  status: ('A' for Active; 'I' for Inactive)
REMARK    1  A    between atoms: CD1_1  and  CG1_2
REMARK    2  A    between atoms: CG1_2  and  CB_3
REMARK    3  A    between atoms: CB_3  and  CG2_4
REMARK    4  A    between atoms: CB_3  and  CA_5
REMARK    5  A    between atoms: C_9  and  C_10
REMARK    6  A    between atoms: N_21  and  C_22
REMARK    7  A    between atoms: C_22  and  C_23
REMARK    8  A    between atoms: C_22  and  C_31
REMARK    9  A    between atoms: C_34  and  C_35
REMARK                            x       y       z     vdW  Elec       q    Type
REMARK                         _______ _______ _______ _____ _____    ______ ____
ROOT
ATOM      1  CA  ILE A   2      -6.031   6.030 132.075  0.00  0.00    +0.000 C 
ATOM      2  C   ILE A   2      -7.479   5.745 132.615  0.00  0.00    +0.000 C 
ATOM      3  O   ILE A   2      -8.080   5.945 133.627  0.00  0.00    +0.000 OA
ATOM      4  N   UNK A   1      -8.330   5.391 131.664  0.00  0.00    +0.000 N 
ATOM      5  C   UNK A   1      -8.089   5.716 130.310  0.00  0.00    +0.000 C 
ATOM      6  C   UNK A   1      -6.780   5.019 129.927  0.00  0.00    +0.000 C 
ATOM      7  O   UNK A   1      -6.723   4.530 128.813  0.00  0.00    +0.000 OA
ATOM      8  N   ILE A   2      -5.779   5.027 130.936  0.00  0.00    +0.000 N 
ATOM      9  H   UNK A   1      -9.246   5.400 132.096  0.00  0.00    +0.000 HD
ENDROOT
BRANCH   5  10
ATOM     10  C   UNK A   1      -9.239   5.124 129.498  0.00  0.00    +0.000 C 
ATOM     11  C   UNK A   1      -9.809   6.169 128.518  0.00  0.00    +0.000 C 
ATOM     12  C   UNK A   1     -10.913   6.797 129.324  0.00  0.00    +0.000 A 
ATOM     13  C   UNK A   1     -11.457   8.061 129.170  0.00  0.00    +0.000 A 
ATOM     14  C   UNK A   1     -12.367   8.513 130.129  0.00  0.00    +0.000 A 
ATOM     15  C   UNK A   1     -12.701   7.715 131.236  0.00  0.00    +0.000 A 
ATOM     16  C   UNK A   1     -12.132   6.451 131.400  0.00  0.00    +0.000 A 
ATOM     17  C   UNK A   1     -11.253   5.995 130.427  0.00  0.00    +0.000 A 
ATOM     18  C   UNK A   1     -10.424   4.740 130.444  0.00  0.00    +0.000 C 
ENDBRANCH   5  10
BRANCH   1  19
ATOM     19  CB  ILE A   2      -5.007   6.068 133.193  0.00  0.00    +0.000 C 
ATOM     20  CG2 ILE A   2      -5.026   4.870 134.198  0.00  0.00    +0.000 C 
BRANCH  19  22
ATOM     21  CD1 ILE A   2      -3.778   7.726 131.547  0.00  0.00    +0.000 C 
ATOM     22  CG1 ILE A   2      -3.615   6.813 132.691  0.00  0.00    +0.000 C 
ENDBRANCH  19  22
ENDBRANCH   1  19
BRANCH   8  23
ATOM     23  C   UNK A   0      -4.566   4.077 130.837  0.00  0.00    +0.000 C 
BRANCH  23  24
ATOM     24  C   UNK A   0      -4.715   2.410 131.169  0.00  0.00    +0.000 C 
ATOM     25  O   UNK A   0      -3.890   1.830 131.889  0.00  0.00    +0.000 OA
ATOM     26  N   UNK A   0      -5.888   1.678 130.940  0.00  0.00    +0.000 N 
ATOM     27  C   UNK A   0      -6.498   1.300 129.682  0.00  0.00    +0.000 C 
ATOM     28  C   UNK A   0      -8.183   1.406 129.914  0.00  0.00    +0.000 C 
ATOM     29  O   UNK A   0      -8.680   0.761 131.051  0.00  0.00    +0.000 OA
ATOM     30  C   UNK A   0      -7.903   1.144 132.169  0.00  0.00    +0.000 C 
ATOM     31  C   UNK A   0      -6.433   0.774 131.929  0.00  0.00    +0.000 C 
ENDBRANCH  23  24
BRANCH  23  32
ATOM     32  C   UNK A   0      -3.805   4.236 129.466  0.00  0.00    +0.000 A 
ATOM     33  C   UNK A   0      -3.217   5.364 128.933  0.00  0.00    +0.000 A 
ATOM     34  O   UNK A   0      -2.472   5.036 127.856  0.00  0.00    +0.000 OA
ATOM     35  C   UNK A   0      -2.656   3.695 127.721  0.00  0.00    +0.000 A 
ATOM     36  C   UNK A   0      -1.840   3.086 126.645  0.00  0.00    +0.000 C 
ATOM     37  N   UNK A   0      -3.537   3.179 128.572  0.00  0.00    +0.000 NA
ENDBRANCH  23  32
ENDBRANCH   8  23
TORSDOF 6
ENDMDL
MODEL 3
REMARK VINA RESULT:      -8.5      2.617      7.191
REMARK  Name = CHEMBL429736
REMARK  9 active torsions:
REMARK  status: ('A' for Active; 'I' for Inactive)
REMARK    1  A    between atoms: CD1_1  and  CG1_2
REMARK    2  A    between atoms: CG1_2  and  CB_3
REMARK    3  A    between atoms: CB_3  and  CG2_4
REMARK    4  A    between atoms: CB_3  and  CA_5
REMARK    5  A    between atoms: C_9  and  C_10
REMARK    6  A    between atoms: N_21  and  C_22
REMARK    7  A    between atoms: C_22  and  C_23
REMARK    8  A    between atoms: C_22  and  C_31
REMARK    9  A    between atoms: C_34  and  C_35
REMARK                            x       y       z     vdW  Elec       q    Type
REMARK                         _______ _______ _______ _____ _____    ______ ____
ROOT
ATOM      1  CA  ILE A   2      -7.188   0.815 129.692  0.00  0.00    +0.000 C 
ATOM      2  C   ILE A   2      -6.214   0.044 128.731  0.00  0.00    +0.000 C 
ATOM      3  O   ILE A   2      -5.391  -0.815 128.840  0.00  0.00    +0.000 OA
ATOM      4  N   UNK A   1      -6.501   0.213 127.449  0.00  0.00    +0.000 N 
ATOM      5  C   UNK A   1      -7.792   0.615 127.037  0.00  0.00    +0.000 C 
ATOM      6  C   UNK A   1      -8.036   1.989 127.668  0.00  0.00    +0.000 C 
ATOM      7  O   UNK A   1      -8.618   2.812 126.983  0.00  0.00    +0.000 OA
ATOM      8  N   ILE A   2      -7.543   2.139 128.992  0.00  0.00    +0.000 N 
ATOM      9  H   UNK A   1      -5.925  -0.451 126.947  0.00  0.00    +0.000 HD
ENDROOT
BRANCH   5  10
ATOM     10  C   UNK A   1      -7.752   0.749 125.516  0.00  0.00    +0.000 C 
ATOM     11  C   UNK A   1      -8.966   0.047 124.875  0.00  0.00    +0.000 C 
ATOM     12  C   UNK A   1      -8.432  -1.334 124.607  0.00  0.00    +0.000 A 
ATOM     13  C   UNK A   1      -9.154  -2.509 124.482  0.00  0.00    +0.000 A 
ATOM     14  C   UNK A   1      -8.451  -3.713 124.394  0.00  0.00    +0.000 A 
ATOM     15  C   UNK A   1      -7.048  -3.733 124.456  0.00  0.00    +0.000 A 
ATOM     16  C   UNK A   1      -6.325  -2.548 124.606  0.00  0.00    +0.000 A 
ATOM     17  C   UNK A   1      -7.028  -1.353 124.661  0.00  0.00    +0.000 A 
ATOM     18  C   UNK A   1      -6.491   0.023 124.944  0.00  0.00    +0.000 C 
ENDBRANCH   5  10
BRANCH   1  19
ATOM     19  CB  ILE A   2      -6.637   0.912 131.101  0.00  0.00    +0.000 C 
ATOM     20  CG2 ILE A   2      -5.242   1.604 131.258  0.00  0.00    +0.000 C 
BRANCH  19  22
ATOM     21  CD1 ILE A   2      -9.162   0.531 131.771  0.00  0.00    +0.000 C 
ATOM     22  CG1 ILE A   2      -7.862   1.073 132.203  0.00  0.00    +0.000 C 
ENDBRANCH  19  22
ENDBRANCH   1  19
BRANCH   8  23
ATOM     23  C   UNK A   0      -7.397   3.543 129.614  0.00  0.00    +0.000 C 
BRANCH  23  24
ATOM     24  C   UNK A   0      -6.152   4.604 129.128  0.00  0.00    +0.000 C 
ATOM     25  O   UNK A   0      -5.816   5.558 129.843  0.00  0.00    +0.000 OA
ATOM     26  N   UNK A   0      -5.244   4.311 128.101  0.00  0.00    +0.000 N 
ATOM     27  C   UNK A   0      -5.477   4.216 126.675  0.00  0.00    +0.000 C 
ATOM     28  C   UNK A   0      -4.493   2.945 126.111  0.00  0.00    +0.000 C 
ATOM     29  O   UNK A   0      -3.153   2.994 126.509  0.00  0.00    +0.000 OA
ATOM     30  C   UNK A   0      -3.099   3.211 127.905  0.00  0.00    +0.000 C 
ATOM     31  C   UNK A   0      -3.822   4.518 128.254  0.00  0.00    +0.000 C 
ENDBRANCH  23  24
BRANCH  23  32
ATOM     32  C   UNK A   0      -8.756   4.341 129.593  0.00  0.00    +0.000 A 
ATOM     33  C   UNK A   0      -9.893   4.125 130.343  0.00  0.00    +0.000 A 
ATOM     34  O   UNK A   0     -10.750   5.160 130.197  0.00  0.00    +0.000 OA
ATOM     35  C   UNK A   0     -10.129   5.982 129.310  0.00  0.00    +0.000 A 
ATOM     36  C   UNK A   0     -10.850   7.254 129.071  0.00  0.00    +0.000 C 
ATOM     37  N   UNK A   0      -8.996   5.493 128.816  0.00  0.00    +0.000 NA
ENDBRANCH  23  32
ENDBRANCH   8  23
TORSDOF 6
ENDMDL
MODEL 4
REMARK VINA RESULT:      -8.4      1.486      1.886
REMARK  Name = CHEMBL429736
REMARK  9 active torsions:
REMARK  status: ('A' for Active; 'I' for Inactive)
REMARK    1  A    between atoms: CD1_1  and  CG1_2
REMARK    2  A    between atoms: CG1_2  and  CB_3
REMARK    3  A    between atoms: CB_3  and  CG2_4
REMARK    4  A    between atoms: CB_3  and  CA_5
REMARK    5  A    between atoms: C_9  and  C_10
REMARK    6  A    between atoms: N_21  and  C_22
REMARK    7  A    between atoms: C_22  and  C_23
REMARK    8  A    between atoms: C_22  and  C_31
REMARK    9  A    between atoms: C_34  and  C_35
REMARK                            x       y       z     vdW  Elec       q    Type
REMARK                         _______ _______ _______ _____ _____    ______ ____
ROOT
ATOM      1  CA  ILE A   2      -7.754   3.120 129.500  0.00  0.00    +0.000 C 
ATOM      2  C   ILE A   2      -8.121   4.380 128.636  0.00  0.00    +0.000 C 
ATOM      3  O   ILE A   2      -8.215   4.634 127.473  0.00  0.00    +0.000 OA
ATOM      4  N   UNK A   1      -8.674   5.354 129.342  0.00  0.00    +0.000 N 
ATOM      5  C   UNK A   1      -9.297   5.093 130.583  0.00  0.00    +0.000 C 
ATOM      6  C   UNK A   1      -8.209   4.529 131.501  0.00  0.00    +0.000 C 
ATOM      7  O   UNK A   1      -8.229   4.889 132.664  0.00  0.00    +0.000 OA
ATOM      8  N   ILE A   2      -7.292   3.645 130.871  0.00  0.00    +0.000 N 
ATOM      9  H   UNK A   1      -9.014   6.027 128.665  0.00  0.00    +0.000 HD
ENDROOT
BRANCH   5  10
ATOM     10  C   UNK A   1      -9.781   6.435 131.129  0.00  0.00    +0.000 C 
ATOM     11  C   UNK A   1     -11.316   6.439 131.284  0.00  0.00    +0.000 C 
ATOM     12  C   UNK A   1     -11.770   6.994 129.962  0.00  0.00    +0.000 A 
ATOM     13  C   UNK A   1     -12.995   6.807 129.343  0.00  0.00    +0.000 A 
ATOM     14  C   UNK A   1     -13.158   7.279 128.039  0.00  0.00    +0.000 A 
ATOM     15  C   UNK A   1     -12.098   7.905 127.362  0.00  0.00    +0.000 A 
ATOM     16  C   UNK A   1     -10.858   8.071 127.982  0.00  0.00    +0.000 A 
ATOM     17  C   UNK A   1     -10.712   7.629 129.289  0.00  0.00    +0.000 A 
ATOM     18  C   UNK A   1      -9.455   7.579 130.114  0.00  0.00    +0.000 C 
ENDBRANCH   5  10
BRANCH   1  19
ATOM     19  CB  ILE A   2      -6.807   2.188 128.770  0.00  0.00    +0.000 C 
ATOM     20  CG2 ILE A   2      -5.379   2.747 128.458  0.00  0.00    +0.000 C 
BRANCH  19  22
ATOM     21  CD1 ILE A   2      -8.232   0.408 130.100  0.00  0.00    +0.000 C 
ATOM     22  CG1 ILE A   2      -7.095   0.611 129.185  0.00  0.00    +0.000 C 
ENDBRANCH  19  22
ENDBRANCH   1  19
BRANCH   8  23
ATOM     23  C   UNK A   0      -5.959   3.285 131.560  0.00  0.00    +0.000 C 
BRANCH  23  24
ATOM     24  C   UNK A   0      -5.054   4.456 132.409  0.00  0.00    +0.000 C 
ATOM     25  O   UNK A   0      -4.609   4.216 133.541  0.00  0.00    +0.000 OA
ATOM     26  N   UNK A   0      -4.497   5.590 131.803  0.00  0.00    +0.000 N 
ATOM     27  C   UNK A   0      -5.164   6.756 131.261  0.00  0.00    +0.000 C 
ATOM     28  C   UNK A   0      -4.284   7.211 129.875  0.00  0.00    +0.000 C 
ATOM     29  O   UNK A   0      -2.901   7.323 130.044  0.00  0.00    +0.000 OA
ATOM     30  C   UNK A   0      -2.425   6.160 130.693  0.00  0.00    +0.000 C 
ATOM     31  C   UNK A   0      -3.131   5.996 132.045  0.00  0.00    +0.000 C 
ENDBRANCH  23  24
BRANCH  23  32
ATOM     32  C   UNK A   0      -6.096   2.012 132.479  0.00  0.00    +0.000 A 
ATOM     33  C   UNK A   0      -7.046   1.743 133.442  0.00  0.00    +0.000 A 
ATOM     34  O   UNK A   0      -6.953   0.456 133.841  0.00  0.00    +0.000 OA
ATOM     35  C   UNK A   0      -5.899  -0.035 133.135  0.00  0.00    +0.000 A 
ATOM     36  C   UNK A   0      -5.668  -1.484 133.338  0.00  0.00    +0.000 C 
ATOM     37  N   UNK A   0      -5.267   0.874 132.400  0.00  0.00    +0.000 NA
ENDBRANCH  23  32
ENDBRANCH   8  23
TORSDOF 6
ENDMDL
MODEL 5
REMARK VINA RESULT:      -8.3      2.110      5.206
REMARK  Name = CHEMBL429736
REMARK  9 active torsions:
REMARK  status: ('A' for Active; 'I' for Inactive)
REMARK    1  A    between atoms: CD1_1  and  CG1_2
REMARK    2  A    between atoms: CG1_2  and  CB_3
REMARK    3  A    between atoms: CB_3  and  CG2_4
REMARK    4  A    between atoms: CB_3  and  CA_5
REMARK    5  A    between atoms: C_9  and  C_10
REMARK    6  A    between atoms: N_21  and  C_22
REMARK    7  A    between atoms: C_22  and  C_23
REMARK    8  A    between atoms: C_22  and  C_31
REMARK    9  A    between atoms: C_34  and  C_35
REMARK                            x       y       z     vdW  Elec       q    Type
REMARK                         _______ _______ _______ _____ _____    ______ ____
ROOT
ATOM      1  CA  ILE A   2      -7.221   6.217 131.463  0.00  0.00    +0.000 C 
ATOM      2  C   ILE A   2      -8.452   6.111 132.433  0.00  0.00    +0.000 C 
ATOM      3  O   ILE A   2      -8.678   6.371 133.577  0.00  0.00    +0.000 OA
ATOM      4  N   UNK A   1      -9.594   5.883 131.804  0.00  0.00    +0.000 N 
ATOM      5  C   UNK A   1      -9.749   6.193 130.434  0.00  0.00    +0.000 C 
ATOM      6  C   UNK A   1      -8.722   5.341 129.682  0.00  0.00    +0.000 C 
ATOM      7  O   UNK A   1      -9.077   4.865 128.618  0.00  0.00    +0.000 OA
ATOM      8  N   ILE A   2      -7.464   5.207 130.329  0.00  0.00    +0.000 N 
ATOM      9  H   UNK A   1     -10.321   6.002 132.499  0.00  0.00    +0.000 HD
ENDROOT
BRANCH   5  10
ATOM     10  C   UNK A   1     -11.159   5.764 130.036  0.00  0.00    +0.000 C 
ATOM     11  C   UNK A   1     -11.586   6.448 128.721  0.00  0.00    +0.000 C 
ATOM     12  C   UNK A   1     -12.276   7.690 129.215  0.00  0.00    +0.000 A 
ATOM     13  C   UNK A   1     -12.450   8.885 128.538  0.00  0.00    +0.000 A 
ATOM     14  C   UNK A   1     -12.979   9.973 129.237  0.00  0.00    +0.000 A 
ATOM     15  C   UNK A   1     -13.300   9.865 130.600  0.00  0.00    +0.000 A 
ATOM     16  C   UNK A   1     -13.101   8.665 131.285  0.00  0.00    +0.000 A 
ATOM     17  C   UNK A   1     -12.606   7.579 130.577  0.00  0.00    +0.000 A 
ATOM     18  C   UNK A   1     -12.190   6.236 131.114  0.00  0.00    +0.000 C 
ENDBRANCH   5  10
BRANCH   1  19
ATOM     19  CB  ILE A   2      -5.903   6.109 132.205  0.00  0.00    +0.000 C 
ATOM     20  CG2 ILE A   2      -5.670   4.796 133.025  0.00  0.00    +0.000 C 
BRANCH  19  22
ATOM     21  CD1 ILE A   2      -3.353   6.322 131.558  0.00  0.00    +0.000 C 
ATOM     22  CG1 ILE A   2      -4.698   6.896 131.385  0.00  0.00    +0.000 C 
ENDBRANCH  19  22
ENDBRANCH   1  19
BRANCH   8  23
ATOM     23  C   UNK A   0      -6.472   4.112 129.882  0.00  0.00    +0.000 C 
BRANCH  23  24
ATOM     24  C   UNK A   0      -6.924   2.467 129.842  0.00  0.00    +0.000 C 
ATOM     25  O   UNK A   0      -7.723   2.048 128.992  0.00  0.00    +0.000 OA
ATOM     26  N   UNK A   0      -6.224   1.457 130.517  0.00  0.00    +0.000 N 
ATOM     27  C   UNK A   0      -6.121   1.211 131.940  0.00  0.00    +0.000 C 
ATOM     28  C   UNK A   0      -4.529   0.674 132.221  0.00  0.00    +0.000 C 
ATOM     29  O   UNK A   0      -4.081  -0.357 131.389  0.00  0.00    +0.000 OA
ATOM     30  C   UNK A   0      -4.364  -0.015 130.047  0.00  0.00    +0.000 C 
ATOM     31  C   UNK A   0      -5.872   0.210 129.876  0.00  0.00    +0.000 C 
ENDBRANCH  23  24
BRANCH  23  32
ATOM     32  C   UNK A   0      -5.787   4.464 128.507  0.00  0.00    +0.000 A 
ATOM     33  C   UNK A   0      -4.463   4.759 128.255  0.00  0.00    +0.000 A 
ATOM     34  O   UNK A   0      -4.235   4.776 126.924  0.00  0.00    +0.000 OA
ATOM     35  C   UNK A   0      -5.455   4.531 126.376  0.00  0.00    +0.000 A 
ATOM     36  C   UNK A   0      -5.431   4.401 124.900  0.00  0.00    +0.000 C 
ATOM     37  N   UNK A   0      -6.445   4.461 127.261  0.00  0.00    +0.000 NA
ENDBRANCH  23  32
ENDBRANCH   8  23
TORSDOF 6
ENDMDL
MODEL 6
REMARK VINA RESULT:      -8.3      2.739      7.373
REMARK  Name = CHEMBL429736
REMARK  9 active torsions:
REMARK  status: ('A' for Active; 'I' for Inactive)
REMARK    1  A    between atoms: CD1_1  and  CG1_2
REMARK    2  A    between atoms: CG1_2  and  CB_3
REMARK    3  A    between atoms: CB_3  and  CG2_4
REMARK    4  A    between atoms: CB_3  and  CA_5
REMARK    5  A    between atoms: C_9  and  C_10
REMARK    6  A    between atoms: N_21  and  C_22
REMARK    7  A    between atoms: C_22  and  C_23
REMARK    8  A    between atoms: C_22  and  C_31
REMARK    9  A    between atoms: C_34  and  C_35
REMARK                            x       y       z     vdW  Elec       q    Type
REMARK                         _______ _______ _______ _____ _____    ______ ____
ROOT
ATOM      1  CA  ILE A   2      -8.512   2.259 130.764  0.00  0.00    +0.000 C 
ATOM      2  C   ILE A   2      -8.760   0.794 131.272  0.00  0.00    +0.000 C 
ATOM      3  O   ILE A   2      -9.652   0.200 131.801  0.00  0.00    +0.000 OA
ATOM      4  N   UNK A   1      -7.862  -0.072 130.828  0.00  0.00    +0.000 N 
ATOM      5  C   UNK A   1      -7.100   0.196 129.668  0.00  0.00    +0.000 C 
ATOM      6  C   UNK A   1      -6.292   1.463 129.968  0.00  0.00    +0.000 C 
ATOM      7  O   UNK A   1      -5.148   1.496 129.553  0.00  0.00    +0.000 OA
ATOM      8  N   ILE A   2      -6.987   2.456 130.710  0.00  0.00    +0.000 N 
ATOM      9  H   UNK A   1      -8.216  -0.989 131.076  0.00  0.00    +0.000 HD
ENDROOT
BRANCH   5  10
ATOM     10  C   UNK A   1      -6.149  -0.984 129.477  0.00  0.00    +0.000 C 
ATOM     11  C   UNK A   1      -5.959  -1.293 127.979  0.00  0.00    +0.000 C 
ATOM     12  C   UNK A   1      -7.028  -2.320 127.725  0.00  0.00    +0.000 A 
ATOM     13  C   UNK A   1      -7.641  -2.621 126.520  0.00  0.00    +0.000 A 
ATOM     14  C   UNK A   1      -8.728  -3.499 126.530  0.00  0.00    +0.000 A 
ATOM     15  C   UNK A   1      -9.203  -4.042 127.735  0.00  0.00    +0.000 A 
ATOM     16  C   UNK A   1      -8.597  -3.717 128.950  0.00  0.00    +0.000 A 
ATOM     17  C   UNK A   1      -7.498  -2.870 128.930  0.00  0.00    +0.000 A 
ATOM     18  C   UNK A   1      -6.765  -2.278 130.103  0.00  0.00    +0.000 C 
ENDBRANCH   5  10
BRANCH   1  19
ATOM     19  CB  ILE A   2      -9.306   3.278 131.559  0.00  0.00    +0.000 C 
ATOM     20  CG2 ILE A   2     -10.512   3.950 130.824  0.00  0.00    +0.000 C 
BRANCH  19  22
ATOM     21  CD1 ILE A   2      -8.838   3.942 134.071  0.00  0.00    +0.000 C 
ATOM     22  CG1 ILE A   2      -9.324   2.885 133.168  0.00  0.00    +0.000 C 
ENDBRANCH  19  22
ENDBRANCH   1  19
BRANCH   8  23
ATOM     23  C   UNK A   0      -6.212   3.608 131.384  0.00  0.00    +0.000 C 
BRANCH  23  24
ATOM     24  C   UNK A   0      -5.329   3.362 132.823  0.00  0.00    +0.000 C 
ATOM     25  O   UNK A   0      -5.326   4.217 133.720  0.00  0.00    +0.000 OA
ATOM     26  N   UNK A   0      -4.834   2.113 133.221  0.00  0.00    +0.000 N 
ATOM     27  C   UNK A   0      -3.765   1.327 132.640  0.00  0.00    +0.000 C 
ATOM     28  C   UNK A   0      -4.246  -0.303 132.762  0.00  0.00    +0.000 C 
ATOM     29  O   UNK A   0      -4.688  -0.712 134.024  0.00  0.00    +0.000 OA
ATOM     30  C   UNK A   0      -5.636   0.223 134.501  0.00  0.00    +0.000 C 
ATOM     31  C   UNK A   0      -4.999   1.617 134.569  0.00  0.00    +0.000 C 
ENDBRANCH  23  24
BRANCH  23  32
ATOM     32  C   UNK A   0      -5.282   4.369 130.363  0.00  0.00    +0.000 A 
ATOM     33  C   UNK A   0      -5.635   5.037 129.210  0.00  0.00    +0.000 A 
ATOM     34  O   UNK A   0      -4.584   5.746 128.743  0.00  0.00    +0.000 OA
ATOM     35  C   UNK A   0      -3.577   5.457 129.610  0.00  0.00    +0.000 A 
ATOM     36  C   UNK A   0      -2.330   6.214 129.351  0.00  0.00    +0.000 C 
ATOM     37  N   UNK A   0      -3.893   4.545 130.524  0.00  0.00    +0.000 NA
ENDBRANCH  23  32
ENDBRANCH   8  23
TORSDOF 6
ENDMDL
MODEL 7
REMARK VINA RESULT:      -8.2      1.324      4.028
REMARK  Name = CHEMBL429736
REMARK  9 active torsions:
REMARK  status: ('A' for Active; 'I' for Inactive)
REMARK    1  A    between atoms: CD1_1  and  CG1_2
REMARK    2  A    between atoms: CG1_2  and  CB_3
REMARK    3  A    between atoms: CB_3  and  CG2_4
REMARK    4  A    between atoms: CB_3  and  CA_5
REMARK    5  A    between atoms: C_9  and  C_10
REMARK    6  A    between atoms: N_21  and  C_22
REMARK    7  A    between atoms: C_22  and  C_23
REMARK    8  A    between atoms: C_22  and  C_31
REMARK    9  A    between atoms: C_34  and  C_35
REMARK                            x       y       z     vdW  Elec       q    Type
REMARK                         _______ _______ _______ _____ _____    ______ ____
ROOT
ATOM      1  CA  ILE A   2      -7.936   2.917 129.049  0.00  0.00    +0.000 C 
ATOM      2  C   ILE A   2      -8.204   4.301 128.357  0.00  0.00    +0.000 C 
ATOM      3  O   ILE A   2      -8.354   4.695 127.240  0.00  0.00    +0.000 OA
ATOM      4  N   UNK A   1      -8.572   5.247 129.207  0.00  0.00    +0.000 N 
ATOM      5  C   UNK A   1      -9.127   4.923 130.466  0.00  0.00    +0.000 C 
ATOM      6  C   UNK A   1      -8.052   4.132 131.218  0.00  0.00    +0.000 C 
ATOM      7  O   UNK A   1      -7.937   4.358 132.410  0.00  0.00    +0.000 OA
ATOM      8  N   ILE A   2      -7.307   3.223 130.420  0.00  0.00    +0.000 N 
ATOM      9  H   UNK A   1      -8.875   6.028 128.637  0.00  0.00    +0.000 HD
ENDROOT
BRANCH   5  10
ATOM     10  C   UNK A   1      -9.392   6.242 131.189  0.00  0.00    +0.000 C 
ATOM     11  C   UNK A   1     -10.873   6.348 131.604  0.00  0.00    +0.000 C 
ATOM     12  C   UNK A   1     -11.486   7.055 130.426  0.00  0.00    +0.000 A 
ATOM     13  C   UNK A   1     -12.807   7.019 130.013  0.00  0.00    +0.000 A 
ATOM     14  C   UNK A   1     -13.138   7.620 128.796  0.00  0.00    +0.000 A 
ATOM     15  C   UNK A   1     -12.151   8.223 127.999  0.00  0.00    +0.000 A 
ATOM     16  C   UNK A   1     -10.816   8.237 128.409  0.00  0.00    +0.000 A 
ATOM     17  C   UNK A   1     -10.499   7.667 129.633  0.00  0.00    +0.000 A 
ATOM     18  C   UNK A   1      -9.134   7.446 130.225  0.00  0.00    +0.000 C 
ENDBRANCH   5  10
BRANCH   1  19
ATOM     19  CB  ILE A   2      -7.175   1.968 128.144  0.00  0.00    +0.000 C 
ATOM     20  CG2 ILE A   2      -7.950   0.700 127.654  0.00  0.00    +0.000 C 
BRANCH  19  22
ATOM     21  CD1 ILE A   2      -5.053   1.958 126.574  0.00  0.00    +0.000 C 
ATOM     22  CG1 ILE A   2      -6.091   2.793 127.202  0.00  0.00    +0.000 C 
ENDBRANCH  19  22
ENDBRANCH   1  19
BRANCH   8  23
ATOM     23  C   UNK A   0      -5.982   2.631 130.945  0.00  0.00    +0.000 C 
BRANCH  23  24
ATOM     24  C   UNK A   0      -5.491   1.050 130.533  0.00  0.00    +0.000 C 
ATOM     25  O   UNK A   0      -4.460   0.858 129.873  0.00  0.00    +0.000 OA
ATOM     26  N   UNK A   0      -6.001  -0.102 131.146  0.00  0.00    +0.000 N 
ATOM     27  C   UNK A   0      -7.326  -0.679 131.047  0.00  0.00    +0.000 C 
ATOM     28  C   UNK A   0      -7.698  -1.294 132.592  0.00  0.00    +0.000 C 
ATOM     29  O   UNK A   0      -6.720  -2.107 133.172  0.00  0.00    +0.000 OA
ATOM     30  C   UNK A   0      -5.470  -1.454 133.080  0.00  0.00    +0.000 C 
ATOM     31  C   UNK A   0      -5.142  -1.169 131.609  0.00  0.00    +0.000 C 
ENDBRANCH  23  24
BRANCH  23  32
ATOM     32  C   UNK A   0      -4.765   3.601 130.698  0.00  0.00    +0.000 A 
ATOM     33  C   UNK A   0      -3.643   3.792 131.478  0.00  0.00    +0.000 A 
ATOM     34  O   UNK A   0      -2.733   4.533 130.810  0.00  0.00    +0.000 OA
ATOM     35  C   UNK A   0      -3.344   4.826 129.631  0.00  0.00    +0.000 A 
ATOM     36  C   UNK A   0      -2.480   5.560 128.677  0.00  0.00    +0.000 C 
ATOM     37  N   UNK A   0      -4.602   4.406 129.553  0.00  0.00    +0.000 NA
ENDBRANCH  23  32
ENDBRANCH   8  23
TORSDOF 6
ENDMDL
MODEL 8
REMARK VINA RESULT:      -8.2      2.766      7.004
REMARK  Name = CHEMBL429736
REMARK  9 active torsions:
REMARK  status: ('A' for Active; 'I' for Inactive)
REMARK    1  A    between atoms: CD1_1  and  CG1_2
REMARK    2  A    between atoms: CG1_2  and  CB_3
REMARK    3  A    between atoms: CB_3  and  CG2_4
REMARK    4  A    between atoms: CB_3  and  CA_5
REMARK    5  A    between atoms: C_9  and  C_10
REMARK    6  A    between atoms: N_21  and  C_22
REMARK    7  A    between atoms: C_22  and  C_23
REMARK    8  A    between atoms: C_22  and  C_31
REMARK    9  A    between atoms: C_34  and  C_35
REMARK                            x       y       z     vdW  Elec       q    Type
REMARK                         _______ _______ _______ _____ _____    ______ ____
ROOT
ATOM      1  CA  ILE A   2      -8.009   0.396 129.637  0.00  0.00    +0.000 C 
ATOM      2  C   ILE A   2      -7.550  -1.063 129.279  0.00  0.00    +0.000 C 
ATOM      3  O   ILE A   2      -7.786  -2.166 129.674  0.00  0.00    +0.000 OA
ATOM      4  N   UNK A   1      -6.911  -1.141 128.122  0.00  0.00    +0.000 N 
ATOM      5  C   UNK A   1      -7.069  -0.145 127.132  0.00  0.00    +0.000 C 
ATOM      6  C   UNK A   1      -6.571   1.163 127.755  0.00  0.00    +0.000 C 
ATOM      7  O   UNK A   1      -5.940   1.912 127.030  0.00  0.00    +0.000 OA
ATOM      8  N   ILE A   2      -6.909   1.343 129.123  0.00  0.00    +0.000 N 
ATOM      9  H   UNK A   1      -6.818  -2.130 127.924  0.00  0.00    +0.000 HD
ENDROOT
BRANCH   5  10
ATOM     10  C   UNK A   1      -6.164  -0.531 125.963  0.00  0.00    +0.000 C 
ATOM     11  C   UNK A   1      -6.773  -0.064 124.626  0.00  0.00    +0.000 C 
ATOM     12  C   UNK A   1      -7.569  -1.266 124.198  0.00  0.00    +0.000 A 
ATOM     13  C   UNK A   1      -8.668  -1.295 123.355  0.00  0.00    +0.000 A 
ATOM     14  C   UNK A   1      -9.364  -2.498 123.214  0.00  0.00    +0.000 A 
ATOM     15  C   UNK A   1      -8.975  -3.642 123.929  0.00  0.00    +0.000 A 
ATOM     16  C   UNK A   1      -7.881  -3.602 124.796  0.00  0.00    +0.000 A 
ATOM     17  C   UNK A   1      -7.175  -2.413 124.907  0.00  0.00    +0.000 A 
ATOM     18  C   UNK A   1      -6.055  -2.088 125.858  0.00  0.00    +0.000 C 
ENDBRANCH   5  10
BRANCH   1  19
ATOM     19  CB  ILE A   2      -8.397   0.527 131.097  0.00  0.00    +0.000 C 
ATOM     20  CG2 ILE A   2      -7.305   0.137 132.147  0.00  0.00    +0.000 C 
BRANCH  19  22
ATOM     21  CD1 ILE A   2      -9.436   2.390 132.651  0.00  0.00    +0.000 C 
ATOM     22  CG1 ILE A   2      -9.463   1.776 131.313  0.00  0.00    +0.000 C 
ENDBRANCH  19  22
ENDBRANCH   1  19
BRANCH   8  23
ATOM     23  C   UNK A   0      -6.190   2.416 129.968  0.00  0.00    +0.000 C 
BRANCH  23  24
ATOM     24  C   UNK A   0      -4.516   2.698 129.806  0.00  0.00    +0.000 C 
ATOM     25  O   UNK A   0      -3.727   1.758 129.632  0.00  0.00    +0.000 OA
ATOM     26  N   UNK A   0      -3.967   3.961 129.544  0.00  0.00    +0.000 N 
ATOM     27  C   UNK A   0      -3.899   5.124 130.404  0.00  0.00    +0.000 C 
ATOM     28  C   UNK A   0      -4.135   6.479 129.399  0.00  0.00    +0.000 C 
ATOM     29  O   UNK A   0      -3.343   6.525 128.248  0.00  0.00    +0.000 OA
ATOM     30  C   UNK A   0      -3.424   5.277 127.589  0.00  0.00    +0.000 C 
ATOM     31  C   UNK A   0      -2.955   4.162 128.531  0.00  0.00    +0.000 C 
ENDBRANCH  23  24
BRANCH  23  32
ATOM     32  C   UNK A   0      -6.929   3.806 129.907  0.00  0.00    +0.000 A 
ATOM     33  C   UNK A   0      -7.520   4.421 128.822  0.00  0.00    +0.000 A 
ATOM     34  O   UNK A   0      -8.242   5.488 129.228  0.00  0.00    +0.000 OA
ATOM     35  C   UNK A   0      -8.040   5.533 130.572  0.00  0.00    +0.000 A 
ATOM     36  C   UNK A   0      -8.829   6.582 131.259  0.00  0.00    +0.000 C 
ATOM     37  N   UNK A   0      -7.168   4.636 131.021  0.00  0.00    +0.000 NA
ENDBRANCH  23  32
ENDBRANCH   8  23
TORSDOF 6
ENDMDL
MODEL 9
REMARK VINA RESULT:      -8.1      2.622      7.211
REMARK  Name = CHEMBL429736
REMARK  9 active torsions:
REMARK  status: ('A' for Active; 'I' for Inactive)
REMARK    1  A    between atoms: CD1_1  and  CG1_2
REMARK    2  A    between atoms: CG1_2  and  CB_3
REMARK    3  A    between atoms: CB_3  and  CG2_4
REMARK    4  A    between atoms: CB_3  and  CA_5
REMARK    5  A    between atoms: C_9  and  C_10
REMARK    6  A    between atoms: N_21  and  C_22
REMARK    7  A    between atoms: C_22  and  C_23
REMARK    8  A    between atoms: C_22  and  C_31
REMARK    9  A    between atoms: C_34  and  C_35
REMARK                            x       y       z     vdW  Elec       q    Type
REMARK                         _______ _______ _______ _____ _____    ______ ____
ROOT
ATOM      1  CA  ILE A   2      -4.835   1.777 128.352  0.00  0.00    +0.000 C 
ATOM      2  C   ILE A   2      -5.504   0.497 127.732  0.00  0.00    +0.000 C 
ATOM      3  O   ILE A   2      -5.281  -0.239 126.818  0.00  0.00    +0.000 OA
ATOM      4  N   UNK A   1      -6.418  -0.048 128.519  0.00  0.00    +0.000 N 
ATOM      5  C   UNK A   1      -6.421   0.195 129.912  0.00  0.00    +0.000 C 
ATOM      6  C   UNK A   1      -6.621   1.704 130.084  0.00  0.00    +0.000 C 
ATOM      7  O   UNK A   1      -7.341   2.062 130.999  0.00  0.00    +0.000 OA
ATOM      8  N   ILE A   2      -5.934   2.512 129.139  0.00  0.00    +0.000 N 
ATOM      9  H   UNK A   1      -6.650  -0.939 128.097  0.00  0.00    +0.000 HD
ENDROOT
BRANCH   5  10
ATOM     10  C   UNK A   1      -7.622  -0.549 130.491  0.00  0.00    +0.000 C 
ATOM     11  C   UNK A   1      -7.315  -1.054 131.915  0.00  0.00    +0.000 C 
ATOM     12  C   UNK A   1      -6.785  -2.438 131.658  0.00  0.00    +0.000 A 
ATOM     13  C   UNK A   1      -5.938  -3.181 132.463  0.00  0.00    +0.000 A 
ATOM     14  C   UNK A   1      -5.434  -4.385 131.963  0.00  0.00    +0.000 A 
ATOM     15  C   UNK A   1      -5.757  -4.816 130.666  0.00  0.00    +0.000 A 
ATOM     16  C   UNK A   1      -6.592  -4.052 129.849  0.00  0.00    +0.000 A 
ATOM     17  C   UNK A   1      -7.115  -2.874 130.363  0.00  0.00    +0.000 A 
ATOM     18  C   UNK A   1      -7.923  -1.828 129.643  0.00  0.00    +0.000 C 
ENDBRANCH   5  10
BRANCH   1  19
ATOM     19  CB  ILE A   2      -4.081   2.583 127.312  0.00  0.00    +0.000 C 
ATOM     20  CG2 ILE A   2      -4.926   3.157 126.127  0.00  0.00    +0.000 C 
BRANCH  19  22
ATOM     21  CD1 ILE A   2      -2.660   4.793 127.567  0.00  0.00    +0.000 C 
ATOM     22  CG1 ILE A   2      -2.813   3.394 128.002  0.00  0.00    +0.000 C 
ENDBRANCH  19  22
ENDBRANCH   1  19
BRANCH   8  23
ATOM     23  C   UNK A   0      -6.313   3.998 128.963  0.00  0.00    +0.000 C 
BRANCH  23  24
ATOM     24  C   UNK A   0      -7.944   4.501 128.938  0.00  0.00    +0.000 C 
ATOM     25  O   UNK A   0      -8.700   4.157 128.019  0.00  0.00    +0.000 OA
ATOM     26  N   UNK A   0      -8.604   5.037 130.052  0.00  0.00    +0.000 N 
ATOM     27  C   UNK A   0      -8.406   6.315 130.704  0.00  0.00    +0.000 C 
ATOM     28  C   UNK A   0      -8.609   6.039 132.373  0.00  0.00    +0.000 C 
ATOM     29  O   UNK A   0      -9.766   5.342 132.735  0.00  0.00    +0.000 OA
ATOM     30  C   UNK A   0      -9.876   4.188 131.926  0.00  0.00    +0.000 C 
ATOM     31  C   UNK A   0      -9.922   4.595 130.448  0.00  0.00    +0.000 C 
ENDBRANCH  23  24
BRANCH  23  32
ATOM     32  C   UNK A   0      -5.530   4.928 129.966  0.00  0.00    +0.000 A 
ATOM     33  C   UNK A   0      -5.048   4.627 131.223  0.00  0.00    +0.000 A 
ATOM     34  O   UNK A   0      -4.239   5.616 131.660  0.00  0.00    +0.000 OA
ATOM     35  C   UNK A   0      -4.278   6.541 130.665  0.00  0.00    +0.000 A 
ATOM     36  C   UNK A   0      -3.369   7.691 130.883  0.00  0.00    +0.000 C 
ATOM     37  N   UNK A   0      -5.126   6.249 129.684  0.00  0.00    +0.000 NA
ENDBRANCH  23  32
ENDBRANCH   8  23
TORSDOF 6
ENDMDL
