MODEL 1
REMARK VINA RESULT:      -9.4      0.000      0.000
REMARK  Name = CHEMBL379192
REMARK  9 active torsions:
REMARK  status: ('A' for Active; 'I' for Inactive)
REMARK    1  A    between atoms: C_1  and  N_2
REMARK    2  A    between atoms: C_3  and  C_5
REMARK    3  A    between atoms: C_5  and  C_6
REMARK    4  A    between atoms: C_5  and  N_14
REMARK    5  A    between atoms: C_17  and  C_18
REMARK    6  A    between atoms: CA_30  and  CB_31
REMARK    7  A    between atoms: CB_31  and  CG_32
REMARK    8  A    between atoms: CG_32  and  CD1_33
REMARK    9  A    between atoms: CG_32  and  CD2_34
REMARK                            x       y       z     vdW  Elec       q    Type
REMARK                         _______ _______ _______ _____ _____    ______ ____
ROOT
ATOM      1  N   LEU A   1      -7.522  -0.068 125.982  0.00  0.00    +0.000 N 
ATOM      2  C   UNK A   2      -7.476   0.299 124.643  0.00  0.00    +0.000 C 
ATOM      3  O   UNK A   2      -7.833  -0.454 123.769  0.00  0.00    +0.000 OA
ATOM      4  C   UNK A   2      -7.003   1.727 124.329  0.00  0.00    +0.000 C 
ATOM      5  N   UNK A   2      -7.844   2.616 125.108  0.00  0.00    +0.000 N 
ATOM      6  C   LEU A   1      -8.028   2.404 126.451  0.00  0.00    +0.000 C 
ATOM      7  O   LEU A   1      -8.438   3.321 127.148  0.00  0.00    +0.000 OA
ATOM      8  CA  LEU A   1      -7.511   1.014 127.006  0.00  0.00    +0.000 C 
ATOM      9  H   UNK A   2      -8.073   3.548 124.781  0.00  0.00    +0.000 HD
ENDROOT
BRANCH   4  10
ATOM     10  C   UNK A   2      -7.183   1.970 122.832  0.00  0.00    +0.000 C 
ATOM     11  C   UNK A   2      -8.558   2.598 122.460  0.00  0.00    +0.000 C 
ATOM     12  C   UNK A   2      -8.191   3.349 121.220  0.00  0.00    +0.000 A 
ATOM     13  C   UNK A   2      -9.050   3.880 120.277  0.00  0.00    +0.000 A 
ATOM     14  C   UNK A   2      -8.495   4.537 119.179  0.00  0.00    +0.000 A 
ATOM     15  C   UNK A   2      -7.104   4.696 119.063  0.00  0.00    +0.000 A 
ATOM     16  C   UNK A   2      -6.248   4.203 120.044  0.00  0.00    +0.000 A 
ATOM     17  C   UNK A   2      -6.806   3.514 121.104  0.00  0.00    +0.000 A 
ATOM     18  C   UNK A   2      -6.085   2.916 122.261  0.00  0.00    +0.000 C 
ENDBRANCH   4  10
BRANCH   1  19
ATOM     19  C   UNK A   0      -7.661  -1.530 126.244  0.00  0.00    +0.000 C 
BRANCH  19  20
ATOM     20  C   UNK A   0      -7.145  -2.009 127.619  0.00  0.00    +0.000 A 
ATOM     21  C   UNK A   0      -5.757  -1.770 127.913  0.00  0.00    +0.000 A 
ATOM     22  C   UNK A   0      -5.110  -2.389 128.991  0.00  0.00    +0.000 A 
ATOM     23  C   UNK A   0      -5.816  -3.312 129.758  0.00  0.00    +0.000 A 
ATOM     24  F   UNK A   0      -5.128  -4.157 130.536  0.00  0.00    +0.000 F 
ATOM     25  C   UNK A   0      -7.165  -3.572 129.507  0.00  0.00    +0.000 A 
ATOM     26  C   UNK A   0      -7.844  -2.879 128.492  0.00  0.00    +0.000 A 
ATOM     27  F   UNK A   0      -9.039  -3.385 128.173  0.00  0.00    +0.000 F 
ENDBRANCH  19  20
BRANCH  19  30
ATOM     28  C   UNK A   0      -5.178  -2.990 123.756  0.00  0.00    +0.000 C 
ATOM     29  N   UNK A   0      -5.673  -2.228 124.861  0.00  0.00    +0.000 N 
ATOM     30  C   UNK A   0      -6.939  -2.593 125.323  0.00  0.00    +0.000 C 
ATOM     31  O   UNK A   0      -7.515  -3.562 124.827  0.00  0.00    +0.000 OA
ATOM     32  H   UNK A   0      -5.323  -1.288 124.956  0.00  0.00    +0.000 HD
ENDBRANCH  19  30
ENDBRANCH   1  19
BRANCH   8  33
ATOM     33  CB  LEU A   1      -8.223   0.828 128.393  0.00  0.00    +0.000 C 
BRANCH  33  34
ATOM     34  CG  LEU A   1      -7.696   1.034 129.829  0.00  0.00    +0.000 C 
ATOM     35  CD1 LEU A   1      -8.368   2.095 130.638  0.00  0.00    +0.000 C 
ATOM     36  CD2 LEU A   1      -8.123  -0.071 130.766  0.00  0.00    +0.000 C 
ENDBRANCH  33  34
ENDBRANCH   8  33
TORSDOF 6
ENDMDL
MODEL 2
REMARK VINA RESULT:      -9.2      1.551      1.979
REMARK  Name = CHEMBL379192
REMARK  9 active torsions:
REMARK  status: ('A' for Active; 'I' for Inactive)
REMARK    1  A    between atoms: C_1  and  N_2
REMARK    2  A    between atoms: C_3  and  C_5
REMARK    3  A    between atoms: C_5  and  C_6
REMARK    4  A    between atoms: C_5  and  N_14
REMARK    5  A    between atoms: C_17  and  C_18
REMARK    6  A    between atoms: CA_30  and  CB_31
REMARK    7  A    between atoms: CB_31  and  CG_32
REMARK    8  A    between atoms: CG_32  and  CD1_33
REMARK    9  A    between atoms: CG_32  and  CD2_34
REMARK                            x       y       z     vdW  Elec       q    Type
REMARK                         _______ _______ _______ _____ _____    ______ ____
ROOT
ATOM      1  N   LEU A   1      -7.620   0.872 125.572  0.00  0.00    +0.000 N 
ATOM      2  C   UNK A   2      -7.293   1.168 124.255  0.00  0.00    +0.000 C 
ATOM      3  O   UNK A   2      -7.582   0.422 123.350  0.00  0.00    +0.000 OA
ATOM      4  C   UNK A   2      -6.597   2.514 123.996  0.00  0.00    +0.000 C 
ATOM      5  N   UNK A   2      -7.444   3.531 124.587  0.00  0.00    +0.000 N 
ATOM      6  C   LEU A   1      -7.887   3.406 125.880  0.00  0.00    +0.000 C 
ATOM      7  O   LEU A   1      -8.295   4.397 126.468  0.00  0.00    +0.000 OA
ATOM      8  CA  LEU A   1      -7.654   1.992 126.554  0.00  0.00    +0.000 C 
ATOM      9  H   UNK A   2      -7.494   4.468 124.201  0.00  0.00    +0.000 HD
ENDROOT
BRANCH   4  10
ATOM     10  C   UNK A   2      -6.479   2.705 122.485  0.00  0.00    +0.000 C 
ATOM     11  C   UNK A   2      -7.822   3.078 121.794  0.00  0.00    +0.000 C 
ATOM     12  C   UNK A   2      -7.322   3.869 120.627  0.00  0.00    +0.000 A 
ATOM     13  C   UNK A   2      -8.027   4.231 119.495  0.00  0.00    +0.000 A 
ATOM     14  C   UNK A   2      -7.362   4.964 118.513  0.00  0.00    +0.000 A 
ATOM     15  C   UNK A   2      -6.027   5.363 118.693  0.00  0.00    +0.000 A 
ATOM     16  C   UNK A   2      -5.339   5.038 119.860  0.00  0.00    +0.000 A 
ATOM     17  C   UNK A   2      -5.994   4.273 120.806  0.00  0.00    +0.000 A 
ATOM     18  C   UNK A   2      -5.457   3.823 122.120  0.00  0.00    +0.000 C 
ENDBRANCH   4  10
BRANCH   1  19
ATOM     19  C   UNK A   0      -7.984  -0.548 125.841  0.00  0.00    +0.000 C 
BRANCH  19  20
ATOM     20  C   UNK A   0      -7.143  -1.255 126.927  0.00  0.00    +0.000 A 
ATOM     21  C   UNK A   0      -7.862  -1.968 127.949  0.00  0.00    +0.000 A 
ATOM     22  C   UNK A   0      -7.240  -2.412 129.123  0.00  0.00    +0.000 A 
ATOM     23  C   UNK A   0      -5.901  -2.094 129.334  0.00  0.00    +0.000 A 
ATOM     24  F   UNK A   0      -5.409  -2.190 130.577  0.00  0.00    +0.000 F 
ATOM     25  C   UNK A   0      -5.165  -1.404 128.369  0.00  0.00    +0.000 A 
ATOM     26  C   UNK A   0      -5.758  -1.046 127.147  0.00  0.00    +0.000 A 
ATOM     27  F   UNK A   0      -5.053  -0.178 126.416  0.00  0.00    +0.000 F 
ENDBRANCH  19  20
BRANCH  19  30
ATOM     28  C   UNK A   0      -9.093  -3.177 123.321  0.00  0.00    +0.000 C 
ATOM     29  N   UNK A   0      -9.093  -1.958 124.070  0.00  0.00    +0.000 N 
ATOM     30  C   UNK A   0      -7.890  -1.641 124.703  0.00  0.00    +0.000 C 
ATOM     31  O   UNK A   0      -6.903  -2.358 124.532  0.00  0.00    +0.000 OA
ATOM     32  H   UNK A   0      -9.981  -1.649 124.433  0.00  0.00    +0.000 HD
ENDBRANCH  19  30
ENDBRANCH   1  19
BRANCH   8  33
ATOM     33  CB  LEU A   1      -8.617   1.958 127.793  0.00  0.00    +0.000 C 
BRANCH  33  34
ATOM     34  CG  LEU A   1      -8.382   1.456 129.235  0.00  0.00    +0.000 C 
ATOM     35  CD1 LEU A   1      -6.991   1.578 129.764  0.00  0.00    +0.000 C 
ATOM     36  CD2 LEU A   1      -8.952   2.394 130.273  0.00  0.00    +0.000 C 
ENDBRANCH  33  34
ENDBRANCH   8  33
TORSDOF 6
ENDMDL
MODEL 3
REMARK VINA RESULT:      -8.9      7.600      9.760
REMARK  Name = CHEMBL379192
REMARK  9 active torsions:
REMARK  status: ('A' for Active; 'I' for Inactive)
REMARK    1  A    between atoms: C_1  and  N_2
REMARK    2  A    between atoms: C_3  and  C_5
REMARK    3  A    between atoms: C_5  and  C_6
REMARK    4  A    between atoms: C_5  and  N_14
REMARK    5  A    between atoms: C_17  and  C_18
REMARK    6  A    between atoms: CA_30  and  CB_31
REMARK    7  A    between atoms: CB_31  and  CG_32
REMARK    8  A    between atoms: CG_32  and  CD1_33
REMARK    9  A    between atoms: CG_32  and  CD2_34
REMARK                            x       y       z     vdW  Elec       q    Type
REMARK                         _______ _______ _______ _____ _____    ______ ____
ROOT
ATOM      1  N   LEU A   1      -5.658   5.683 131.564  0.00  0.00    +0.000 N 
ATOM      2  C   UNK A   2      -6.813   5.847 130.810  0.00  0.00    +0.000 C 
ATOM      3  O   UNK A   2      -6.919   5.370 129.706  0.00  0.00    +0.000 OA
ATOM      4  C   UNK A   2      -7.970   6.617 131.467  0.00  0.00    +0.000 C 
ATOM      5  N   UNK A   2      -8.234   5.955 132.730  0.00  0.00    +0.000 N 
ATOM      6  C   LEU A   1      -7.213   5.688 133.606  0.00  0.00    +0.000 C 
ATOM      7  O   LEU A   1      -7.477   5.456 134.776  0.00  0.00    +0.000 OA
ATOM      8  CA  LEU A   1      -5.748   5.887 133.037  0.00  0.00    +0.000 C 
ATOM      9  H   UNK A   2      -9.165   5.935 133.131  0.00  0.00    +0.000 HD
ENDROOT
BRANCH   4  10
ATOM     10  C   UNK A   2      -9.181   6.540 130.540  0.00  0.00    +0.000 C 
ATOM     11  C   UNK A   2     -10.540   6.433 131.292  0.00  0.00    +0.000 C 
ATOM     12  C   UNK A   2     -11.454   7.084 130.303  0.00  0.00    +0.000 A 
ATOM     13  C   UNK A   2     -12.834   7.039 130.281  0.00  0.00    +0.000 A 
ATOM     14  C   UNK A   2     -13.498   7.711 129.255  0.00  0.00    +0.000 A 
ATOM     15  C   UNK A   2     -12.783   8.451 128.300  0.00  0.00    +0.000 A 
ATOM     16  C   UNK A   2     -11.393   8.533 128.358  0.00  0.00    +0.000 A 
ATOM     17  C   UNK A   2     -10.744   7.828 129.353  0.00  0.00    +0.000 A 
ATOM     18  C   UNK A   2      -9.278   7.782 129.606  0.00  0.00    +0.000 C 
ENDBRANCH   4  10
BRANCH   1  19
ATOM     19  C   UNK A   0      -4.454   5.235 130.807  0.00  0.00    +0.000 C 
BRANCH  19  20
ATOM     20  C   UNK A   0      -3.114   5.848 131.270  0.00  0.00    +0.000 A 
ATOM     21  C   UNK A   0      -2.093   4.931 131.705  0.00  0.00    +0.000 A 
ATOM     22  C   UNK A   0      -0.953   5.363 132.396  0.00  0.00    +0.000 A 
ATOM     23  C   UNK A   0      -0.840   6.710 132.728  0.00  0.00    +0.000 A 
ATOM     24  F   UNK A   0       0.037   7.063 133.678  0.00  0.00    +0.000 F 
ATOM     25  C   UNK A   0      -1.806   7.634 132.325  0.00  0.00    +0.000 A 
ATOM     26  C   UNK A   0      -2.899   7.221 131.545  0.00  0.00    +0.000 A 
ATOM     27  F   UNK A   0      -3.881   8.122 131.438  0.00  0.00    +0.000 F 
ENDBRANCH  19  20
BRANCH  19  30
ATOM     28  C   UNK A   0      -3.681   4.601 127.134  0.00  0.00    +0.000 C 
ATOM     29  N   UNK A   0      -4.162   4.363 128.460  0.00  0.00    +0.000 N 
ATOM     30  C   UNK A   0      -4.325   5.500 129.254  0.00  0.00    +0.000 C 
ATOM     31  O   UNK A   0      -4.128   6.616 128.771  0.00  0.00    +0.000 OA
ATOM     32  H   UNK A   0      -3.959   3.461 128.860  0.00  0.00    +0.000 HD
ENDBRANCH  19  30
ENDBRANCH   1  19
BRANCH   8  33
ATOM     33  CB  LEU A   1      -4.809   5.107 134.024  0.00  0.00    +0.000 C 
BRANCH  33  34
ATOM     34  CG  LEU A   1      -3.719   5.620 134.991  0.00  0.00    +0.000 C 
ATOM     35  CD1 LEU A   1      -3.792   7.063 135.370  0.00  0.00    +0.000 C 
ATOM     36  CD2 LEU A   1      -3.936   5.148 136.409  0.00  0.00    +0.000 C 
ENDBRANCH  33  34
ENDBRANCH   8  33
TORSDOF 6
ENDMDL
MODEL 4
REMARK VINA RESULT:      -8.9      2.385      3.205
REMARK  Name = CHEMBL379192
REMARK  9 active torsions:
REMARK  status: ('A' for Active; 'I' for Inactive)
REMARK    1  A    between atoms: C_1  and  N_2
REMARK    2  A    between atoms: C_3  and  C_5
REMARK    3  A    between atoms: C_5  and  C_6
REMARK    4  A    between atoms: C_5  and  N_14
REMARK    5  A    between atoms: C_17  and  C_18
REMARK    6  A    between atoms: CA_30  and  CB_31
REMARK    7  A    between atoms: CB_31  and  CG_32
REMARK    8  A    between atoms: CG_32  and  CD1_33
REMARK    9  A    between atoms: CG_32  and  CD2_34
REMARK                            x       y       z     vdW  Elec       q    Type
REMARK                         _______ _______ _______ _____ _____    ______ ____
ROOT
ATOM      1  N   LEU A   1      -6.578   1.384 125.850  0.00  0.00    +0.000 N 
ATOM      2  C   UNK A   2      -6.402   1.603 124.490  0.00  0.00    +0.000 C 
ATOM      3  O   UNK A   2      -6.348   0.687 123.705  0.00  0.00    +0.000 OA
ATOM      4  C   UNK A   2      -6.335   3.066 124.024  0.00  0.00    +0.000 C 
ATOM      5  N   UNK A   2      -7.533   3.710 124.528  0.00  0.00    +0.000 N 
ATOM      6  C   LEU A   1      -7.886   3.592 125.848  0.00  0.00    +0.000 C 
ATOM      7  O   LEU A   1      -8.674   4.394 126.328  0.00  0.00    +0.000 OA
ATOM      8  CA  LEU A   1      -7.082   2.513 126.683  0.00  0.00    +0.000 C 
ATOM      9  H   UNK A   2      -7.971   4.477 124.029  0.00  0.00    +0.000 HD
ENDROOT
BRANCH   4  10
ATOM     10  C   UNK A   2      -6.304   3.078 122.497  0.00  0.00    +0.000 C 
ATOM     11  C   UNK A   2      -7.701   3.293 121.843  0.00  0.00    +0.000 C 
ATOM     12  C   UNK A   2      -7.308   3.961 120.565  0.00  0.00    +0.000 A 
ATOM     13  C   UNK A   2      -8.088   4.144 119.440  0.00  0.00    +0.000 A 
ATOM     14  C   UNK A   2      -7.518   4.786 118.341  0.00  0.00    +0.000 A 
ATOM     15  C   UNK A   2      -6.202   5.274 118.396  0.00  0.00    +0.000 A 
ATOM     16  C   UNK A   2      -5.439   5.130 119.552  0.00  0.00    +0.000 A 
ATOM     17  C   UNK A   2      -5.999   4.454 120.619  0.00  0.00    +0.000 A 
ATOM     18  C   UNK A   2      -5.371   4.196 121.943  0.00  0.00    +0.000 C 
ENDBRANCH   4  10
BRANCH   1  19
ATOM     19  C   UNK A   0      -6.312  -0.007 126.318  0.00  0.00    +0.000 C 
BRANCH  19  20
ATOM     20  C   UNK A   0      -7.371  -1.056 125.913  0.00  0.00    +0.000 A 
ATOM     21  C   UNK A   0      -6.886  -2.292 125.358  0.00  0.00    +0.000 A 
ATOM     22  C   UNK A   0      -7.734  -3.198 124.709  0.00  0.00    +0.000 A 
ATOM     23  C   UNK A   0      -9.074  -2.859 124.537  0.00  0.00    +0.000 A 
ATOM     24  F   UNK A   0      -9.791  -3.527 123.624  0.00  0.00    +0.000 F 
ATOM     25  C   UNK A   0      -9.586  -1.670 125.059  0.00  0.00    +0.000 A 
ATOM     26  C   UNK A   0      -8.762  -0.807 125.800  0.00  0.00    +0.000 A 
ATOM     27  F   UNK A   0      -9.280   0.404 126.026  0.00  0.00    +0.000 F 
ENDBRANCH  19  20
BRANCH  19  30
ATOM     28  C   UNK A   0      -4.751  -0.705 129.718  0.00  0.00    +0.000 C 
ATOM     29  N   UNK A   0      -4.972  -0.078 128.452  0.00  0.00    +0.000 N 
ATOM     30  C   UNK A   0      -6.210  -0.339 127.860  0.00  0.00    +0.000 C 
ATOM     31  O   UNK A   0      -7.047  -1.009 128.466  0.00  0.00    +0.000 OA
ATOM     32  H   UNK A   0      -4.155   0.134 127.902  0.00  0.00    +0.000 HD
ENDBRANCH  19  30
ENDBRANCH   1  19
BRANCH   8  33
ATOM     33  CB  LEU A   1      -7.944   2.252 127.968  0.00  0.00    +0.000 C 
BRANCH  33  34
ATOM     34  CG  LEU A   1      -7.596   2.418 129.463  0.00  0.00    +0.000 C 
ATOM     35  CD1 LEU A   1      -7.745   3.791 130.033  0.00  0.00    +0.000 C 
ATOM     36  CD2 LEU A   1      -8.652   1.833 130.372  0.00  0.00    +0.000 C 
ENDBRANCH  33  34
ENDBRANCH   8  33
TORSDOF 6
ENDMDL
MODEL 5
REMARK VINA RESULT:      -8.6      3.926      6.650
REMARK  Name = CHEMBL379192
REMARK  9 active torsions:
REMARK  status: ('A' for Active; 'I' for Inactive)
REMARK    1  A    between atoms: C_1  and  N_2
REMARK    2  A    between atoms: C_3  and  C_5
REMARK    3  A    between atoms: C_5  and  C_6
REMARK    4  A    between atoms: C_5  and  N_14
REMARK    5  A    between atoms: C_17  and  C_18
REMARK    6  A    between atoms: CA_30  and  CB_31
REMARK    7  A    between atoms: CB_31  and  CG_32
REMARK    8  A    between atoms: CG_32  and  CD1_33
REMARK    9  A    between atoms: CG_32  and  CD2_34
REMARK                            x       y       z     vdW  Elec       q    Type
REMARK                         _______ _______ _______ _____ _____    ______ ____
ROOT
ATOM      1  N   LEU A   1      -6.281   0.978 125.476  0.00  0.00    +0.000 N 
ATOM      2  C   UNK A   2      -5.287   1.508 126.288  0.00  0.00    +0.000 C 
ATOM      3  O   UNK A   2      -4.207   0.978 126.391  0.00  0.00    +0.000 OA
ATOM      4  C   UNK A   2      -5.607   2.829 127.007  0.00  0.00    +0.000 C 
ATOM      5  N   UNK A   2      -6.023   3.762 125.979  0.00  0.00    +0.000 N 
ATOM      6  C   LEU A   1      -6.985   3.412 125.066  0.00  0.00    +0.000 C 
ATOM      7  O   LEU A   1      -7.563   4.290 124.443  0.00  0.00    +0.000 OA
ATOM      8  CA  LEU A   1      -7.385   1.880 125.040  0.00  0.00    +0.000 C 
ATOM      9  H   UNK A   2      -5.854   4.758 126.069  0.00  0.00    +0.000 HD
ENDROOT
BRANCH   4  10
ATOM     10  C   UNK A   2      -4.337   3.309 127.706  0.00  0.00    +0.000 C 
ATOM     11  C   UNK A   2      -3.883   4.733 127.272  0.00  0.00    +0.000 C 
ATOM     12  C   UNK A   2      -3.186   5.192 128.513  0.00  0.00    +0.000 A 
ATOM     13  C   UNK A   2      -2.332   6.269 128.646  0.00  0.00    +0.000 A 
ATOM     14  C   UNK A   2      -1.775   6.516 129.900  0.00  0.00    +0.000 A 
ATOM     15  C   UNK A   2      -2.111   5.719 131.006  0.00  0.00    +0.000 A 
ATOM     16  C   UNK A   2      -3.013   4.665 130.875  0.00  0.00    +0.000 A 
ATOM     17  C   UNK A   2      -3.524   4.403 129.618  0.00  0.00    +0.000 A 
ATOM     18  C   UNK A   2      -4.502   3.341 129.255  0.00  0.00    +0.000 C 
ENDBRANCH   4  10
BRANCH   1  19
ATOM     19  C   UNK A   0      -6.084  -0.440 125.059  0.00  0.00    +0.000 C 
BRANCH  19  20
ATOM     20  C   UNK A   0      -7.302  -1.108 124.384  0.00  0.00    +0.000 A 
ATOM     21  C   UNK A   0      -8.379  -1.522 125.245  0.00  0.00    +0.000 A 
ATOM     22  C   UNK A   0      -9.400  -2.372 124.800  0.00  0.00    +0.000 A 
ATOM     23  C   UNK A   0      -9.332  -2.884 123.507  0.00  0.00    +0.000 A 
ATOM     24  F   UNK A   0     -10.078  -3.953 123.201  0.00  0.00    +0.000 F 
ATOM     25  C   UNK A   0      -8.305  -2.508 122.639  0.00  0.00    +0.000 A 
ATOM     26  C   UNK A   0      -7.336  -1.577 123.047  0.00  0.00    +0.000 A 
ATOM     27  F   UNK A   0      -6.271  -1.489 122.243  0.00  0.00    +0.000 F 
ENDBRANCH  19  20
BRANCH  19  30
ATOM     28  C   UNK A   0      -5.133  -2.026 128.386  0.00  0.00    +0.000 C 
ATOM     29  N   UNK A   0      -5.785  -1.155 127.458  0.00  0.00    +0.000 N 
ATOM     30  C   UNK A   0      -5.743  -1.559 126.122  0.00  0.00    +0.000 C 
ATOM     31  O   UNK A   0      -5.234  -2.641 125.828  0.00  0.00    +0.000 OA
ATOM     32  H   UNK A   0      -5.848  -0.183 127.716  0.00  0.00    +0.000 HD
ENDBRANCH  19  30
ENDBRANCH   1  19
BRANCH   8  33
ATOM     33  CB  LEU A   1      -8.116   1.663 123.668  0.00  0.00    +0.000 C 
BRANCH  33  34
ATOM     34  CG  LEU A   1      -9.616   1.732 123.307  0.00  0.00    +0.000 C 
ATOM     35  CD1 LEU A   1     -10.141   0.643 122.431  0.00  0.00    +0.000 C 
ATOM     36  CD2 LEU A   1     -10.508   1.349 124.465  0.00  0.00    +0.000 C 
ENDBRANCH  33  34
ENDBRANCH   8  33
TORSDOF 6
ENDMDL
MODEL 6
REMARK VINA RESULT:      -8.6      3.566      6.416
REMARK  Name = CHEMBL379192
REMARK  9 active torsions:
REMARK  status: ('A' for Active; 'I' for Inactive)
REMARK    1  A    between atoms: C_1  and  N_2
REMARK    2  A    between atoms: C_3  and  C_5
REMARK    3  A    between atoms: C_5  and  C_6
REMARK    4  A    between atoms: C_5  and  N_14
REMARK    5  A    between atoms: C_17  and  C_18
REMARK    6  A    between atoms: CA_30  and  CB_31
REMARK    7  A    between atoms: CB_31  and  CG_32
REMARK    8  A    between atoms: CG_32  and  CD1_33
REMARK    9  A    between atoms: CG_32  and  CD2_34
REMARK                            x       y       z     vdW  Elec       q    Type
REMARK                         _______ _______ _______ _____ _____    ______ ____
ROOT
ATOM      1  N   LEU A   1      -6.966   0.726 127.003  0.00  0.00    +0.000 N 
ATOM      2  C   UNK A   2      -6.445   2.001 127.173  0.00  0.00    +0.000 C 
ATOM      3  O   UNK A   2      -6.896   2.952 126.580  0.00  0.00    +0.000 OA
ATOM      4  C   UNK A   2      -5.303   2.157 128.190  0.00  0.00    +0.000 C 
ATOM      5  N   UNK A   2      -5.790   1.598 129.437  0.00  0.00    +0.000 N 
ATOM      6  C   LEU A   1      -6.359   0.350 129.467  0.00  0.00    +0.000 C 
ATOM      7  O   LEU A   1      -6.445  -0.239 130.535  0.00  0.00    +0.000 OA
ATOM      8  CA  LEU A   1      -6.692  -0.290 128.058  0.00  0.00    +0.000 C 
ATOM      9  H   UNK A   2      -5.477   1.954 130.333  0.00  0.00    +0.000 HD
ENDROOT
BRANCH   4  10
ATOM     10  C   UNK A   2      -4.996   3.646 128.337  0.00  0.00    +0.000 C 
ATOM     11  C   UNK A   2      -5.830   4.352 129.445  0.00  0.00    +0.000 C 
ATOM     12  C   UNK A   2      -4.890   5.443 129.845  0.00  0.00    +0.000 A 
ATOM     13  C   UNK A   2      -5.181   6.569 130.591  0.00  0.00    +0.000 A 
ATOM     14  C   UNK A   2      -4.151   7.475 130.842  0.00  0.00    +0.000 A 
ATOM     15  C   UNK A   2      -2.846   7.225 130.389  0.00  0.00    +0.000 A 
ATOM     16  C   UNK A   2      -2.550   6.063 129.681  0.00  0.00    +0.000 A 
ATOM     17  C   UNK A   2      -3.587   5.194 129.400  0.00  0.00    +0.000 A 
ATOM     18  C   UNK A   2      -3.496   3.899 128.671  0.00  0.00    +0.000 C 
ENDBRANCH   4  10
BRANCH   1  19
ATOM     19  C   UNK A   0      -7.825   0.536 125.798  0.00  0.00    +0.000 C 
BRANCH  19  20
ATOM     20  C   UNK A   0      -7.741  -0.857 125.137  0.00  0.00    +0.000 A 
ATOM     21  C   UNK A   0      -8.972  -1.592 125.007  0.00  0.00    +0.000 A 
ATOM     22  C   UNK A   0      -8.992  -2.955 124.682  0.00  0.00    +0.000 A 
ATOM     23  C   UNK A   0      -7.782  -3.631 124.547  0.00  0.00    +0.000 A 
ATOM     24  F   UNK A   0      -7.788  -4.969 124.599  0.00  0.00    +0.000 F 
ATOM     25  C   UNK A   0      -6.565  -2.956 124.664  0.00  0.00    +0.000 A 
ATOM     26  C   UNK A   0      -6.542  -1.570 124.889  0.00  0.00    +0.000 A 
ATOM     27  F   UNK A   0      -5.348  -1.081 125.237  0.00  0.00    +0.000 F 
ENDBRANCH  19  20
BRANCH  19  30
ATOM     28  C   UNK A   0      -8.698   2.783 122.852  0.00  0.00    +0.000 C 
ATOM     29  N   UNK A   0      -8.707   2.259 124.183  0.00  0.00    +0.000 N 
ATOM     30  C   UNK A   0      -7.629   1.434 124.512  0.00  0.00    +0.000 C 
ATOM     31  O   UNK A   0      -6.720   1.264 123.699  0.00  0.00    +0.000 OA
ATOM     32  H   UNK A   0      -9.607   2.156 124.623  0.00  0.00    +0.000 HD
ENDBRANCH  19  30
ENDBRANCH   1  19
BRANCH   8  33
ATOM     33  CB  LEU A   1      -7.710  -1.447 128.356  0.00  0.00    +0.000 C 
BRANCH  33  34
ATOM     34  CG  LEU A   1      -7.513  -2.979 128.374  0.00  0.00    +0.000 C 
ATOM     35  CD1 LEU A   1      -7.197  -3.594 129.698  0.00  0.00    +0.000 C 
ATOM     36  CD2 LEU A   1      -8.817  -3.731 128.240  0.00  0.00    +0.000 C 
ENDBRANCH  33  34
ENDBRANCH   8  33
TORSDOF 6
ENDMDL
MODEL 7
REMARK VINA RESULT:      -8.5      3.183      5.017
REMARK  Name = CHEMBL379192
REMARK  9 active torsions:
REMARK  status: ('A' for Active; 'I' for Inactive)
REMARK    1  A    between atoms: C_1  and  N_2
REMARK    2  A    between atoms: C_3  and  C_5
REMARK    3  A    between atoms: C_5  and  C_6
REMARK    4  A    between atoms: C_5  and  N_14
REMARK    5  A    between atoms: C_17  and  C_18
REMARK    6  A    between atoms: CA_30  and  CB_31
REMARK    7  A    between atoms: CB_31  and  CG_32
REMARK    8  A    between atoms: CG_32  and  CD1_33
REMARK    9  A    between atoms: CG_32  and  CD2_34
REMARK                            x       y       z     vdW  Elec       q    Type
REMARK                         _______ _______ _______ _____ _____    ______ ____
ROOT
ATOM      1  N   LEU A   1      -6.966   1.558 126.691  0.00  0.00    +0.000 N 
ATOM      2  C   UNK A   2      -7.195   2.445 125.646  0.00  0.00    +0.000 C 
ATOM      3  O   UNK A   2      -6.931   3.619 125.746  0.00  0.00    +0.000 OA
ATOM      4  C   UNK A   2      -7.748   1.854 124.340  0.00  0.00    +0.000 C 
ATOM      5  N   UNK A   2      -6.841   0.788 123.959  0.00  0.00    +0.000 N 
ATOM      6  C   LEU A   1      -6.479  -0.178 124.864  0.00  0.00    +0.000 C 
ATOM      7  O   LEU A   1      -6.011  -1.231 124.457  0.00  0.00    +0.000 OA
ATOM      8  CA  LEU A   1      -6.879   0.106 126.370  0.00  0.00    +0.000 C 
ATOM      9  H   UNK A   2      -6.684   0.550 122.986  0.00  0.00    +0.000 HD
ENDROOT
BRANCH   4  10
ATOM     10  C   UNK A   2      -7.769   2.961 123.288  0.00  0.00    +0.000 C 
ATOM     11  C   UNK A   2      -6.471   3.037 122.433  0.00  0.00    +0.000 C 
ATOM     12  C   UNK A   2      -7.014   3.596 121.156  0.00  0.00    +0.000 A 
ATOM     13  C   UNK A   2      -6.299   4.149 120.112  0.00  0.00    +0.000 A 
ATOM     14  C   UNK A   2      -7.008   4.627 119.010  0.00  0.00    +0.000 A 
ATOM     15  C   UNK A   2      -8.406   4.505 118.945  0.00  0.00    +0.000 A 
ATOM     16  C   UNK A   2      -9.115   3.900 119.981  0.00  0.00    +0.000 A 
ATOM     17  C   UNK A   2      -8.406   3.471 121.087  0.00  0.00    +0.000 A 
ATOM     18  C   UNK A   2      -8.956   2.794 122.293  0.00  0.00    +0.000 C 
ENDBRANCH   4  10
BRANCH   1  19
ATOM     19  C   UNK A   0      -6.751   2.181 128.028  0.00  0.00    +0.000 C 
BRANCH  19  20
ATOM     20  C   UNK A   0      -5.339   2.760 128.271  0.00  0.00    +0.000 A 
ATOM     21  C   UNK A   0      -5.246   3.913 129.125  0.00  0.00    +0.000 A 
ATOM     22  C   UNK A   0      -4.079   4.686 129.204  0.00  0.00    +0.000 A 
ATOM     23  C   UNK A   0      -3.004   4.365 128.380  0.00  0.00    +0.000 A 
ATOM     24  F   UNK A   0      -2.051   5.285 128.184  0.00  0.00    +0.000 F 
ATOM     25  C   UNK A   0      -3.053   3.253 127.537  0.00  0.00    +0.000 A 
ATOM     26  C   UNK A   0      -4.181   2.417 127.529  0.00  0.00    +0.000 A 
ATOM     27  F   UNK A   0      -4.226   1.548 126.515  0.00  0.00    +0.000 F 
ENDBRANCH  19  20
BRANCH  19  30
ATOM     28  C   UNK A   0      -8.334   0.730 131.171  0.00  0.00    +0.000 C 
ATOM     29  N   UNK A   0      -8.210   1.161 129.813  0.00  0.00    +0.000 N 
ATOM     30  C   UNK A   0      -6.903   1.332 129.354  0.00  0.00    +0.000 C 
ATOM     31  O   UNK A   0      -5.955   1.043 130.085  0.00  0.00    +0.000 OA
ATOM     32  H   UNK A   0      -8.979   1.689 129.434  0.00  0.00    +0.000 HD
ENDBRANCH  19  30
ENDBRANCH   1  19
BRANCH   8  33
ATOM     33  CB  LEU A   1      -5.989  -0.863 127.227  0.00  0.00    +0.000 C 
BRANCH  33  34
ATOM     34  CG  LEU A   1      -6.319  -2.229 127.868  0.00  0.00    +0.000 C 
ATOM     35  CD1 LEU A   1      -5.588  -2.568 129.125  0.00  0.00    +0.000 C 
ATOM     36  CD2 LEU A   1      -7.668  -2.236 128.549  0.00  0.00    +0.000 C 
ENDBRANCH  33  34
ENDBRANCH   8  33
TORSDOF 6
ENDMDL
MODEL 8
REMARK VINA RESULT:      -8.5      2.144      4.280
REMARK  Name = CHEMBL379192
REMARK  9 active torsions:
REMARK  status: ('A' for Active; 'I' for Inactive)
REMARK    1  A    between atoms: C_1  and  N_2
REMARK    2  A    between atoms: C_3  and  C_5
REMARK    3  A    between atoms: C_5  and  C_6
REMARK    4  A    between atoms: C_5  and  N_14
REMARK    5  A    between atoms: C_17  and  C_18
REMARK    6  A    between atoms: CA_30  and  CB_31
REMARK    7  A    between atoms: CB_31  and  CG_32
REMARK    8  A    between atoms: CG_32  and  CD1_33
REMARK    9  A    between atoms: CG_32  and  CD2_34
REMARK                            x       y       z     vdW  Elec       q    Type
REMARK                         _______ _______ _______ _____ _____    ______ ____
ROOT
ATOM      1  N   LEU A   1      -6.413   1.401 126.641  0.00  0.00    +0.000 N 
ATOM      2  C   UNK A   2      -6.670   2.324 125.635  0.00  0.00    +0.000 C 
ATOM      3  O   UNK A   2      -6.158   3.418 125.637  0.00  0.00    +0.000 OA
ATOM      4  C   UNK A   2      -7.591   1.870 124.492  0.00  0.00    +0.000 C 
ATOM      5  N   UNK A   2      -7.020   0.643 123.971  0.00  0.00    +0.000 N 
ATOM      6  C   LEU A   1      -6.681  -0.383 124.816  0.00  0.00    +0.000 C 
ATOM      7  O   LEU A   1      -6.532  -1.507 124.358  0.00  0.00    +0.000 OA
ATOM      8  CA  LEU A   1      -6.691  -0.036 126.361  0.00  0.00    +0.000 C 
ATOM      9  H   UNK A   2      -7.121   0.386 122.995  0.00  0.00    +0.000 HD
ENDROOT
BRANCH   4  10
ATOM     10  C   UNK A   2      -7.606   2.966 123.428  0.00  0.00    +0.000 C 
ATOM     11  C   UNK A   2      -6.320   3.007 122.553  0.00  0.00    +0.000 C 
ATOM     12  C   UNK A   2      -6.871   3.563 121.279  0.00  0.00    +0.000 A 
ATOM     13  C   UNK A   2      -6.161   4.090 120.217  0.00  0.00    +0.000 A 
ATOM     14  C   UNK A   2      -6.877   4.570 119.121  0.00  0.00    +0.000 A 
ATOM     15  C   UNK A   2      -8.278   4.476 119.079  0.00  0.00    +0.000 A 
ATOM     16  C   UNK A   2      -8.983   3.897 120.132  0.00  0.00    +0.000 A 
ATOM     17  C   UNK A   2      -8.266   3.465 121.231  0.00  0.00    +0.000 A 
ATOM     18  C   UNK A   2      -8.811   2.813 122.454  0.00  0.00    +0.000 C 
ENDBRANCH   4  10
BRANCH   1  19
ATOM     19  C   UNK A   0      -5.802   1.956 127.882  0.00  0.00    +0.000 C 
BRANCH  19  20
ATOM     20  C   UNK A   0      -6.437   1.475 129.206  0.00  0.00    +0.000 A 
ATOM     21  C   UNK A   0      -5.549   0.909 130.187  0.00  0.00    +0.000 A 
ATOM     22  C   UNK A   0      -6.025   0.197 131.296  0.00  0.00    +0.000 A 
ATOM     23  C   UNK A   0      -7.395  -0.025 131.414  0.00  0.00    +0.000 A 
ATOM     24  F   UNK A   0      -7.818  -0.987 132.244  0.00  0.00    +0.000 F 
ATOM     25  C   UNK A   0      -8.291   0.507 130.485  0.00  0.00    +0.000 A 
ATOM     26  C   UNK A   0      -7.826   1.307 129.428  0.00  0.00    +0.000 A 
ATOM     27  F   UNK A   0      -8.726   1.543 128.468  0.00  0.00    +0.000 F 
ENDBRANCH  19  20
BRANCH  19  30
ATOM     28  C   UNK A   0      -4.467   5.429 128.682  0.00  0.00    +0.000 C 
ATOM     29  N   UNK A   0      -4.548   4.133 128.083  0.00  0.00    +0.000 N 
ATOM     30  C   UNK A   0      -5.796   3.512 128.160  0.00  0.00    +0.000 C 
ATOM     31  O   UNK A   0      -6.749   4.116 128.654  0.00  0.00    +0.000 OA
ATOM     32  H   UNK A   0      -3.693   3.602 128.034  0.00  0.00    +0.000 HD
ENDBRANCH  19  30
ENDBRANCH   1  19
BRANCH   8  33
ATOM     33  CB  LEU A   1      -5.858  -1.174 127.050  0.00  0.00    +0.000 C 
BRANCH  33  34
ATOM     34  CG  LEU A   1      -6.317  -2.457 127.775  0.00  0.00    +0.000 C 
ATOM     35  CD1 LEU A   1      -5.751  -2.691 129.137  0.00  0.00    +0.000 C 
ATOM     36  CD2 LEU A   1      -7.735  -2.356 128.289  0.00  0.00    +0.000 C 
ENDBRANCH  33  34
ENDBRANCH   8  33
TORSDOF 6
ENDMDL
MODEL 9
REMARK VINA RESULT:      -8.4      1.954      4.388
REMARK  Name = CHEMBL379192
REMARK  9 active torsions:
REMARK  status: ('A' for Active; 'I' for Inactive)
REMARK    1  A    between atoms: C_1  and  N_2
REMARK    2  A    between atoms: C_3  and  C_5
REMARK    3  A    between atoms: C_5  and  C_6
REMARK    4  A    between atoms: C_5  and  N_14
REMARK    5  A    between atoms: C_17  and  C_18
REMARK    6  A    between atoms: CA_30  and  CB_31
REMARK    7  A    between atoms: CB_31  and  CG_32
REMARK    8  A    between atoms: CG_32  and  CD1_33
REMARK    9  A    between atoms: CG_32  and  CD2_34
REMARK                            x       y       z     vdW  Elec       q    Type
REMARK                         _______ _______ _______ _____ _____    ______ ____
ROOT
ATOM      1  N   LEU A   1      -7.396   0.907 127.467  0.00  0.00    +0.000 N 
ATOM      2  C   UNK A   2      -7.368   1.851 126.449  0.00  0.00    +0.000 C 
ATOM      3  O   UNK A   2      -6.645   2.817 126.505  0.00  0.00    +0.000 OA
ATOM      4  C   UNK A   2      -8.257   1.582 125.225  0.00  0.00    +0.000 C 
ATOM      5  N   UNK A   2      -7.905   0.259 124.748  0.00  0.00    +0.000 N 
ATOM      6  C   LEU A   1      -7.860  -0.806 125.613  0.00  0.00    +0.000 C 
ATOM      7  O   LEU A   1      -7.904  -1.942 125.162  0.00  0.00    +0.000 OA
ATOM      8  CA  LEU A   1      -7.936  -0.446 127.153  0.00  0.00    +0.000 C 
ATOM      9  H   UNK A   2      -7.969   0.016 123.766  0.00  0.00    +0.000 HD
ENDROOT
BRANCH   4  10
ATOM     10  C   UNK A   2      -7.953   2.646 124.172  0.00  0.00    +0.000 C 
ATOM     11  C   UNK A   2      -6.589   2.441 123.450  0.00  0.00    +0.000 C 
ATOM     12  C   UNK A   2      -6.882   3.067 122.124  0.00  0.00    +0.000 A 
ATOM     13  C   UNK A   2      -5.973   3.441 121.154  0.00  0.00    +0.000 A 
ATOM     14  C   UNK A   2      -6.461   4.024 119.986  0.00  0.00    +0.000 A 
ATOM     15  C   UNK A   2      -7.841   4.184 119.782  0.00  0.00    +0.000 A 
ATOM     16  C   UNK A   2      -8.755   3.757 120.744  0.00  0.00    +0.000 A 
ATOM     17  C   UNK A   2      -8.258   3.221 121.917  0.00  0.00    +0.000 A 
ATOM     18  C   UNK A   2      -9.047   2.697 123.065  0.00  0.00    +0.000 C 
ENDBRANCH   4  10
BRANCH   1  19
ATOM     19  C   UNK A   0      -6.797   1.338 128.762  0.00  0.00    +0.000 C 
BRANCH  19  20
ATOM     20  C   UNK A   0      -6.933   0.329 129.925  0.00  0.00    +0.000 A 
ATOM     21  C   UNK A   0      -8.191   0.305 130.622  0.00  0.00    +0.000 A 
ATOM     22  C   UNK A   0      -8.348  -0.357 131.848  0.00  0.00    +0.000 A 
ATOM     23  C   UNK A   0      -7.235  -0.950 132.437  0.00  0.00    +0.000 A 
ATOM     24  F   UNK A   0      -7.288  -1.257 133.740  0.00  0.00    +0.000 F 
ATOM     25  C   UNK A   0      -5.995  -0.950 131.794  0.00  0.00    +0.000 A 
ATOM     26  C   UNK A   0      -5.858  -0.376 130.520  0.00  0.00    +0.000 A 
ATOM     27  F   UNK A   0      -4.595  -0.204 130.117  0.00  0.00    +0.000 F 
ENDBRANCH  19  20
BRANCH  19  30
ATOM     28  C   UNK A   0      -8.804   4.502 129.430  0.00  0.00    +0.000 C 
ATOM     29  N   UNK A   0      -8.521   3.155 129.041  0.00  0.00    +0.000 N 
ATOM     30  C   UNK A   0      -7.309   2.639 129.501  0.00  0.00    +0.000 C 
ATOM     31  O   UNK A   0      -6.603   3.313 130.252  0.00  0.00    +0.000 OA
ATOM     32  H   UNK A   0      -8.946   2.832 128.187  0.00  0.00    +0.000 HD
ENDBRANCH  19  30
ENDBRANCH   1  19
BRANCH   8  33
ATOM     33  CB  LEU A   1      -7.418  -1.723 127.905  0.00  0.00    +0.000 C 
BRANCH  33  34
ATOM     34  CG  LEU A   1      -8.178  -2.773 128.744  0.00  0.00    +0.000 C 
ATOM     35  CD1 LEU A   1      -8.786  -3.912 127.993  0.00  0.00    +0.000 C 
ATOM     36  CD2 LEU A   1      -7.249  -3.672 129.525  0.00  0.00    +0.000 C 
ENDBRANCH  33  34
ENDBRANCH   8  33
TORSDOF 6
ENDMDL
