MODEL 1
REMARK VINA RESULT:     -10.2      0.000      0.000
REMARK  Name = CHEMBL602671
REMARK  7 active torsions:
REMARK  status: ('A' for Active; 'I' for Inactive)
REMARK    1  A    between atoms: C_1  and  C_2
REMARK    2  A    between atoms: C_4  and  C_5
REMARK    3  A    between atoms: C_20  and  C_21
REMARK    4  A    between atoms: C_21  and  N_22
REMARK    5  A    between atoms: C_29  and  C_30
REMARK    6  A    between atoms: C_30  and  N_32
REMARK    7  A    between atoms: N_36  and  C_37
REMARK                            x       y       z     vdW  Elec       q    Type
REMARK                         _______ _______ _______ _____ _____    ______ ____
ROOT
ATOM      1  C   UNL     1      -7.549  -2.886 132.661  0.00  0.00    +0.000 C 
ATOM      2  C   UNL     1      -7.569  -2.113 131.377  0.00  0.00    +0.000 A 
ATOM      3  C   UNL     1      -7.679  -2.883 130.167  0.00  0.00    +0.000 A 
ATOM      4  C   UNL     1      -7.739  -2.293 128.894  0.00  0.00    +0.000 A 
ATOM      5  C   UNL     1      -7.754  -0.906 128.906  0.00  0.00    +0.000 A 
ATOM      6  C   UNL     1      -7.585  -0.122 130.073  0.00  0.00    +0.000 A 
ATOM      7  C   UNL     1      -7.483  -0.700 131.352  0.00  0.00    +0.000 A 
ENDROOT
BRANCH   4   8
ATOM      8  C   UNL     1      -7.946  -3.120 127.608  0.00  0.00    +0.000 C 
ATOM      9  O   UNL     1      -8.669  -4.115 127.688  0.00  0.00    +0.000 OA
ATOM     10  N   UNL     1      -7.406  -2.642 126.383  0.00  0.00    +0.000 N 
ATOM     11  C   UNL     1      -5.944  -2.493 126.130  0.00  0.00    +0.000 C 
ATOM     12  C   UNL     1      -5.417  -1.059 125.962  0.00  0.00    +0.000 C 
ATOM     13  C   UNL     1      -6.083  -0.280 124.844  0.00  0.00    +0.000 C 
ATOM     14  N   UNL     1      -7.513  -0.175 124.992  0.00  0.00    +0.000 N 
ATOM     15  C   UNL     1      -8.226  -1.277 124.524  0.00  0.00    +0.000 A 
ATOM     16  C   UNL     1      -8.972  -1.072 123.354  0.00  0.00    +0.000 A 
ATOM     17  C   UNL     1      -9.618  -2.128 122.734  0.00  0.00    +0.000 A 
ATOM     18  C   UNL     1      -9.569  -3.388 123.328  0.00  0.00    +0.000 A 
ATOM     19  C   UNL     1      -8.897  -3.591 124.560  0.00  0.00    +0.000 A 
ATOM     20  C   UNL     1      -8.213  -2.532 125.179  0.00  0.00    +0.000 A 
ATOM     21  H   UNL     1      -7.966   0.472 125.625  0.00  0.00    +0.000 HD
ENDBRANCH   4   8
BRANCH   7  22
ATOM     22  C   UNL     1      -7.344   0.265 132.559  0.00  0.00    +0.000 C 
BRANCH  22  23
ATOM     23  N   UNL     1      -6.946   1.654 132.283  0.00  0.00    +0.000 N 
ATOM     24  C   UNL     1      -7.750   2.639 131.781  0.00  0.00    +0.000 C 
ATOM     25  O   UNL     1      -8.899   2.418 131.395  0.00  0.00    +0.000 OA
ATOM     26  N   UNL     1      -7.186   3.915 131.877  0.00  0.00    +0.000 N 
ATOM     27  C   UNL     1      -5.771   4.287 131.836  0.00  0.00    +0.000 C 
ATOM     28  C   UNL     1      -5.700   5.517 132.722  0.00  0.00    +0.000 C 
ATOM     29  C   UNL     1      -6.994   6.233 132.372  0.00  0.00    +0.000 C 
ATOM     30  C   UNL     1      -8.005   5.141 131.938  0.00  0.00    +0.000 C 
ATOM     31  H   UNL     1      -6.390   2.098 132.973  0.00  0.00    +0.000 HD
BRANCH  30  32
ATOM     32  C   UNL     1      -8.749   5.589 130.633  0.00  0.00    +0.000 C 
ATOM     33  S   UNL     1      -8.499   4.839 129.139  0.00  0.00    +0.000 S 
BRANCH  32  34
ATOM     34  N   UNL     1      -9.664   6.648 130.791  0.00  0.00    +0.000 N 
ATOM     35  C   UNL     1     -10.727   6.524 131.791  0.00  0.00    +0.000 C 
ATOM     36  C   UNL     1     -12.133   6.299 131.231  0.00  0.00    +0.000 C 
ATOM     37  C   UNL     1     -12.672   7.563 130.554  0.00  0.00    +0.000 C 
ATOM     38  N   UNL     1     -12.387   7.657 129.115  0.00  0.00    +0.000 NA
ATOM     39  C   UNL     1     -13.391   6.903 128.357  0.00  0.00    +0.000 C 
ATOM     40  C   UNL     1     -11.031   7.207 128.740  0.00  0.00    +0.000 C 
ATOM     41  C   UNL     1      -9.915   7.641 129.721  0.00  0.00    +0.000 C 
ENDBRANCH  32  34
ENDBRANCH  30  32
ENDBRANCH  22  23
ENDBRANCH   7  22
TORSDOF 5
ENDMDL
MODEL 2
REMARK VINA RESULT:     -10.0      2.388      4.245
REMARK  Name = CHEMBL602671
REMARK  7 active torsions:
REMARK  status: ('A' for Active; 'I' for Inactive)
REMARK    1  A    between atoms: C_1  and  C_2
REMARK    2  A    between atoms: C_4  and  C_5
REMARK    3  A    between atoms: C_20  and  C_21
REMARK    4  A    between atoms: C_21  and  N_22
REMARK    5  A    between atoms: C_29  and  C_30
REMARK    6  A    between atoms: C_30  and  N_32
REMARK    7  A    between atoms: N_36  and  C_37
REMARK                            x       y       z     vdW  Elec       q    Type
REMARK                         _______ _______ _______ _____ _____    ______ ____
ROOT
ATOM      1  C   UNL     1      -7.368  -2.917 132.725  0.00  0.00    +0.000 C 
ATOM      2  C   UNL     1      -7.506  -2.091 131.481  0.00  0.00    +0.000 A 
ATOM      3  C   UNL     1      -7.579  -2.811 130.237  0.00  0.00    +0.000 A 
ATOM      4  C   UNL     1      -7.740  -2.172 128.998  0.00  0.00    +0.000 A 
ATOM      5  C   UNL     1      -7.892  -0.796 129.079  0.00  0.00    +0.000 A 
ATOM      6  C   UNL     1      -7.762  -0.054 130.277  0.00  0.00    +0.000 A 
ATOM      7  C   UNL     1      -7.561  -0.677 131.523  0.00  0.00    +0.000 A 
ENDROOT
BRANCH   4   8
ATOM      8  C   UNL     1      -7.906  -2.955 127.678  0.00  0.00    +0.000 C 
ATOM      9  O   UNL     1      -8.611  -3.966 127.708  0.00  0.00    +0.000 OA
ATOM     10  N   UNL     1      -7.351  -2.423 126.483  0.00  0.00    +0.000 N 
ATOM     11  C   UNL     1      -5.887  -2.239 126.265  0.00  0.00    +0.000 C 
ATOM     12  C   UNL     1      -5.385  -0.790 126.160  0.00  0.00    +0.000 C 
ATOM     13  C   UNL     1      -6.042   0.017 125.057  0.00  0.00    +0.000 C 
ATOM     14  N   UNL     1      -7.478   0.091 125.181  0.00  0.00    +0.000 N 
ATOM     15  C   UNL     1      -8.160  -1.006 124.658  0.00  0.00    +0.000 A 
ATOM     16  C   UNL     1      -8.887  -0.772 123.482  0.00  0.00    +0.000 A 
ATOM     17  C   UNL     1      -9.501  -1.816 122.811  0.00  0.00    +0.000 A 
ATOM     18  C   UNL     1      -9.440  -3.096 123.361  0.00  0.00    +0.000 A 
ATOM     19  C   UNL     1      -8.789  -3.332 124.597  0.00  0.00    +0.000 A 
ATOM     20  C   UNL     1      -8.136  -2.284 125.268  0.00  0.00    +0.000 A 
ATOM     21  H   UNL     1      -7.954   0.706 125.827  0.00  0.00    +0.000 HD
ENDBRANCH   4   8
BRANCH   7  22
ATOM     22  C   UNL     1      -7.479   0.240 132.772  0.00  0.00    +0.000 C 
BRANCH  22  23
ATOM     23  N   UNL     1      -7.627   1.689 132.568  0.00  0.00    +0.000 N 
ATOM     24  C   UNL     1      -6.610   2.594 132.434  0.00  0.00    +0.000 C 
ATOM     25  O   UNL     1      -5.428   2.282 132.588  0.00  0.00    +0.000 OA
ATOM     26  N   UNL     1      -7.041   3.845 131.984  0.00  0.00    +0.000 N 
ATOM     27  C   UNL     1      -8.330   4.499 132.214  0.00  0.00    +0.000 C 
ATOM     28  C   UNL     1      -8.537   5.331 130.961  0.00  0.00    +0.000 C 
ATOM     29  C   UNL     1      -7.129   5.833 130.681  0.00  0.00    +0.000 C 
ATOM     30  C   UNL     1      -6.155   4.772 131.252  0.00  0.00    +0.000 C 
ATOM     31  H   UNL     1      -8.316   1.973 131.914  0.00  0.00    +0.000 HD
BRANCH  30  32
ATOM     32  C   UNL     1      -5.008   5.476 132.057  0.00  0.00    +0.000 C 
ATOM     33  S   UNL     1      -5.179   5.931 133.676  0.00  0.00    +0.000 S 
BRANCH  32  34
ATOM     34  N   UNL     1      -3.810   5.685 131.347  0.00  0.00    +0.000 N 
ATOM     35  C   UNL     1      -3.607   6.963 130.660  0.00  0.00    +0.000 C 
ATOM     36  C   UNL     1      -3.702   6.910 129.134  0.00  0.00    +0.000 C 
ATOM     37  C   UNL     1      -2.497   6.186 128.524  0.00  0.00    +0.000 C 
ATOM     38  N   UNL     1      -2.682   4.741 128.334  0.00  0.00    +0.000 NA
ATOM     39  C   UNL     1      -3.386   4.489 127.072  0.00  0.00    +0.000 C 
ATOM     40  C   UNL     1      -3.389   4.074 129.447  0.00  0.00    +0.000 C 
ATOM     41  C   UNL     1      -2.977   4.563 130.856  0.00  0.00    +0.000 C 
ENDBRANCH  32  34
ENDBRANCH  30  32
ENDBRANCH  22  23
ENDBRANCH   7  22
TORSDOF 5
ENDMDL
MODEL 3
REMARK VINA RESULT:     -10.0      4.146     10.073
REMARK  Name = CHEMBL602671
REMARK  7 active torsions:
REMARK  status: ('A' for Active; 'I' for Inactive)
REMARK    1  A    between atoms: C_1  and  C_2
REMARK    2  A    between atoms: C_4  and  C_5
REMARK    3  A    between atoms: C_20  and  C_21
REMARK    4  A    between atoms: C_21  and  N_22
REMARK    5  A    between atoms: C_29  and  C_30
REMARK    6  A    between atoms: C_30  and  N_32
REMARK    7  A    between atoms: N_36  and  C_37
REMARK                            x       y       z     vdW  Elec       q    Type
REMARK                         _______ _______ _______ _____ _____    ______ ____
ROOT
ATOM      1  C   UNL     1      -7.329   0.107 129.229  0.00  0.00    +0.000 C 
ATOM      2  C   UNL     1      -8.157   1.130 129.946  0.00  0.00    +0.000 A 
ATOM      3  C   UNL     1      -8.184   2.450 129.372  0.00  0.00    +0.000 A 
ATOM      4  C   UNL     1      -8.939   3.500 129.917  0.00  0.00    +0.000 A 
ATOM      5  C   UNL     1      -9.709   3.142 131.014  0.00  0.00    +0.000 A 
ATOM      6  C   UNL     1      -9.656   1.873 131.639  0.00  0.00    +0.000 A 
ATOM      7  C   UNL     1      -8.873   0.821 131.127  0.00  0.00    +0.000 A 
ENDROOT
BRANCH   4   8
ATOM      8  C   UNL     1      -9.034   4.886 129.246  0.00  0.00    +0.000 C 
ATOM      9  O   UNL     1      -8.585   4.991 128.104  0.00  0.00    +0.000 OA
ATOM     10  N   UNL     1      -9.731   5.931 129.912  0.00  0.00    +0.000 N 
ATOM     11  C   UNL     1      -9.290   6.518 131.211  0.00  0.00    +0.000 C 
ATOM     12  C   UNL     1     -10.199   6.264 132.424  0.00  0.00    +0.000 C 
ATOM     13  C   UNL     1     -11.624   6.753 132.245  0.00  0.00    +0.000 C 
ATOM     14  N   UNL     1     -12.290   6.169 131.106  0.00  0.00    +0.000 N 
ATOM     15  C   UNL     1     -12.020   6.798 129.893  0.00  0.00    +0.000 A 
ATOM     16  C   UNL     1     -13.077   7.529 129.332  0.00  0.00    +0.000 A 
ATOM     17  C   UNL     1     -12.884   8.293 128.194  0.00  0.00    +0.000 A 
ATOM     18  C   UNL     1     -11.635   8.272 127.575  0.00  0.00    +0.000 A 
ATOM     19  C   UNL     1     -10.583   7.465 128.076  0.00  0.00    +0.000 A 
ATOM     20  C   UNL     1     -10.761   6.711 129.248  0.00  0.00    +0.000 A 
ATOM     21  H   UNL     1     -12.678   5.234 131.101  0.00  0.00    +0.000 HD
ENDBRANCH   4   8
BRANCH   7  22
ATOM     22  C   UNL     1      -8.931  -0.538 131.875  0.00  0.00    +0.000 C 
BRANCH  22  23
ATOM     23  N   UNL     1      -7.750  -1.410 131.802  0.00  0.00    +0.000 N 
ATOM     24  C   UNL     1      -7.236  -2.161 132.823  0.00  0.00    +0.000 C 
ATOM     25  O   UNL     1      -7.668  -2.087 133.975  0.00  0.00    +0.000 OA
ATOM     26  N   UNL     1      -6.284  -3.092 132.398  0.00  0.00    +0.000 N 
ATOM     27  C   UNL     1      -5.356  -2.993 131.270  0.00  0.00    +0.000 C 
ATOM     28  C   UNL     1      -5.185  -4.432 130.821  0.00  0.00    +0.000 C 
ATOM     29  C   UNL     1      -5.163  -5.175 132.147  0.00  0.00    +0.000 C 
ATOM     30  C   UNL     1      -6.004  -4.336 133.142  0.00  0.00    +0.000 C 
ATOM     31  H   UNL     1      -7.674  -1.982 130.995  0.00  0.00    +0.000 HD
BRANCH  30  32
ATOM     32  C   UNL     1      -5.250  -4.215 134.512  0.00  0.00    +0.000 C 
ATOM     33  S   UNL     1      -3.784  -3.389 134.674  0.00  0.00    +0.000 S 
BRANCH  32  34
ATOM     34  N   UNL     1      -5.888  -4.824 135.610  0.00  0.00    +0.000 N 
ATOM     35  C   UNL     1      -7.020  -5.720 135.365  0.00  0.00    +0.000 C 
ATOM     36  C   UNL     1      -8.393  -5.164 135.749  0.00  0.00    +0.000 C 
ATOM     37  C   UNL     1      -8.555  -5.083 137.271  0.00  0.00    +0.000 C 
ATOM     38  N   UNL     1      -8.150  -3.800 137.863  0.00  0.00    +0.000 NA
ATOM     39  C   UNL     1      -9.248  -2.834 137.762  0.00  0.00    +0.000 C 
ATOM     40  C   UNL     1      -6.920  -3.229 137.276  0.00  0.00    +0.000 C 
ATOM     41  C   UNL     1      -5.808  -4.264 136.979  0.00  0.00    +0.000 C 
ENDBRANCH  32  34
ENDBRANCH  30  32
ENDBRANCH  22  23
ENDBRANCH   7  22
TORSDOF 5
ENDMDL
MODEL 4
REMARK VINA RESULT:      -9.9      1.424      1.911
REMARK  Name = CHEMBL602671
REMARK  7 active torsions:
REMARK  status: ('A' for Active; 'I' for Inactive)
REMARK    1  A    between atoms: C_1  and  C_2
REMARK    2  A    between atoms: C_4  and  C_5
REMARK    3  A    between atoms: C_20  and  C_21
REMARK    4  A    between atoms: C_21  and  N_22
REMARK    5  A    between atoms: C_29  and  C_30
REMARK    6  A    between atoms: C_30  and  N_32
REMARK    7  A    between atoms: N_36  and  C_37
REMARK                            x       y       z     vdW  Elec       q    Type
REMARK                         _______ _______ _______ _____ _____    ______ ____
ROOT
ATOM      1  C   UNL     1      -6.723  -3.439 132.446  0.00  0.00    +0.000 C 
ATOM      2  C   UNL     1      -7.136  -2.556 131.307  0.00  0.00    +0.000 A 
ATOM      3  C   UNL     1      -7.258  -3.186 130.019  0.00  0.00    +0.000 A 
ATOM      4  C   UNL     1      -7.665  -2.491 128.868  0.00  0.00    +0.000 A 
ATOM      5  C   UNL     1      -8.004  -1.165 129.090  0.00  0.00    +0.000 A 
ATOM      6  C   UNL     1      -7.834  -0.501 130.329  0.00  0.00    +0.000 A 
ATOM      7  C   UNL     1      -7.391  -1.175 131.482  0.00  0.00    +0.000 A 
ENDROOT
BRANCH   4   8
ATOM      8  C   UNL     1      -7.879  -3.193 127.511  0.00  0.00    +0.000 C 
ATOM      9  O   UNL     1      -8.597  -4.195 127.502  0.00  0.00    +0.000 OA
ATOM     10  N   UNL     1      -7.353  -2.597 126.333  0.00  0.00    +0.000 N 
ATOM     11  C   UNL     1      -5.893  -2.417 126.083  0.00  0.00    +0.000 C 
ATOM     12  C   UNL     1      -5.375  -0.970 126.048  0.00  0.00    +0.000 C 
ATOM     13  C   UNL     1      -6.054  -0.092 125.015  0.00  0.00    +0.000 C 
ATOM     14  N   UNL     1      -7.484  -0.009 125.185  0.00  0.00    +0.000 N 
ATOM     15  C   UNL     1      -8.195  -1.065 124.620  0.00  0.00    +0.000 A 
ATOM     16  C   UNL     1      -8.953  -0.753 123.481  0.00  0.00    +0.000 A 
ATOM     17  C   UNL     1      -9.600  -1.749 122.769  0.00  0.00    +0.000 A 
ATOM     18  C   UNL     1      -9.540  -3.060 123.239  0.00  0.00    +0.000 A 
ATOM     19  C   UNL     1      -8.856  -3.376 124.440  0.00  0.00    +0.000 A 
ATOM     20  C   UNL     1      -8.171  -2.377 125.152  0.00  0.00    +0.000 A 
ATOM     21  H   UNL     1      -7.933   0.573 125.881  0.00  0.00    +0.000 HD
ENDBRANCH   4   8
BRANCH   7  22
ATOM     22  C   UNL     1      -7.286  -0.349 132.792  0.00  0.00    +0.000 C 
BRANCH  22  23
ATOM     23  N   UNL     1      -6.326   0.765 132.825  0.00  0.00    +0.000 N 
ATOM     24  C   UNL     1      -6.595   2.072 132.521  0.00  0.00    +0.000 C 
ATOM     25  O   UNL     1      -7.683   2.431 132.068  0.00  0.00    +0.000 OA
ATOM     26  N   UNL     1      -5.572   2.947 132.898  0.00  0.00    +0.000 N 
ATOM     27  C   UNL     1      -4.135   2.686 132.973  0.00  0.00    +0.000 C 
ATOM     28  C   UNL     1      -3.665   3.588 134.100  0.00  0.00    +0.000 C 
ATOM     29  C   UNL     1      -4.505   4.835 133.874  0.00  0.00    +0.000 C 
ATOM     30  C   UNL     1      -5.818   4.372 133.195  0.00  0.00    +0.000 C 
ATOM     31  H   UNL     1      -5.719   0.800 133.607  0.00  0.00    +0.000 HD
BRANCH  30  32
ATOM     32  C   UNL     1      -6.163   5.320 131.994  0.00  0.00    +0.000 C 
ATOM     33  S   UNL     1      -5.237   5.373 130.581  0.00  0.00    +0.000 S 
BRANCH  32  34
ATOM     34  N   UNL     1      -7.315   6.113 132.161  0.00  0.00    +0.000 N 
ATOM     35  C   UNL     1      -8.187   5.865 133.311  0.00  0.00    +0.000 C 
ATOM     36  C   UNL     1      -9.525   5.197 132.989  0.00  0.00    +0.000 C 
ATOM     37  C   UNL     1     -10.466   6.160 132.257  0.00  0.00    +0.000 C 
ATOM     38  N   UNL     1     -10.376   6.109 130.791  0.00  0.00    +0.000 NA
ATOM     39  C   UNL     1     -11.204   5.015 130.276  0.00  0.00    +0.000 C 
ATOM     40  C   UNL     1      -8.996   5.981 130.279  0.00  0.00    +0.000 C 
ATOM     41  C   UNL     1      -7.947   6.834 131.032  0.00  0.00    +0.000 C 
ENDBRANCH  32  34
ENDBRANCH  30  32
ENDBRANCH  22  23
ENDBRANCH   7  22
TORSDOF 5
ENDMDL
MODEL 5
REMARK VINA RESULT:      -9.9      3.467      5.614
REMARK  Name = CHEMBL602671
REMARK  7 active torsions:
REMARK  status: ('A' for Active; 'I' for Inactive)
REMARK    1  A    between atoms: C_1  and  C_2
REMARK    2  A    between atoms: C_4  and  C_5
REMARK    3  A    between atoms: C_20  and  C_21
REMARK    4  A    between atoms: C_21  and  N_22
REMARK    5  A    between atoms: C_29  and  C_30
REMARK    6  A    between atoms: C_30  and  N_32
REMARK    7  A    between atoms: N_36  and  C_37
REMARK                            x       y       z     vdW  Elec       q    Type
REMARK                         _______ _______ _______ _____ _____    ______ ____
ROOT
ATOM      1  C   UNL     1      -2.256   3.358 127.269  0.00  0.00    +0.000 C 
ATOM      2  C   UNL     1      -3.597   3.801 126.767  0.00  0.00    +0.000 A 
ATOM      3  C   UNL     1      -4.320   2.860 125.953  0.00  0.00    +0.000 A 
ATOM      4  C   UNL     1      -5.599   3.124 125.438  0.00  0.00    +0.000 A 
ATOM      5  C   UNL     1      -6.135   4.340 125.836  0.00  0.00    +0.000 A 
ATOM      6  C   UNL     1      -5.426   5.313 126.582  0.00  0.00    +0.000 A 
ATOM      7  C   UNL     1      -4.128   5.077 127.072  0.00  0.00    +0.000 A 
ENDROOT
BRANCH   4   8
ATOM      8  C   UNL     1      -6.404   2.076 124.642  0.00  0.00    +0.000 C 
ATOM      9  O   UNL     1      -6.645   2.330 123.460  0.00  0.00    +0.000 OA
ATOM     10  N   UNL     1      -6.721   0.835 125.256  0.00  0.00    +0.000 N 
ATOM     11  C   UNL     1      -7.611   0.708 126.447  0.00  0.00    +0.000 C 
ATOM     12  C   UNL     1      -6.949   0.238 127.752  0.00  0.00    +0.000 C 
ATOM     13  C   UNL     1      -6.254  -1.106 127.646  0.00  0.00    +0.000 C 
ATOM     14  N   UNL     1      -5.228  -1.141 126.634  0.00  0.00    +0.000 N 
ATOM     15  C   UNL     1      -5.696  -1.386 125.345  0.00  0.00    +0.000 A 
ATOM     16  C   UNL     1      -5.379  -2.642 124.805  0.00  0.00    +0.000 A 
ATOM     17  C   UNL     1      -5.896  -3.038 123.584  0.00  0.00    +0.000 A 
ATOM     18  C   UNL     1      -6.686  -2.141 122.866  0.00  0.00    +0.000 A 
ATOM     19  C   UNL     1      -6.938  -0.834 123.354  0.00  0.00    +0.000 A 
ATOM     20  C   UNL     1      -6.443  -0.436 124.607  0.00  0.00    +0.000 A 
ATOM     21  H   UNL     1      -4.305  -0.745 126.756  0.00  0.00    +0.000 HD
ENDBRANCH   4   8
BRANCH   7  22
ATOM     22  C   UNL     1      -3.471   6.203 127.914  0.00  0.00    +0.000 C 
BRANCH  22  23
ATOM     23  N   UNL     1      -3.179   5.919 129.327  0.00  0.00    +0.000 N 
ATOM     24  C   UNL     1      -4.053   5.405 130.245  0.00  0.00    +0.000 C 
ATOM     25  O   UNL     1      -5.246   5.229 129.990  0.00  0.00    +0.000 OA
ATOM     26  N   UNL     1      -3.432   4.990 131.426  0.00  0.00    +0.000 N 
ATOM     27  C   UNL     1      -2.228   5.531 132.058  0.00  0.00    +0.000 C 
ATOM     28  C   UNL     1      -1.612   4.325 132.744  0.00  0.00    +0.000 C 
ATOM     29  C   UNL     1      -2.841   3.594 133.260  0.00  0.00    +0.000 C 
ATOM     30  C   UNL     1      -4.005   3.945 132.298  0.00  0.00    +0.000 C 
ATOM     31  H   UNL     1      -2.313   5.476 129.517  0.00  0.00    +0.000 HD
BRANCH  30  32
ATOM     32  C   UNL     1      -5.290   4.304 133.121  0.00  0.00    +0.000 C 
ATOM     33  S   UNL     1      -5.434   5.736 134.006  0.00  0.00    +0.000 S 
BRANCH  32  34
ATOM     34  N   UNL     1      -6.333   3.359 133.057  0.00  0.00    +0.000 N 
ATOM     35  C   UNL     1      -6.223   2.244 132.114  0.00  0.00    +0.000 C 
ATOM     36  C   UNL     1      -7.140   2.324 130.892  0.00  0.00    +0.000 C 
ATOM     37  C   UNL     1      -8.604   2.088 131.277  0.00  0.00    +0.000 C 
ATOM     38  N   UNL     1      -9.355   3.307 131.606  0.00  0.00    +0.000 NA
ATOM     39  C   UNL     1      -9.850   3.937 130.378  0.00  0.00    +0.000 C 
ATOM     40  C   UNL     1      -8.589   4.289 132.402  0.00  0.00    +0.000 C 
ATOM     41  C   UNL     1      -7.708   3.669 133.512  0.00  0.00    +0.000 C 
ENDBRANCH  32  34
ENDBRANCH  30  32
ENDBRANCH  22  23
ENDBRANCH   7  22
TORSDOF 5
ENDMDL
MODEL 6
REMARK VINA RESULT:      -9.8      3.172      6.559
REMARK  Name = CHEMBL602671
REMARK  7 active torsions:
REMARK  status: ('A' for Active; 'I' for Inactive)
REMARK    1  A    between atoms: C_1  and  C_2
REMARK    2  A    between atoms: C_4  and  C_5
REMARK    3  A    between atoms: C_20  and  C_21
REMARK    4  A    between atoms: C_21  and  N_22
REMARK    5  A    between atoms: C_29  and  C_30
REMARK    6  A    between atoms: C_30  and  N_32
REMARK    7  A    between atoms: N_36  and  C_37
REMARK                            x       y       z     vdW  Elec       q    Type
REMARK                         _______ _______ _______ _____ _____    ______ ____
ROOT
ATOM      1  C   UNL     1      -7.993  -2.409 127.933  0.00  0.00    +0.000 C 
ATOM      2  C   UNL     1      -7.444  -2.246 129.318  0.00  0.00    +0.000 A 
ATOM      3  C   UNL     1      -6.959  -3.439 129.961  0.00  0.00    +0.000 A 
ATOM      4  C   UNL     1      -6.391  -3.434 131.244  0.00  0.00    +0.000 A 
ATOM      5  C   UNL     1      -6.273  -2.174 131.813  0.00  0.00    +0.000 A 
ATOM      6  C   UNL     1      -6.796  -0.992 131.235  0.00  0.00    +0.000 A 
ATOM      7  C   UNL     1      -7.404  -0.988 129.966  0.00  0.00    +0.000 A 
ENDROOT
BRANCH   4   8
ATOM      8  C   UNL     1      -5.792  -4.701 131.890  0.00  0.00    +0.000 C 
ATOM      9  O   UNL     1      -5.355  -5.567 131.130  0.00  0.00    +0.000 OA
ATOM     10  N   UNL     1      -5.661  -4.762 133.304  0.00  0.00    +0.000 N 
ATOM     11  C   UNL     1      -6.823  -4.755 134.239  0.00  0.00    +0.000 C 
ATOM     12  C   UNL     1      -6.974  -3.517 135.138  0.00  0.00    +0.000 C 
ATOM     13  C   UNL     1      -5.770  -3.237 136.017  0.00  0.00    +0.000 C 
ATOM     14  N   UNL     1      -4.549  -3.053 135.272  0.00  0.00    +0.000 N 
ATOM     15  C   UNL     1      -3.902  -4.236 134.922  0.00  0.00    +0.000 A 
ATOM     16  C   UNL     1      -2.701  -4.502 135.597  0.00  0.00    +0.000 A 
ATOM     17  C   UNL     1      -2.040  -5.705 135.417  0.00  0.00    +0.000 A 
ATOM     18  C   UNL     1      -2.553  -6.623 134.503  0.00  0.00    +0.000 A 
ATOM     19  C   UNL     1      -3.714  -6.331 133.744  0.00  0.00    +0.000 A 
ATOM     20  C   UNL     1      -4.408  -5.126 133.943  0.00  0.00    +0.000 A 
ATOM     21  H   UNL     1      -4.311  -2.199 134.785  0.00  0.00    +0.000 HD
ENDBRANCH   4   8
BRANCH   7  22
ATOM     22  C   UNL     1      -7.900   0.378 129.420  0.00  0.00    +0.000 C 
BRANCH  22  23
ATOM     23  N   UNL     1      -7.990   1.501 130.365  0.00  0.00    +0.000 N 
ATOM     24  C   UNL     1      -8.550   2.723 130.115  0.00  0.00    +0.000 C 
ATOM     25  O   UNL     1      -8.948   3.048 128.995  0.00  0.00    +0.000 OA
ATOM     26  N   UNL     1      -8.737   3.491 131.268  0.00  0.00    +0.000 N 
ATOM     27  C   UNL     1      -7.942   3.493 132.497  0.00  0.00    +0.000 C 
ATOM     28  C   UNL     1      -8.953   3.831 133.577  0.00  0.00    +0.000 C 
ATOM     29  C   UNL     1      -9.826   4.862 132.879  0.00  0.00    +0.000 C 
ATOM     30  C   UNL     1      -9.772   4.539 131.364  0.00  0.00    +0.000 C 
ATOM     31  H   UNL     1      -8.261   1.276 131.291  0.00  0.00    +0.000 HD
BRANCH  30  32
ATOM     32  C   UNL     1      -9.554   5.858 130.543  0.00  0.00    +0.000 C 
ATOM     33  S   UNL     1      -8.222   6.870 130.782  0.00  0.00    +0.000 S 
BRANCH  32  34
ATOM     34  N   UNL     1     -10.536   6.135 129.571  0.00  0.00    +0.000 N 
ATOM     35  C   UNL     1     -10.148   6.855 128.357  0.00  0.00    +0.000 C 
ATOM     36  C   UNL     1     -10.631   8.305 128.271  0.00  0.00    +0.000 C 
ATOM     37  C   UNL     1     -12.145   8.375 128.044  0.00  0.00    +0.000 C 
ATOM     38  N   UNL     1     -12.947   8.445 129.274  0.00  0.00    +0.000 NA
ATOM     39  C   UNL     1     -13.021   9.833 129.743  0.00  0.00    +0.000 C 
ATOM     40  C   UNL     1     -12.458   7.571 130.360  0.00  0.00    +0.000 C 
ATOM     41  C   UNL     1     -11.980   6.174 129.897  0.00  0.00    +0.000 C 
ENDBRANCH  32  34
ENDBRANCH  30  32
ENDBRANCH  22  23
ENDBRANCH   7  22
TORSDOF 5
ENDMDL
MODEL 7
REMARK VINA RESULT:      -9.8      5.910     11.825
REMARK  Name = CHEMBL602671
REMARK  7 active torsions:
REMARK  status: ('A' for Active; 'I' for Inactive)
REMARK    1  A    between atoms: C_1  and  C_2
REMARK    2  A    between atoms: C_4  and  C_5
REMARK    3  A    between atoms: C_20  and  C_21
REMARK    4  A    between atoms: C_21  and  N_22
REMARK    5  A    between atoms: C_29  and  C_30
REMARK    6  A    between atoms: C_30  and  N_32
REMARK    7  A    between atoms: N_36  and  C_37
REMARK                            x       y       z     vdW  Elec       q    Type
REMARK                         _______ _______ _______ _____ _____    ______ ____
ROOT
ATOM      1  C   UNL     1      -1.973   4.463 132.745  0.00  0.00    +0.000 C 
ATOM      2  C   UNL     1      -2.149   5.950 132.676  0.00  0.00    +0.000 A 
ATOM      3  C   UNL     1      -1.367   6.732 133.596  0.00  0.00    +0.000 A 
ATOM      4  C   UNL     1      -1.406   8.136 133.626  0.00  0.00    +0.000 A 
ATOM      5  C   UNL     1      -2.209   8.706 132.649  0.00  0.00    +0.000 A 
ATOM      6  C   UNL     1      -3.037   7.965 131.772  0.00  0.00    +0.000 A 
ATOM      7  C   UNL     1      -3.038   6.558 131.757  0.00  0.00    +0.000 A 
ENDROOT
BRANCH   4   8
ATOM      8  C   UNL     1      -0.499   8.969 134.555  0.00  0.00    +0.000 C 
ATOM      9  O   UNL     1       0.384   8.367 135.169  0.00  0.00    +0.000 OA
ATOM     10  N   UNL     1      -0.637  10.384 134.570  0.00  0.00    +0.000 N 
ATOM     11  C   UNL     1      -1.869  11.086 135.034  0.00  0.00    +0.000 C 
ATOM     12  C   UNL     1      -2.668  11.851 133.967  0.00  0.00    +0.000 C 
ATOM     13  C   UNL     1      -1.870  12.914 133.237  0.00  0.00    +0.000 C 
ATOM     14  N   UNL     1      -0.698  12.396 132.575  0.00  0.00    +0.000 N 
ATOM     15  C   UNL     1       0.417  12.258 133.400  0.00  0.00    +0.000 A 
ATOM     16  C   UNL     1       1.466  13.159 133.169  0.00  0.00    +0.000 A 
ATOM     17  C   UNL     1       2.568  13.191 134.007  0.00  0.00    +0.000 A 
ATOM     18  C   UNL     1       2.648  12.266 135.047  0.00  0.00    +0.000 A 
ATOM     19  C   UNL     1       1.641  11.287 135.236  0.00  0.00    +0.000 A 
ATOM     20  C   UNL     1       0.504  11.268 134.409  0.00  0.00    +0.000 A 
ATOM     21  H   UNL     1      -0.723  11.901 131.693  0.00  0.00    +0.000 HD
ENDBRANCH   4   8
BRANCH   7  22
ATOM     22  C   UNL     1      -3.957   5.859 130.720  0.00  0.00    +0.000 C 
BRANCH  22  23
ATOM     23  N   UNL     1      -5.151   5.162 131.223  0.00  0.00    +0.000 N 
ATOM     24  C   UNL     1      -6.450   5.478 130.937  0.00  0.00    +0.000 C 
ATOM     25  O   UNL     1      -6.757   6.484 130.295  0.00  0.00    +0.000 OA
ATOM     26  N   UNL     1      -7.357   4.489 131.330  0.00  0.00    +0.000 N 
ATOM     27  C   UNL     1      -7.254   3.555 132.451  0.00  0.00    +0.000 C 
ATOM     28  C   UNL     1      -7.991   2.323 131.960  0.00  0.00    +0.000 C 
ATOM     29  C   UNL     1      -9.154   2.936 131.196  0.00  0.00    +0.000 C 
ATOM     30  C   UNL     1      -8.670   4.314 130.678  0.00  0.00    +0.000 C 
ATOM     31  H   UNL     1      -5.117   4.172 131.218  0.00  0.00    +0.000 HD
BRANCH  30  32
ATOM     32  C   UNL     1      -9.769   5.401 130.942  0.00  0.00    +0.000 C 
ATOM     33  S   UNL     1     -10.023   6.087 132.466  0.00  0.00    +0.000 S 
BRANCH  32  34
ATOM     34  N   UNL     1     -10.519   5.790 129.816  0.00  0.00    +0.000 N 
ATOM     35  C   UNL     1      -9.881   6.615 128.788  0.00  0.00    +0.000 C 
ATOM     36  C   UNL     1     -10.335   8.076 128.743  0.00  0.00    +0.000 C 
ATOM     37  C   UNL     1     -11.765   8.198 128.207  0.00  0.00    +0.000 C 
ATOM     38  N   UNL     1     -12.811   8.168 129.239  0.00  0.00    +0.000 NA
ATOM     39  C   UNL     1     -12.985   9.505 129.815  0.00  0.00    +0.000 C 
ATOM     40  C   UNL     1     -12.567   7.184 130.314  0.00  0.00    +0.000 C 
ATOM     41  C   UNL     1     -11.999   5.828 129.829  0.00  0.00    +0.000 C 
ENDBRANCH  32  34
ENDBRANCH  30  32
ENDBRANCH  22  23
ENDBRANCH   7  22
TORSDOF 5
ENDMDL
MODEL 8
REMARK VINA RESULT:      -9.8      2.460      4.871
REMARK  Name = CHEMBL602671
REMARK  7 active torsions:
REMARK  status: ('A' for Active; 'I' for Inactive)
REMARK    1  A    between atoms: C_1  and  C_2
REMARK    2  A    between atoms: C_4  and  C_5
REMARK    3  A    between atoms: C_20  and  C_21
REMARK    4  A    between atoms: C_21  and  N_22
REMARK    5  A    between atoms: C_29  and  C_30
REMARK    6  A    between atoms: C_30  and  N_32
REMARK    7  A    between atoms: N_36  and  C_37
REMARK                            x       y       z     vdW  Elec       q    Type
REMARK                         _______ _______ _______ _____ _____    ______ ____
ROOT
ATOM      1  C   UNL     1      -7.360  -2.967 132.774  0.00  0.00    +0.000 C 
ATOM      2  C   UNL     1      -7.494  -2.139 131.531  0.00  0.00    +0.000 A 
ATOM      3  C   UNL     1      -7.570  -2.858 130.287  0.00  0.00    +0.000 A 
ATOM      4  C   UNL     1      -7.726  -2.217 129.047  0.00  0.00    +0.000 A 
ATOM      5  C   UNL     1      -7.870  -0.840 129.129  0.00  0.00    +0.000 A 
ATOM      6  C   UNL     1      -7.736  -0.099 130.328  0.00  0.00    +0.000 A 
ATOM      7  C   UNL     1      -7.540  -0.725 131.573  0.00  0.00    +0.000 A 
ENDROOT
BRANCH   4   8
ATOM      8  C   UNL     1      -7.897  -2.998 127.727  0.00  0.00    +0.000 C 
ATOM      9  O   UNL     1      -8.598  -4.011 127.759  0.00  0.00    +0.000 OA
ATOM     10  N   UNL     1      -7.350  -2.462 126.530  0.00  0.00    +0.000 N 
ATOM     11  C   UNL     1      -5.888  -2.272 126.305  0.00  0.00    +0.000 C 
ATOM     12  C   UNL     1      -5.391  -0.822 126.200  0.00  0.00    +0.000 C 
ATOM     13  C   UNL     1      -6.057  -0.015 125.102  0.00  0.00    +0.000 C 
ATOM     14  N   UNL     1      -7.492   0.054 125.233  0.00  0.00    +0.000 N 
ATOM     15  C   UNL     1      -8.173  -1.044 124.712  0.00  0.00    +0.000 A 
ATOM     16  C   UNL     1      -8.907  -0.811 123.540  0.00  0.00    +0.000 A 
ATOM     17  C   UNL     1      -9.521  -1.856 122.870  0.00  0.00    +0.000 A 
ATOM     18  C   UNL     1      -9.453  -3.136 123.417  0.00  0.00    +0.000 A 
ATOM     19  C   UNL     1      -8.794  -3.372 124.650  0.00  0.00    +0.000 A 
ATOM     20  C   UNL     1      -8.142  -2.323 125.320  0.00  0.00    +0.000 A 
ATOM     21  H   UNL     1      -7.967   0.666 125.883  0.00  0.00    +0.000 HD
ENDBRANCH   4   8
BRANCH   7  22
ATOM     22  C   UNL     1      -7.452   0.191 132.823  0.00  0.00    +0.000 C 
BRANCH  22  23
ATOM     23  N   UNL     1      -7.604   1.640 132.622  0.00  0.00    +0.000 N 
ATOM     24  C   UNL     1      -6.593   2.560 132.580  0.00  0.00    +0.000 C 
ATOM     25  O   UNL     1      -5.423   2.262 132.829  0.00  0.00    +0.000 OA
ATOM     26  N   UNL     1      -7.003   3.810 132.108  0.00  0.00    +0.000 N 
ATOM     27  C   UNL     1      -8.315   4.444 132.237  0.00  0.00    +0.000 C 
ATOM     28  C   UNL     1      -8.430   5.286 130.980  0.00  0.00    +0.000 C 
ATOM     29  C   UNL     1      -7.012   5.811 130.822  0.00  0.00    +0.000 C 
ATOM     30  C   UNL     1      -6.073   4.757 131.461  0.00  0.00    +0.000 C 
ATOM     31  H   UNL     1      -8.240   1.922 131.916  0.00  0.00    +0.000 HD
BRANCH  30  32
ATOM     32  C   UNL     1      -5.007   5.467 132.365  0.00  0.00    +0.000 C 
ATOM     33  S   UNL     1      -5.252   5.749 134.013  0.00  0.00    +0.000 S 
BRANCH  32  34
ATOM     34  N   UNL     1      -3.813   5.838 131.715  0.00  0.00    +0.000 N 
ATOM     35  C   UNL     1      -2.706   4.881 131.664  0.00  0.00    +0.000 C 
ATOM     36  C   UNL     1      -1.514   5.208 132.565  0.00  0.00    +0.000 C 
ATOM     37  C   UNL     1      -0.730   6.414 132.037  0.00  0.00    +0.000 C 
ATOM     38  N   UNL     1      -1.168   7.711 132.572  0.00  0.00    +0.000 NA
ATOM     39  C   UNL     1      -0.535   7.955 133.872  0.00  0.00    +0.000 C 
ATOM     40  C   UNL     1      -2.634   7.848 132.692  0.00  0.00    +0.000 C 
ATOM     41  C   UNL     1      -3.435   7.255 131.508  0.00  0.00    +0.000 C 
ENDBRANCH  32  34
ENDBRANCH  30  32
ENDBRANCH  22  23
ENDBRANCH   7  22
TORSDOF 5
ENDMDL
MODEL 9
REMARK VINA RESULT:      -9.8      6.411     12.717
REMARK  Name = CHEMBL602671
REMARK  7 active torsions:
REMARK  status: ('A' for Active; 'I' for Inactive)
REMARK    1  A    between atoms: C_1  and  C_2
REMARK    2  A    between atoms: C_4  and  C_5
REMARK    3  A    between atoms: C_20  and  C_21
REMARK    4  A    between atoms: C_21  and  N_22
REMARK    5  A    between atoms: C_29  and  C_30
REMARK    6  A    between atoms: C_30  and  N_32
REMARK    7  A    between atoms: N_36  and  C_37
REMARK                            x       y       z     vdW  Elec       q    Type
REMARK                         _______ _______ _______ _____ _____    ______ ____
ROOT
ATOM      1  C   UNL     1      -4.513   5.557 133.793  0.00  0.00    +0.000 C 
ATOM      2  C   UNL     1      -3.817   6.743 133.197  0.00  0.00    +0.000 A 
ATOM      3  C   UNL     1      -2.925   7.467 134.064  0.00  0.00    +0.000 A 
ATOM      4  C   UNL     1      -2.184   8.579 133.635  0.00  0.00    +0.000 A 
ATOM      5  C   UNL     1      -2.331   8.880 132.289  0.00  0.00    +0.000 A 
ATOM      6  C   UNL     1      -3.246   8.228 131.427  0.00  0.00    +0.000 A 
ATOM      7  C   UNL     1      -4.025   7.137 131.853  0.00  0.00    +0.000 A 
ENDROOT
BRANCH   4   8
ATOM      8  C   UNL     1      -1.164   9.295 134.544  0.00  0.00    +0.000 C 
ATOM      9  O   UNL     1      -0.411   8.584 135.214  0.00  0.00    +0.000 OA
ATOM     10  N   UNL     1      -1.053  10.710 134.481  0.00  0.00    +0.000 N 
ATOM     11  C   UNL     1      -2.152  11.640 134.872  0.00  0.00    +0.000 C 
ATOM     12  C   UNL     1      -2.785  12.470 133.743  0.00  0.00    +0.000 C 
ATOM     13  C   UNL     1      -1.800  13.336 132.982  0.00  0.00    +0.000 C 
ATOM     14  N   UNL     1      -0.723  12.586 132.383  0.00  0.00    +0.000 N 
ATOM     15  C   UNL     1       0.334  12.304 133.245  0.00  0.00    +0.000 A 
ATOM     16  C   UNL     1       1.529  12.996 132.998  0.00  0.00    +0.000 A 
ATOM     17  C   UNL     1       2.603  12.884 133.865  0.00  0.00    +0.000 A 
ATOM     18  C   UNL     1       2.501  12.019 134.953  0.00  0.00    +0.000 A 
ATOM     19  C   UNL     1       1.334  11.242 135.164  0.00  0.00    +0.000 A 
ATOM     20  C   UNL     1       0.228  11.373 134.307  0.00  0.00    +0.000 A 
ATOM     21  H   UNL     1      -0.817  12.054 131.527  0.00  0.00    +0.000 HD
ENDBRANCH   4   8
BRANCH   7  22
ATOM     22  C   UNL     1      -4.960   6.478 130.804  0.00  0.00    +0.000 C 
BRANCH  22  23
ATOM     23  N   UNL     1      -4.383   5.452 129.921  0.00  0.00    +0.000 N 
ATOM     24  C   UNL     1      -5.009   4.855 128.862  0.00  0.00    +0.000 C 
ATOM     25  O   UNL     1      -6.199   5.047 128.607  0.00  0.00    +0.000 OA
ATOM     26  N   UNL     1      -4.138   4.126 128.047  0.00  0.00    +0.000 N 
ATOM     27  C   UNL     1      -2.911   3.425 128.426  0.00  0.00    +0.000 C 
ATOM     28  C   UNL     1      -2.042   3.527 127.186  0.00  0.00    +0.000 C 
ATOM     29  C   UNL     1      -3.062   3.349 126.072  0.00  0.00    +0.000 C 
ATOM     30  C   UNL     1      -4.415   3.872 126.619  0.00  0.00    +0.000 C 
ATOM     31  H   UNL     1      -3.451   5.605 129.621  0.00  0.00    +0.000 HD
BRANCH  30  32
ATOM     32  C   UNL     1      -5.562   2.862 126.266  0.00  0.00    +0.000 C 
ATOM     33  S   UNL     1      -5.708   1.353 127.013  0.00  0.00    +0.000 S 
BRANCH  32  34
ATOM     34  N   UNL     1      -6.481   3.306 125.296  0.00  0.00    +0.000 N 
ATOM     35  C   UNL     1      -7.433   2.347 124.730  0.00  0.00    +0.000 C 
ATOM     36  C   UNL     1      -7.157   1.923 123.286  0.00  0.00    +0.000 C 
ATOM     37  C   UNL     1      -7.448   3.063 122.305  0.00  0.00    +0.000 C 
ATOM     38  N   UNL     1      -6.295   3.924 122.006  0.00  0.00    +0.000 NA
ATOM     39  C   UNL     1      -5.477   3.316 120.951  0.00  0.00    +0.000 C 
ATOM     40  C   UNL     1      -5.454   4.232 123.181  0.00  0.00    +0.000 C 
ATOM     41  C   UNL     1      -6.244   4.519 124.480  0.00  0.00    +0.000 C 
ENDBRANCH  32  34
ENDBRANCH  30  32
ENDBRANCH  22  23
ENDBRANCH   7  22
TORSDOF 5
ENDMDL
