MODEL 1
REMARK VINA RESULT:      -9.5      0.000      0.000
REMARK  Name = CHEMBL4204008
REMARK  4 active torsions:
REMARK  status: ('A' for Active; 'I' for Inactive)
REMARK    1  A    between atoms: C_1  and  C_2
REMARK    2  A    between atoms: N_5  and  C_6
REMARK    3  A    between atoms: C_9  and  C_10
REMARK    4  A    between atoms: C_16  and  O_17
REMARK                            x       y       z     vdW  Elec       q    Type
REMARK                         _______ _______ _______ _____ _____    ______ ____
ROOT
ATOM      1  C   UNL     1      -7.004   0.685 126.076  0.00  0.00    +0.000 C 
ATOM      2  O   UNL     1      -6.990   1.289 127.171  0.00  0.00    +0.000 OA
ATOM      3  N   UNL     1      -6.883  -0.749 125.996  0.00  0.00    +0.000 N 
ATOM      4  C   UNL     1      -5.683  -1.391 125.349  0.00  0.00    +0.000 C 
ATOM      5  C   UNL     1      -5.928  -2.399 124.205  0.00  0.00    +0.000 C 
ATOM      6  C   UNL     1      -7.135  -3.334 124.334  0.00  0.00    +0.000 C 
ATOM      7  C   UNL     1      -8.467  -2.860 124.950  0.00  0.00    +0.000 C 
ATOM      8  C   UNL     1      -8.288  -2.727 126.422  0.00  0.00    +0.000 A 
ATOM      9  C   UNL     1      -8.956  -3.691 127.194  0.00  0.00    +0.000 A 
ATOM     10  C   UNL     1      -8.838  -3.673 128.562  0.00  0.00    +0.000 A 
ATOM     11  C   UNL     1      -8.068  -2.666 129.146  0.00  0.00    +0.000 A 
ATOM     12  C   UNL     1      -7.425  -1.654 128.368  0.00  0.00    +0.000 A 
ATOM     13  C   UNL     1      -7.517  -1.671 126.971  0.00  0.00    +0.000 A 
ENDROOT
BRANCH   1  17
ATOM     14  C   UNL     1      -7.894   2.932 122.285  0.00  0.00    +0.000 A 
ATOM     15  C   UNL     1      -8.732   1.909 122.702  0.00  0.00    +0.000 A 
ATOM     16  C   UNL     1      -8.440   1.198 123.924  0.00  0.00    +0.000 A 
ATOM     17  C   UNL     1      -7.348   1.549 124.790  0.00  0.00    +0.000 A 
ATOM     18  C   UNL     1      -6.601   2.626 124.291  0.00  0.00    +0.000 A 
ATOM     19 CL   UNL     1      -5.235   3.422 124.847  0.00  0.00    +0.000 Cl
ATOM     20  C   UNL     1      -6.852   3.275 123.085  0.00  0.00    +0.000 A 
BRANCH  14  25
ATOM     21  C   UNL     1      -6.429   5.160 118.291  0.00  0.00    +0.000 C 
ATOM     22  C   UNL     1      -7.352   4.562 119.279  0.00  0.00    +0.000 A 
ATOM     23  C   UNL     1      -8.750   4.419 119.159  0.00  0.00    +0.000 A 
ATOM     24  C   UNL     1      -9.120   3.758 120.299  0.00  0.00    +0.000 A 
ATOM     25  N   UNL     1      -7.991   3.673 121.094  0.00  0.00    +0.000 N 
ATOM     26  N   UNL     1      -6.892   4.118 120.456  0.00  0.00    +0.000 NA
ENDBRANCH  14  25
ENDBRANCH   1  17
BRANCH   7  27
ATOM     27  O   UNL     1      -9.080  -1.662 124.544  0.00  0.00    +0.000 OA
ATOM     28  H   UNL     1      -8.564  -0.960 124.981  0.00  0.00    +0.000 HD
ENDBRANCH   7  27
TORSDOF 3
ENDMDL
MODEL 2
REMARK VINA RESULT:      -8.7      6.137     10.147
REMARK  Name = CHEMBL4204008
REMARK  4 active torsions:
REMARK  status: ('A' for Active; 'I' for Inactive)
REMARK    1  A    between atoms: C_1  and  C_2
REMARK    2  A    between atoms: N_5  and  C_6
REMARK    3  A    between atoms: C_9  and  C_10
REMARK    4  A    between atoms: C_16  and  O_17
REMARK                            x       y       z     vdW  Elec       q    Type
REMARK                         _______ _______ _______ _____ _____    ______ ____
ROOT
ATOM      1  C   UNL     1      -8.697   4.565 128.850  0.00  0.00    +0.000 C 
ATOM      2  O   UNL     1      -8.413   4.769 127.649  0.00  0.00    +0.000 OA
ATOM      3  N   UNL     1      -9.252   5.598 129.687  0.00  0.00    +0.000 N 
ATOM      4  C   UNL     1      -8.480   6.143 130.861  0.00  0.00    +0.000 C 
ATOM      5  C   UNL     1      -9.155   6.113 132.250  0.00  0.00    +0.000 C 
ATOM      6  C   UNL     1     -10.659   6.403 132.311  0.00  0.00    +0.000 C 
ATOM      7  C   UNL     1     -11.625   5.911 131.215  0.00  0.00    +0.000 C 
ATOM      8  C   UNL     1     -11.415   6.736 129.993  0.00  0.00    +0.000 A 
ATOM      9  C   UNL     1     -12.459   7.625 129.686  0.00  0.00    +0.000 A 
ATOM     10  C   UNL     1     -12.356   8.448 128.593  0.00  0.00    +0.000 A 
ATOM     11  C   UNL     1     -11.212   8.354 127.799  0.00  0.00    +0.000 A 
ATOM     12  C   UNL     1     -10.168   7.418 128.079  0.00  0.00    +0.000 A 
ATOM     13  C   UNL     1     -10.248   6.586 129.202  0.00  0.00    +0.000 A 
ENDROOT
BRANCH   1  17
ATOM     14  C   UNL     1      -8.193   0.391 130.443  0.00  0.00    +0.000 A 
ATOM     15  C   UNL     1      -8.732   1.383 131.247  0.00  0.00    +0.000 A 
ATOM     16  C   UNL     1      -8.895   2.720 130.723  0.00  0.00    +0.000 A 
ATOM     17  C   UNL     1      -8.593   3.067 129.361  0.00  0.00    +0.000 A 
ATOM     18  C   UNL     1      -8.102   1.973 128.633  0.00  0.00    +0.000 A 
ATOM     19 CL   UNL     1      -7.571   1.802 127.052  0.00  0.00    +0.000 Cl
ATOM     20  C   UNL     1      -7.895   0.700 129.154  0.00  0.00    +0.000 A 
BRANCH  14  25
ATOM     21  C   UNL     1      -6.398  -4.048 130.073  0.00  0.00    +0.000 C 
ATOM     22  C   UNL     1      -7.017  -2.857 130.692  0.00  0.00    +0.000 A 
ATOM     23  C   UNL     1      -7.355  -2.681 132.049  0.00  0.00    +0.000 A 
ATOM     24  C   UNL     1      -7.834  -1.400 132.114  0.00  0.00    +0.000 A 
ATOM     25  N   UNL     1      -7.902  -0.933 130.813  0.00  0.00    +0.000 N 
ATOM     26  N   UNL     1      -7.357  -1.801 129.939  0.00  0.00    +0.000 NA
ENDBRANCH  14  25
ENDBRANCH   1  17
BRANCH   7  27
ATOM     27  O   UNL     1     -11.611   4.579 130.765  0.00  0.00    +0.000 OA
ATOM     28  H   UNL     1     -11.180   4.081 131.482  0.00  0.00    +0.000 HD
ENDBRANCH   7  27
TORSDOF 3
ENDMDL
MODEL 3
REMARK VINA RESULT:      -8.4      6.045      7.893
REMARK  Name = CHEMBL4204008
REMARK  4 active torsions:
REMARK  status: ('A' for Active; 'I' for Inactive)
REMARK    1  A    between atoms: C_1  and  C_2
REMARK    2  A    between atoms: N_5  and  C_6
REMARK    3  A    between atoms: C_9  and  C_10
REMARK    4  A    between atoms: C_16  and  O_17
REMARK                            x       y       z     vdW  Elec       q    Type
REMARK                         _______ _______ _______ _____ _____    ______ ____
ROOT
ATOM      1  C   UNL     1      -4.536   3.736 129.326  0.00  0.00    +0.000 C 
ATOM      2  O   UNL     1      -4.238   2.581 129.702  0.00  0.00    +0.000 OA
ATOM      3  N   UNL     1      -4.335   4.887 130.169  0.00  0.00    +0.000 N 
ATOM      4  C   UNL     1      -5.506   5.687 130.680  0.00  0.00    +0.000 C 
ATOM      5  C   UNL     1      -5.525   7.205 130.398  0.00  0.00    +0.000 C 
ATOM      6  C   UNL     1      -4.189   7.953 130.465  0.00  0.00    +0.000 C 
ATOM      7  C   UNL     1      -2.876   7.314 129.970  0.00  0.00    +0.000 C 
ATOM      8  C   UNL     1      -2.456   6.275 130.949  0.00  0.00    +0.000 A 
ATOM      9  C   UNL     1      -1.321   6.596 131.711  0.00  0.00    +0.000 A 
ATOM     10  C   UNL     1      -0.862   5.716 132.660  0.00  0.00    +0.000 A 
ATOM     11  C   UNL     1      -1.536   4.504 132.818  0.00  0.00    +0.000 A 
ATOM     12  C   UNL     1      -2.663   4.151 132.013  0.00  0.00    +0.000 A 
ATOM     13  C   UNL     1      -3.156   5.046 131.056  0.00  0.00    +0.000 A 
ENDROOT
BRANCH   1  17
ATOM     14  C   UNL     1      -5.870   3.958 125.038  0.00  0.00    +0.000 A 
ATOM     15  C   UNL     1      -6.794   4.090 126.063  0.00  0.00    +0.000 A 
ATOM     16  C   UNL     1      -6.354   4.023 127.437  0.00  0.00    +0.000 A 
ATOM     17  C   UNL     1      -4.971   3.900 127.809  0.00  0.00    +0.000 A 
ATOM     18  C   UNL     1      -4.127   3.824 126.691  0.00  0.00    +0.000 A 
ATOM     19 CL   UNL     1      -2.468   3.645 126.524  0.00  0.00    +0.000 Cl
ATOM     20  C   UNL     1      -4.558   3.834 125.368  0.00  0.00    +0.000 A 
BRANCH  14  25
ATOM     21  C   UNL     1      -5.186   4.742 120.349  0.00  0.00    +0.000 C 
ATOM     22  C   UNL     1      -5.777   4.182 121.584  0.00  0.00    +0.000 A 
ATOM     23  C   UNL     1      -6.787   3.203 121.675  0.00  0.00    +0.000 A 
ATOM     24  C   UNL     1      -6.930   2.991 123.020  0.00  0.00    +0.000 A 
ATOM     25  N   UNL     1      -6.136   3.927 123.658  0.00  0.00    +0.000 N 
ATOM     26  N   UNL     1      -5.387   4.630 122.786  0.00  0.00    +0.000 NA
ENDBRANCH  14  25
ENDBRANCH   1  17
BRANCH   7  27
ATOM     27  O   UNL     1      -2.789   6.691 128.712  0.00  0.00    +0.000 OA
ATOM     28  H   UNL     1      -1.964   7.033 128.324  0.00  0.00    +0.000 HD
ENDBRANCH   7  27
TORSDOF 3
ENDMDL
MODEL 4
REMARK VINA RESULT:      -8.1      4.361      6.809
REMARK  Name = CHEMBL4204008
REMARK  4 active torsions:
REMARK  status: ('A' for Active; 'I' for Inactive)
REMARK    1  A    between atoms: C_1  and  C_2
REMARK    2  A    between atoms: N_5  and  C_6
REMARK    3  A    between atoms: C_9  and  C_10
REMARK    4  A    between atoms: C_16  and  O_17
REMARK                            x       y       z     vdW  Elec       q    Type
REMARK                         _______ _______ _______ _____ _____    ______ ____
ROOT
ATOM      1  C   UNL     1      -6.646   1.108 126.226  0.00  0.00    +0.000 C 
ATOM      2  O   UNL     1      -5.849   0.234 126.632  0.00  0.00    +0.000 OA
ATOM      3  N   UNL     1      -7.142   1.116 124.873  0.00  0.00    +0.000 N 
ATOM      4  C   UNL     1      -6.789   2.233 123.925  0.00  0.00    +0.000 C 
ATOM      5  C   UNL     1      -7.944   2.996 123.239  0.00  0.00    +0.000 C 
ATOM      6  C   UNL     1      -9.169   2.182 122.807  0.00  0.00    +0.000 C 
ATOM      7  C   UNL     1      -9.704   1.009 123.653  0.00  0.00    +0.000 C 
ATOM      8  C   UNL     1      -8.769  -0.140 123.515  0.00  0.00    +0.000 A 
ATOM      9  C   UNL     1      -9.262  -1.225 122.773  0.00  0.00    +0.000 A 
ATOM     10  C   UNL     1      -8.471  -2.328 122.566  0.00  0.00    +0.000 A 
ATOM     11  C   UNL     1      -7.195  -2.342 123.130  0.00  0.00    +0.000 A 
ATOM     12  C   UNL     1      -6.705  -1.261 123.927  0.00  0.00    +0.000 A 
ATOM     13  C   UNL     1      -7.491  -0.120 124.130  0.00  0.00    +0.000 A 
ENDROOT
BRANCH   1  17
ATOM     14  C   UNL     1      -8.535   3.915 129.186  0.00  0.00    +0.000 A 
ATOM     15  C   UNL     1      -8.861   2.568 129.198  0.00  0.00    +0.000 A 
ATOM     16  C   UNL     1      -8.244   1.674 128.246  0.00  0.00    +0.000 A 
ATOM     17  C   UNL     1      -7.233   2.099 127.317  0.00  0.00    +0.000 A 
ATOM     18  C   UNL     1      -6.952   3.469 127.431  0.00  0.00    +0.000 A 
ATOM     19 CL   UNL     1      -5.912   4.492 126.605  0.00  0.00    +0.000 Cl
ATOM     20  C   UNL     1      -7.587   4.339 128.311  0.00  0.00    +0.000 A 
BRANCH  14  25
ATOM     21  C   UNL     1     -11.937   6.483 131.400  0.00  0.00    +0.000 C 
ATOM     22  C   UNL     1     -10.588   5.992 131.048  0.00  0.00    +0.000 A 
ATOM     23  C   UNL     1      -9.366   6.355 131.651  0.00  0.00    +0.000 A 
ATOM     24  C   UNL     1      -8.433   5.583 131.013  0.00  0.00    +0.000 A 
ATOM     25  N   UNL     1      -9.091   4.927 129.989  0.00  0.00    +0.000 N 
ATOM     26  N   UNL     1     -10.422   5.132 130.033  0.00  0.00    +0.000 NA
ENDBRANCH  14  25
ENDBRANCH   1  17
BRANCH   7  27
ATOM     27  O   UNL     1      -9.924   1.140 125.036  0.00  0.00    +0.000 OA
ATOM     28  H   UNL     1      -9.378   0.442 125.440  0.00  0.00    +0.000 HD
ENDBRANCH   7  27
TORSDOF 3
ENDMDL
MODEL 5
REMARK VINA RESULT:      -8.1      4.237      6.510
REMARK  Name = CHEMBL4204008
REMARK  4 active torsions:
REMARK  status: ('A' for Active; 'I' for Inactive)
REMARK    1  A    between atoms: C_1  and  C_2
REMARK    2  A    between atoms: N_5  and  C_6
REMARK    3  A    between atoms: C_9  and  C_10
REMARK    4  A    between atoms: C_16  and  O_17
REMARK                            x       y       z     vdW  Elec       q    Type
REMARK                         _______ _______ _______ _____ _____    ______ ____
ROOT
ATOM      1  C   UNL     1      -6.962   1.532 125.317  0.00  0.00    +0.000 C 
ATOM      2  O   UNL     1      -6.933   2.065 124.185  0.00  0.00    +0.000 OA
ATOM      3  N   UNL     1      -7.139   0.112 125.485  0.00  0.00    +0.000 N 
ATOM      4  C   UNL     1      -8.374  -0.441 126.148  0.00  0.00    +0.000 C 
ATOM      5  C   UNL     1      -8.189  -1.382 127.359  0.00  0.00    +0.000 C 
ATOM      6  C   UNL     1      -7.017  -2.369 127.313  0.00  0.00    +0.000 C 
ATOM      7  C   UNL     1      -5.657  -1.986 126.694  0.00  0.00    +0.000 C 
ATOM      8  C   UNL     1      -5.806  -1.941 125.214  0.00  0.00    +0.000 A 
ATOM      9  C   UNL     1      -5.163  -2.978 124.518  0.00  0.00    +0.000 A 
ATOM     10  C   UNL     1      -5.256  -3.042 123.150  0.00  0.00    +0.000 A 
ATOM     11  C   UNL     1      -5.977  -2.047 122.488  0.00  0.00    +0.000 A 
ATOM     12  C   UNL     1      -6.593  -0.963 123.187  0.00  0.00    +0.000 A 
ATOM     13  C   UNL     1      -6.525  -0.894 124.583  0.00  0.00    +0.000 A 
ENDROOT
BRANCH   1  17
ATOM     14  C   UNL     1      -6.029   4.378 128.670  0.00  0.00    +0.000 A 
ATOM     15  C   UNL     1      -7.344   4.059 128.372  0.00  0.00    +0.000 A 
ATOM     16  C   UNL     1      -7.633   3.140 127.297  0.00  0.00    +0.000 A 
ATOM     17  C   UNL     1      -6.606   2.463 126.551  0.00  0.00    +0.000 A 
ATOM     18  C   UNL     1      -5.319   2.828 126.973  0.00  0.00    +0.000 A 
ATOM     19 CL   UNL     1      -3.784   2.392 126.457  0.00  0.00    +0.000 Cl
ATOM     20  C   UNL     1      -5.043   3.755 127.973  0.00  0.00    +0.000 A 
BRANCH  14  25
ATOM     21  C   UNL     1      -3.820   8.269 130.417  0.00  0.00    +0.000 C 
ATOM     22  C   UNL     1      -4.693   7.076 130.382  0.00  0.00    +0.000 A 
ATOM     23  C   UNL     1      -5.542   6.612 131.407  0.00  0.00    +0.000 A 
ATOM     24  C   UNL     1      -6.169   5.526 130.860  0.00  0.00    +0.000 A 
ATOM     25  N   UNL     1      -5.578   5.302 129.629  0.00  0.00    +0.000 N 
ATOM     26  N   UNL     1      -4.706   6.276 129.306  0.00  0.00    +0.000 NA
ENDBRANCH  14  25
ENDBRANCH   1  17
BRANCH   7  27
ATOM     27  O   UNL     1      -5.005  -0.788 127.035  0.00  0.00    +0.000 OA
ATOM     28  H   UNL     1      -5.141  -0.697 127.995  0.00  0.00    +0.000 HD
ENDBRANCH   7  27
TORSDOF 3
ENDMDL
MODEL 6
REMARK VINA RESULT:      -8.0      4.153      6.212
REMARK  Name = CHEMBL4204008
REMARK  4 active torsions:
REMARK  status: ('A' for Active; 'I' for Inactive)
REMARK    1  A    between atoms: C_1  and  C_2
REMARK    2  A    between atoms: N_5  and  C_6
REMARK    3  A    between atoms: C_9  and  C_10
REMARK    4  A    between atoms: C_16  and  O_17
REMARK                            x       y       z     vdW  Elec       q    Type
REMARK                         _______ _______ _______ _____ _____    ______ ____
ROOT
ATOM      1  C   UNL     1      -7.554   1.747 125.390  0.00  0.00    +0.000 C 
ATOM      2  O   UNL     1      -8.139   2.036 124.323  0.00  0.00    +0.000 OA
ATOM      3  N   UNL     1      -7.595   0.418 125.946  0.00  0.00    +0.000 N 
ATOM      4  C   UNL     1      -8.280   0.149 127.261  0.00  0.00    +0.000 C 
ATOM      5  C   UNL     1      -7.466  -0.544 128.375  0.00  0.00    +0.000 C 
ATOM      6  C   UNL     1      -6.484  -1.643 127.953  0.00  0.00    +0.000 C 
ATOM      7  C   UNL     1      -5.667  -1.544 126.649  0.00  0.00    +0.000 C 
ATOM      8  C   UNL     1      -6.581  -1.781 125.498  0.00  0.00    +0.000 A 
ATOM      9  C   UNL     1      -6.392  -3.001 124.827  0.00  0.00    +0.000 A 
ATOM     10  C   UNL     1      -7.198  -3.328 123.765  0.00  0.00    +0.000 A 
ATOM     11  C   UNL     1      -8.174  -2.413 123.368  0.00  0.00    +0.000 A 
ATOM     12  C   UNL     1      -8.339  -1.150 124.016  0.00  0.00    +0.000 A 
ATOM     13  C   UNL     1      -7.540  -0.810 125.114  0.00  0.00    +0.000 A 
ENDROOT
BRANCH   1  17
ATOM     14  C   UNL     1      -4.716   4.716 127.220  0.00  0.00    +0.000 A 
ATOM     15  C   UNL     1      -4.404   4.105 126.016  0.00  0.00    +0.000 A 
ATOM     16  C   UNL     1      -5.326   3.157 125.434  0.00  0.00    +0.000 A 
ATOM     17  C   UNL     1      -6.610   2.863 126.009  0.00  0.00    +0.000 A 
ATOM     18  C   UNL     1      -6.834   3.575 127.196  0.00  0.00    +0.000 A 
ATOM     19 CL   UNL     1      -8.108   3.605 128.285  0.00  0.00    +0.000 Cl
ATOM     20  C   UNL     1      -5.922   4.446 127.784  0.00  0.00    +0.000 A 
BRANCH  14  25
ATOM     21  C   UNL     1      -3.534   7.892 130.623  0.00  0.00    +0.000 C 
ATOM     22  C   UNL     1      -3.362   6.920 129.523  0.00  0.00    +0.000 A 
ATOM     23  C   UNL     1      -2.147   6.450 128.985  0.00  0.00    +0.000 A 
ATOM     24  C   UNL     1      -2.528   5.532 128.044  0.00  0.00    +0.000 A 
ATOM     25  N   UNL     1      -3.907   5.601 127.955  0.00  0.00    +0.000 N 
ATOM     26  N   UNL     1      -4.431   6.413 128.892  0.00  0.00    +0.000 NA
ENDBRANCH  14  25
ENDBRANCH   1  17
BRANCH   7  27
ATOM     27  O   UNL     1      -4.950  -0.381 126.315  0.00  0.00    +0.000 OA
ATOM     28  H   UNL     1      -4.076  -0.702 126.033  0.00  0.00    +0.000 HD
ENDBRANCH   7  27
TORSDOF 3
ENDMDL
MODEL 7
REMARK VINA RESULT:      -8.0      6.686      7.944
REMARK  Name = CHEMBL4204008
REMARK  4 active torsions:
REMARK  status: ('A' for Active; 'I' for Inactive)
REMARK    1  A    between atoms: C_1  and  C_2
REMARK    2  A    between atoms: N_5  and  C_6
REMARK    3  A    between atoms: C_9  and  C_10
REMARK    4  A    between atoms: C_16  and  O_17
REMARK                            x       y       z     vdW  Elec       q    Type
REMARK                         _______ _______ _______ _____ _____    ______ ____
ROOT
ATOM      1  C   UNL     1      -6.984   0.193 132.726  0.00  0.00    +0.000 C 
ATOM      2  O   UNL     1      -7.117  -0.333 133.854  0.00  0.00    +0.000 OA
ATOM      3  N   UNL     1      -6.148  -0.391 131.708  0.00  0.00    +0.000 N 
ATOM      4  C   UNL     1      -4.908   0.314 131.225  0.00  0.00    +0.000 C 
ATOM      5  C   UNL     1      -4.767   0.579 129.710  0.00  0.00    +0.000 C 
ATOM      6  C   UNL     1      -5.273  -0.507 128.753  0.00  0.00    +0.000 C 
ATOM      7  C   UNL     1      -6.542  -1.329 129.057  0.00  0.00    +0.000 C 
ATOM      8  C   UNL     1      -6.231  -2.295 130.146  0.00  0.00    +0.000 A 
ATOM      9  C   UNL     1      -6.170  -3.641 129.751  0.00  0.00    +0.000 A 
ATOM     10  C   UNL     1      -5.868  -4.611 130.675  0.00  0.00    +0.000 A 
ATOM     11  C   UNL     1      -5.654  -4.221 131.998  0.00  0.00    +0.000 A 
ATOM     12  C   UNL     1      -5.763  -2.859 132.415  0.00  0.00    +0.000 A 
ATOM     13  C   UNL     1      -6.049  -1.855 131.482  0.00  0.00    +0.000 A 
ENDROOT
BRANCH   1  17
ATOM     14  C   UNL     1      -9.637   3.629 131.557  0.00  0.00    +0.000 A 
ATOM     15  C   UNL     1     -10.149   2.342 131.616  0.00  0.00    +0.000 A 
ATOM     16  C   UNL     1      -9.289   1.246 131.998  0.00  0.00    +0.000 A 
ATOM     17  C   UNL     1      -7.923   1.431 132.403  0.00  0.00    +0.000 A 
ATOM     18  C   UNL     1      -7.532   2.777 132.349  0.00  0.00    +0.000 A 
ATOM     19 CL   UNL     1      -6.083   3.557 132.670  0.00  0.00    +0.000 Cl
ATOM     20  C   UNL     1      -8.346   3.824 131.928  0.00  0.00    +0.000 A 
BRANCH  14  25
ATOM     21  C   UNL     1     -12.678   6.345 129.019  0.00  0.00    +0.000 C 
ATOM     22  C   UNL     1     -11.731   5.964 130.088  0.00  0.00    +0.000 A 
ATOM     23  C   UNL     1     -11.357   6.734 131.208  0.00  0.00    +0.000 A 
ATOM     24  C   UNL     1     -10.517   5.916 131.914  0.00  0.00    +0.000 A 
ATOM     25  N   UNL     1     -10.311   4.789 131.138  0.00  0.00    +0.000 N 
ATOM     26  N   UNL     1     -11.090   4.787 130.039  0.00  0.00    +0.000 NA
ENDBRANCH  14  25
ENDBRANCH   1  17
BRANCH   7  27
ATOM     27  O   UNL     1      -7.744  -0.711 129.445  0.00  0.00    +0.000 OA
ATOM     28  H   UNL     1      -7.723  -0.721 130.419  0.00  0.00    +0.000 HD
ENDBRANCH   7  27
TORSDOF 3
ENDMDL
MODEL 8
REMARK VINA RESULT:      -7.9      4.393      7.261
REMARK  Name = CHEMBL4204008
REMARK  4 active torsions:
REMARK  status: ('A' for Active; 'I' for Inactive)
REMARK    1  A    between atoms: C_1  and  C_2
REMARK    2  A    between atoms: N_5  and  C_6
REMARK    3  A    between atoms: C_9  and  C_10
REMARK    4  A    between atoms: C_16  and  O_17
REMARK                            x       y       z     vdW  Elec       q    Type
REMARK                         _______ _______ _______ _____ _____    ______ ____
ROOT
ATOM      1  C   UNL     1      -3.779   2.880 126.930  0.00  0.00    +0.000 C 
ATOM      2  O   UNL     1      -2.811   3.216 126.213  0.00  0.00    +0.000 OA
ATOM      3  N   UNL     1      -3.953   3.393 128.265  0.00  0.00    +0.000 N 
ATOM      4  C   UNL     1      -3.867   2.482 129.463  0.00  0.00    +0.000 C 
ATOM      5  C   UNL     1      -5.058   2.459 130.444  0.00  0.00    +0.000 C 
ATOM      6  C   UNL     1      -5.765   3.789 130.729  0.00  0.00    +0.000 C 
ATOM      7  C   UNL     1      -5.974   4.849 129.629  0.00  0.00    +0.000 C 
ATOM      8  C   UNL     1      -4.664   5.494 129.337  0.00  0.00    +0.000 A 
ATOM      9  C   UNL     1      -4.543   6.824 129.770  0.00  0.00    +0.000 A 
ATOM     10  C   UNL     1      -3.368   7.504 129.571  0.00  0.00    +0.000 A 
ATOM     11  C   UNL     1      -2.327   6.847 128.913  0.00  0.00    +0.000 A 
ATOM     12  C   UNL     1      -2.460   5.510 128.427  0.00  0.00    +0.000 A 
ATOM     13  C   UNL     1      -3.645   4.795 128.641  0.00  0.00    +0.000 A 
ENDROOT
BRANCH   1  17
ATOM     14  C   UNL     1      -6.794   0.307 124.807  0.00  0.00    +0.000 A 
ATOM     15  C   UNL     1      -5.927  -0.254 125.731  0.00  0.00    +0.000 A 
ATOM     16  C   UNL     1      -4.967   0.583 126.412  0.00  0.00    +0.000 A 
ATOM     17  C   UNL     1      -4.909   2.008 126.236  0.00  0.00    +0.000 A 
ATOM     18  C   UNL     1      -5.863   2.466 125.315  0.00  0.00    +0.000 A 
ATOM     19 CL   UNL     1      -6.225   3.987 124.711  0.00  0.00    +0.000 Cl
ATOM     20  C   UNL     1      -6.752   1.652 124.620  0.00  0.00    +0.000 A 
BRANCH  14  25
ATOM     21  C   UNL     1      -9.584  -3.298 123.293  0.00  0.00    +0.000 C 
ATOM     22  C   UNL     1      -9.041  -1.927 123.410  0.00  0.00    +0.000 A 
ATOM     23  C   UNL     1      -9.527  -0.763 122.780  0.00  0.00    +0.000 A 
ATOM     24  C   UNL     1      -8.726   0.238 123.259  0.00  0.00    +0.000 A 
ATOM     25  N   UNL     1      -7.734  -0.369 124.009  0.00  0.00    +0.000 N 
ATOM     26  N   UNL     1      -7.948  -1.691 124.148  0.00  0.00    +0.000 NA
ENDBRANCH  14  25
ENDBRANCH   1  17
BRANCH   7  27
ATOM     27  O   UNL     1      -6.505   4.510 128.371  0.00  0.00    +0.000 OA
ATOM     28  H   UNL     1      -5.726   4.316 127.819  0.00  0.00    +0.000 HD
ENDBRANCH   7  27
TORSDOF 3
ENDMDL
MODEL 9
REMARK VINA RESULT:      -7.8      3.921      6.386
REMARK  Name = CHEMBL4204008
REMARK  4 active torsions:
REMARK  status: ('A' for Active; 'I' for Inactive)
REMARK    1  A    between atoms: C_1  and  C_2
REMARK    2  A    between atoms: N_5  and  C_6
REMARK    3  A    between atoms: C_9  and  C_10
REMARK    4  A    between atoms: C_16  and  O_17
REMARK                            x       y       z     vdW  Elec       q    Type
REMARK                         _______ _______ _______ _____ _____    ______ ____
ROOT
ATOM      1  C   UNL     1      -7.755   0.973 124.818  0.00  0.00    +0.000 C 
ATOM      2  O   UNL     1      -7.555   1.525 123.714  0.00  0.00    +0.000 OA
ATOM      3  N   UNL     1      -7.741  -0.460 124.968  0.00  0.00    +0.000 N 
ATOM      4  C   UNL     1      -8.991  -1.213 125.343  0.00  0.00    +0.000 C 
ATOM      5  C   UNL     1      -8.939  -2.134 126.581  0.00  0.00    +0.000 C 
ATOM      6  C   UNL     1      -7.647  -2.923 126.821  0.00  0.00    +0.000 C 
ATOM      7  C   UNL     1      -6.260  -2.320 126.520  0.00  0.00    +0.000 C 
ATOM      8  C   UNL     1      -6.074  -2.272 125.044  0.00  0.00    +0.000 A 
ATOM      9  C   UNL     1      -5.134  -3.181 124.531  0.00  0.00    +0.000 A 
ATOM     10  C   UNL     1      -4.903  -3.235 123.179  0.00  0.00    +0.000 A 
ATOM     11  C   UNL     1      -5.602  -2.353 122.353  0.00  0.00    +0.000 A 
ATOM     12  C   UNL     1      -6.524  -1.393 122.874  0.00  0.00    +0.000 A 
ATOM     13  C   UNL     1      -6.787  -1.340 124.248  0.00  0.00    +0.000 A 
ENDROOT
BRANCH   1  17
ATOM     14  C   UNL     1      -8.261   3.665 128.384  0.00  0.00    +0.000 A 
ATOM     15  C   UNL     1      -8.506   2.305 128.497  0.00  0.00    +0.000 A 
ATOM     16  C   UNL     1      -8.335   1.449 127.347  0.00  0.00    +0.000 A 
ATOM     17  C   UNL     1      -7.841   1.926 126.084  0.00  0.00    +0.000 A 
ATOM     18  C   UNL     1      -7.583   3.305 126.104  0.00  0.00    +0.000 A 
ATOM     19 CL   UNL     1      -7.039   4.380 124.938  0.00  0.00    +0.000 Cl
ATOM     20  C   UNL     1      -7.801   4.138 127.197  0.00  0.00    +0.000 A 
BRANCH  14  25
ATOM     21  C   UNL     1     -10.600   6.404 131.561  0.00  0.00    +0.000 C 
ATOM     22  C   UNL     1      -9.465   5.775 130.852  0.00  0.00    +0.000 A 
ATOM     23  C   UNL     1      -8.096   5.891 131.165  0.00  0.00    +0.000 A 
ATOM     24  C   UNL     1      -7.472   5.077 130.259  0.00  0.00    +0.000 A 
ATOM     25  N   UNL     1      -8.446   4.643 129.377  0.00  0.00    +0.000 N 
ATOM     26  N   UNL     1      -9.678   5.025 129.761  0.00  0.00    +0.000 NA
ENDBRANCH  14  25
ENDBRANCH   1  17
BRANCH   7  27
ATOM     27  O   UNL     1      -5.899  -1.040 126.978  0.00  0.00    +0.000 OA
ATOM     28  H   UNL     1      -5.705  -1.162 127.925  0.00  0.00    +0.000 HD
ENDBRANCH   7  27
TORSDOF 3
ENDMDL
