MODEL 1
REMARK VINA RESULT:      -8.8      0.000      0.000
REMARK  Name = CHEMBL24074
REMARK  8 active torsions:
REMARK  status: ('A' for Active; 'I' for Inactive)
REMARK    1  A    between atoms: C_1  and  C_2
REMARK    2  A    between atoms: N_4  and  C_5
REMARK    3  A    between atoms: C_7  and  C_8
REMARK    4  A    between atoms: N_20  and  C_21
REMARK    5  A    between atoms: C_21  and  C_22
REMARK    6  A    between atoms: N_24  and  C_25
REMARK    7  A    between atoms: C_25  and  C_26
REMARK    8  A    between atoms: C_26  and  C_27
REMARK                            x       y       z     vdW  Elec       q    Type
REMARK                         _______ _______ _______ _____ _____    ______ ____
ROOT
ATOM      1  C   UNL     1      -4.923   2.247 127.476  0.00  0.00    +0.000 C 
ATOM      2  N   UNL     1      -5.451   0.899 127.627  0.00  0.00    +0.000 NA
ATOM      3  C   UNL     1      -6.538   0.706 128.287  0.00  0.00    +0.000 C 
ATOM      4  C   UNL     1      -7.400   1.786 128.849  0.00  0.00    +0.000 A 
ATOM      5  C   UNL     1      -8.098   1.521 130.042  0.00  0.00    +0.000 A 
ATOM      6  C   UNL     1      -9.010   2.440 130.556  0.00  0.00    +0.000 A 
ATOM      7  C   UNL     1      -9.177   3.666 129.931  0.00  0.00    +0.000 A 
ATOM      8  C   UNL     1      -8.432   3.971 128.792  0.00  0.00    +0.000 A 
ATOM      9  C   UNL     1      -7.611   3.007 128.179  0.00  0.00    +0.000 A 
ATOM     10  N   UNL     1      -7.149   3.259 126.848  0.00  0.00    +0.000 N 
ATOM     11  C   UNL     1      -5.834   2.995 126.452  0.00  0.00    +0.000 C 
ATOM     12  O   UNL     1      -5.401   3.386 125.361  0.00  0.00    +0.000 OA
ENDROOT
BRANCH   3  13
ATOM     13  C   UNL     1      -6.973  -0.710 128.466  0.00  0.00    +0.000 A 
ATOM     14  C   UNL     1      -6.513  -1.477 129.543  0.00  0.00    +0.000 A 
ATOM     15  C   UNL     1      -6.870  -2.827 129.626  0.00  0.00    +0.000 A 
ATOM     16  C   UNL     1      -7.745  -3.379 128.688  0.00  0.00    +0.000 A 
ATOM     17  C   UNL     1      -8.273  -2.583 127.671  0.00  0.00    +0.000 A 
ATOM     18  C   UNL     1      -7.849  -1.263 127.528  0.00  0.00    +0.000 A 
ENDBRANCH   3  13
BRANCH   1  22
ATOM     19  C   UNL     1      -1.256   2.837 126.619  0.00  0.00    +0.000 C 
ATOM     20  C   UNL     1      -2.611   3.111 127.219  0.00  0.00    +0.000 C 
ATOM     21  O   UNL     1      -2.804   4.134 127.873  0.00  0.00    +0.000 OA
ATOM     22  N   UNL     1      -3.565   2.154 126.962  0.00  0.00    +0.000 N 
ATOM     23  H   UNL     1      -3.370   1.378 126.342  0.00  0.00    +0.000 HD
ENDBRANCH   1  22
BRANCH  10  24
ATOM     24  C   UNL     1      -8.075   3.839 125.839  0.00  0.00    +0.000 C 
BRANCH  24  25
ATOM     25  C   UNL     1      -8.599   2.926 124.709  0.00  0.00    +0.000 C 
ATOM     26  O   UNL     1      -8.761   3.315 123.545  0.00  0.00    +0.000 OA
ATOM     27  N   UNL     1      -8.912   1.622 125.028  0.00  0.00    +0.000 N 
ATOM     28  H   UNL     1      -9.255   1.401 125.957  0.00  0.00    +0.000 HD
BRANCH  27  29
ATOM     29  C   UNL     1      -9.214   0.753 123.909  0.00  0.00    +0.000 C 
BRANCH  29  30
ATOM     30  C   UNL     1      -8.003   0.151 123.215  0.00  0.00    +0.000 C 
BRANCH  30  31
ATOM     31  C   UNL     1      -7.838  -1.316 123.547  0.00  0.00    +0.000 A 
ATOM     32  C   UNL     1      -8.963  -2.071 123.891  0.00  0.00    +0.000 A 
ATOM     33  C   UNL     1      -8.829  -3.409 124.268  0.00  0.00    +0.000 A 
ATOM     34  C   UNL     1      -7.561  -3.974 124.403  0.00  0.00    +0.000 A 
ATOM     35  C   UNL     1      -6.440  -3.239 124.038  0.00  0.00    +0.000 A 
ATOM     36 CL   UNL     1      -4.865  -3.900 124.252  0.00  0.00    +0.000 Cl
ATOM     37  C   UNL     1      -6.582  -1.949 123.536  0.00  0.00    +0.000 A 
ENDBRANCH  30  31
ENDBRANCH  29  30
ENDBRANCH  27  29
ENDBRANCH  24  25
ENDBRANCH  10  24
TORSDOF 7
ENDMDL
MODEL 2
REMARK VINA RESULT:      -8.8      3.435      5.642
REMARK  Name = CHEMBL24074
REMARK  8 active torsions:
REMARK  status: ('A' for Active; 'I' for Inactive)
REMARK    1  A    between atoms: C_1  and  C_2
REMARK    2  A    between atoms: N_4  and  C_5
REMARK    3  A    between atoms: C_7  and  C_8
REMARK    4  A    between atoms: N_20  and  C_21
REMARK    5  A    between atoms: C_21  and  C_22
REMARK    6  A    between atoms: N_24  and  C_25
REMARK    7  A    between atoms: C_25  and  C_26
REMARK    8  A    between atoms: C_26  and  C_27
REMARK                            x       y       z     vdW  Elec       q    Type
REMARK                         _______ _______ _______ _____ _____    ______ ____
ROOT
ATOM      1  C   UNL     1      -6.952   0.275 129.172  0.00  0.00    +0.000 C 
ATOM      2  N   UNL     1      -6.451  -0.804 130.010  0.00  0.00    +0.000 NA
ATOM      3  C   UNL     1      -6.845  -2.012 129.805  0.00  0.00    +0.000 C 
ATOM      4  C   UNL     1      -7.723  -2.444 128.679  0.00  0.00    +0.000 A 
ATOM      5  C   UNL     1      -8.604  -3.518 128.904  0.00  0.00    +0.000 A 
ATOM      6  C   UNL     1      -9.364  -4.049 127.864  0.00  0.00    +0.000 A 
ATOM      7  C   UNL     1      -9.315  -3.464 126.608  0.00  0.00    +0.000 A 
ATOM      8  C   UNL     1      -8.504  -2.351 126.394  0.00  0.00    +0.000 A 
ATOM      9  C   UNL     1      -7.626  -1.886 127.390  0.00  0.00    +0.000 A 
ATOM     10  N   UNL     1      -6.591  -0.975 127.008  0.00  0.00    +0.000 N 
ATOM     11  C   UNL     1      -6.261   0.145 127.778  0.00  0.00    +0.000 C 
ATOM     12  O   UNL     1      -5.496   1.019 127.348  0.00  0.00    +0.000 OA
ENDROOT
BRANCH   3  13
ATOM     13  C   UNL     1      -6.350  -3.050 130.754  0.00  0.00    +0.000 A 
ATOM     14  C   UNL     1      -5.548  -4.110 130.315  0.00  0.00    +0.000 A 
ATOM     15  C   UNL     1      -5.180  -5.113 131.217  0.00  0.00    +0.000 A 
ATOM     16  C   UNL     1      -5.542  -5.012 132.563  0.00  0.00    +0.000 A 
ATOM     17  C   UNL     1      -6.262  -3.905 133.012  0.00  0.00    +0.000 A 
ATOM     18  C   UNL     1      -6.711  -2.950 132.101  0.00  0.00    +0.000 A 
ENDBRANCH   3  13
BRANCH   1  22
ATOM     19  C   UNL     1      -6.947   3.806 130.607  0.00  0.00    +0.000 C 
ATOM     20  C   UNL     1      -7.490   2.578 129.923  0.00  0.00    +0.000 C 
ATOM     21  O   UNL     1      -8.651   2.555 129.522  0.00  0.00    +0.000 OA
ATOM     22  N   UNL     1      -6.594   1.542 129.792  0.00  0.00    +0.000 N 
ATOM     23  H   UNL     1      -5.626   1.653 130.063  0.00  0.00    +0.000 HD
ENDBRANCH   1  22
BRANCH  10  24
ATOM     24  C   UNL     1      -5.838  -1.194 125.745  0.00  0.00    +0.000 C 
BRANCH  24  25
ATOM     25  C   UNL     1      -6.362  -0.536 124.450  0.00  0.00    +0.000 C 
ATOM     26  O   UNL     1      -6.337  -1.098 123.347  0.00  0.00    +0.000 OA
ATOM     27  N   UNL     1      -6.866   0.744 124.537  0.00  0.00    +0.000 N 
ATOM     28  H   UNL     1      -6.490   1.386 125.227  0.00  0.00    +0.000 HD
BRANCH  27  29
ATOM     29  C   UNL     1      -7.521   1.247 123.346  0.00  0.00    +0.000 C 
BRANCH  29  30
ATOM     30  C   UNL     1      -7.713   2.754 123.305  0.00  0.00    +0.000 C 
BRANCH  30  31
ATOM     31  C   UNL     1      -6.879   3.396 122.217  0.00  0.00    +0.000 A 
ATOM     32  C   UNL     1      -5.626   3.927 122.539  0.00  0.00    +0.000 A 
ATOM     33  C   UNL     1      -4.867   4.586 121.570  0.00  0.00    +0.000 A 
ATOM     34  C   UNL     1      -5.397   4.810 120.299  0.00  0.00    +0.000 A 
ATOM     35  C   UNL     1      -6.630   4.263 119.964  0.00  0.00    +0.000 A 
ATOM     36 CL   UNL     1      -7.323   4.577 118.420  0.00  0.00    +0.000 Cl
ATOM     37  C   UNL     1      -7.328   3.493 120.888  0.00  0.00    +0.000 A 
ENDBRANCH  30  31
ENDBRANCH  29  30
ENDBRANCH  27  29
ENDBRANCH  24  25
ENDBRANCH  10  24
TORSDOF 7
ENDMDL
MODEL 3
REMARK VINA RESULT:      -8.7      5.045      8.848
REMARK  Name = CHEMBL24074
REMARK  8 active torsions:
REMARK  status: ('A' for Active; 'I' for Inactive)
REMARK    1  A    between atoms: C_1  and  C_2
REMARK    2  A    between atoms: N_4  and  C_5
REMARK    3  A    between atoms: C_7  and  C_8
REMARK    4  A    between atoms: N_20  and  C_21
REMARK    5  A    between atoms: C_21  and  C_22
REMARK    6  A    between atoms: N_24  and  C_25
REMARK    7  A    between atoms: C_25  and  C_26
REMARK    8  A    between atoms: C_26  and  C_27
REMARK                            x       y       z     vdW  Elec       q    Type
REMARK                         _______ _______ _______ _____ _____    ______ ____
ROOT
ATOM      1  C   UNL     1     -10.081   5.835 130.565  0.00  0.00    +0.000 C 
ATOM      2  N   UNL     1      -9.072   6.113 131.577  0.00  0.00    +0.000 NA
ATOM      3  C   UNL     1      -8.441   5.141 132.138  0.00  0.00    +0.000 C 
ATOM      4  C   UNL     1      -8.577   3.704 131.762  0.00  0.00    +0.000 A 
ATOM      5  C   UNL     1      -8.431   2.740 132.776  0.00  0.00    +0.000 A 
ATOM      6  C   UNL     1      -8.427   1.379 132.473  0.00  0.00    +0.000 A 
ATOM      7  C   UNL     1      -8.649   0.964 131.169  0.00  0.00    +0.000 A 
ATOM      8  C   UNL     1      -8.873   1.910 130.170  0.00  0.00    +0.000 A 
ATOM      9  C   UNL     1      -8.743   3.287 130.427  0.00  0.00    +0.000 A 
ATOM     10  N   UNL     1      -8.646   4.178 129.311  0.00  0.00    +0.000 N 
ATOM     11  C   UNL     1      -9.332   5.396 129.267  0.00  0.00    +0.000 C 
ATOM     12  O   UNL     1      -9.385   6.066 128.227  0.00  0.00    +0.000 OA
ENDROOT
BRANCH   3  13
ATOM     13  C   UNL     1      -7.482   5.501 133.222  0.00  0.00    +0.000 A 
ATOM     14  C   UNL     1      -6.136   5.762 132.940  0.00  0.00    +0.000 A 
ATOM     15  C   UNL     1      -5.248   6.005 133.994  0.00  0.00    +0.000 A 
ATOM     16  C   UNL     1      -5.720   6.069 135.306  0.00  0.00    +0.000 A 
ATOM     17  C   UNL     1      -7.080   5.900 135.570  0.00  0.00    +0.000 A 
ATOM     18  C   UNL     1      -7.953   5.565 134.536  0.00  0.00    +0.000 A 
ENDBRANCH   3  13
BRANCH   1  22
ATOM     19  C   UNL     1     -12.687   8.616 130.532  0.00  0.00    +0.000 C 
ATOM     20  C   UNL     1     -12.065   7.289 130.885  0.00  0.00    +0.000 C 
ATOM     21  O   UNL     1     -12.658   6.503 131.621  0.00  0.00    +0.000 OA
ATOM     22  N   UNL     1     -10.833   7.056 130.319  0.00  0.00    +0.000 N 
ATOM     23  H   UNL     1     -10.436   7.704 129.651  0.00  0.00    +0.000 HD
ENDBRANCH   1  22
BRANCH  10  24
ATOM     24  C   UNL     1      -7.809   3.810 128.139  0.00  0.00    +0.000 C 
BRANCH  24  25
ATOM     25  C   UNL     1      -6.279   3.995 128.238  0.00  0.00    +0.000 C 
ATOM     26  O   UNL     1      -5.682   4.970 127.762  0.00  0.00    +0.000 OA
ATOM     27  N   UNL     1      -5.552   3.014 128.877  0.00  0.00    +0.000 N 
ATOM     28  H   UNL     1      -5.870   2.051 128.844  0.00  0.00    +0.000 HD
BRANCH  27  29
ATOM     29  C   UNL     1      -4.155   3.317 129.118  0.00  0.00    +0.000 C 
BRANCH  29  30
ATOM     30  C   UNL     1      -3.749   3.368 130.581  0.00  0.00    +0.000 C 
BRANCH  30  31
ATOM     31  C   UNL     1      -3.171   4.715 130.956  0.00  0.00    +0.000 A 
ATOM     32  C   UNL     1      -2.232   4.793 131.989  0.00  0.00    +0.000 A 
ATOM     33  C   UNL     1      -1.735   6.031 132.401  0.00  0.00    +0.000 A 
ATOM     34  C   UNL     1      -2.247   7.208 131.854  0.00  0.00    +0.000 A 
ATOM     35  C   UNL     1      -3.161   7.138 130.809  0.00  0.00    +0.000 A 
ATOM     36 CL   UNL     1      -3.845   8.578 130.161  0.00  0.00    +0.000 Cl
ATOM     37  C   UNL     1      -3.557   5.902 130.309  0.00  0.00    +0.000 A 
ENDBRANCH  30  31
ENDBRANCH  29  30
ENDBRANCH  27  29
ENDBRANCH  24  25
ENDBRANCH  10  24
TORSDOF 7
ENDMDL
MODEL 4
REMARK VINA RESULT:      -8.7      2.696      4.841
REMARK  Name = CHEMBL24074
REMARK  8 active torsions:
REMARK  status: ('A' for Active; 'I' for Inactive)
REMARK    1  A    between atoms: C_1  and  C_2
REMARK    2  A    between atoms: N_4  and  C_5
REMARK    3  A    between atoms: C_7  and  C_8
REMARK    4  A    between atoms: N_20  and  C_21
REMARK    5  A    between atoms: C_21  and  C_22
REMARK    6  A    between atoms: N_24  and  C_25
REMARK    7  A    between atoms: C_25  and  C_26
REMARK    8  A    between atoms: C_26  and  C_27
REMARK                            x       y       z     vdW  Elec       q    Type
REMARK                         _______ _______ _______ _____ _____    ______ ____
ROOT
ATOM      1  C   UNL     1      -7.866   0.284 130.560  0.00  0.00    +0.000 C 
ATOM      2  N   UNL     1      -7.298  -0.838 131.293  0.00  0.00    +0.000 NA
ATOM      3  C   UNL     1      -7.336  -2.020 130.787  0.00  0.00    +0.000 C 
ATOM      4  C   UNL     1      -7.836  -2.349 129.420  0.00  0.00    +0.000 A 
ATOM      5  C   UNL     1      -8.455  -3.597 129.226  0.00  0.00    +0.000 A 
ATOM      6  C   UNL     1      -8.836  -4.016 127.953  0.00  0.00    +0.000 A 
ATOM      7  C   UNL     1      -8.677  -3.162 126.872  0.00  0.00    +0.000 A 
ATOM      8  C   UNL     1      -8.135  -1.893 127.066  0.00  0.00    +0.000 A 
ATOM      9  C   UNL     1      -7.618  -1.504 128.315  0.00  0.00    +0.000 A 
ATOM     10  N   UNL     1      -6.780  -0.345 128.370  0.00  0.00    +0.000 N 
ATOM     11  C   UNL     1      -6.896   0.613 129.382  0.00  0.00    +0.000 C 
ATOM     12  O   UNL     1      -6.296   1.694 129.316  0.00  0.00    +0.000 OA
ENDROOT
BRANCH   3  13
ATOM     13  C   UNL     1      -6.807  -3.130 131.632  0.00  0.00    +0.000 A 
ATOM     14  C   UNL     1      -7.232  -3.298 132.955  0.00  0.00    +0.000 A 
ATOM     15  C   UNL     1      -6.645  -4.293 133.744  0.00  0.00    +0.000 A 
ATOM     16  C   UNL     1      -5.705  -5.164 133.188  0.00  0.00    +0.000 A 
ATOM     17  C   UNL     1      -5.355  -5.048 131.842  0.00  0.00    +0.000 A 
ATOM     18  C   UNL     1      -5.866  -4.002 131.076  0.00  0.00    +0.000 A 
ENDBRANCH   3  13
BRANCH   1  22
ATOM     19  C   UNL     1      -9.018   2.924 133.057  0.00  0.00    +0.000 C 
ATOM     20  C   UNL     1      -9.111   1.720 132.155  0.00  0.00    +0.000 C 
ATOM     21  O   UNL     1     -10.163   1.089 132.071  0.00  0.00    +0.000 OA
ATOM     22  N   UNL     1      -7.961   1.422 131.462  0.00  0.00    +0.000 N 
ATOM     23  H   UNL     1      -7.154   2.031 131.506  0.00  0.00    +0.000 HD
ENDBRANCH   1  22
BRANCH  10  24
ATOM     24  C   UNL     1      -5.756  -0.120 127.315  0.00  0.00    +0.000 C 
BRANCH  24  25
ATOM     25  C   UNL     1      -5.998   1.000 126.279  0.00  0.00    +0.000 C 
ATOM     26  O   UNL     1      -5.142   1.843 125.980  0.00  0.00    +0.000 OA
ATOM     27  N   UNL     1      -7.236   1.060 125.675  0.00  0.00    +0.000 N 
ATOM     28  H   UNL     1      -8.059   0.757 126.184  0.00  0.00    +0.000 HD
BRANCH  27  29
ATOM     29  C   UNL     1      -7.357   1.997 124.575  0.00  0.00    +0.000 C 
BRANCH  29  30
ATOM     30  C   UNL     1      -8.019   1.442 123.325  0.00  0.00    +0.000 C 
BRANCH  30  31
ATOM     31  C   UNL     1      -7.934  -0.068 123.268  0.00  0.00    +0.000 A 
ATOM     32  C   UNL     1      -9.107  -0.824 123.360  0.00  0.00    +0.000 A 
ATOM     33  C   UNL     1      -9.049  -2.219 123.380  0.00  0.00    +0.000 A 
ATOM     34  C   UNL     1      -7.814  -2.868 123.411  0.00  0.00    +0.000 A 
ATOM     35  C   UNL     1      -6.645  -2.125 123.293  0.00  0.00    +0.000 A 
ATOM     36 CL   UNL     1      -5.113  -2.904 123.386  0.00  0.00    +0.000 Cl
ATOM     37  C   UNL     1      -6.707  -0.744 123.141  0.00  0.00    +0.000 A 
ENDBRANCH  30  31
ENDBRANCH  29  30
ENDBRANCH  27  29
ENDBRANCH  24  25
ENDBRANCH  10  24
TORSDOF 7
ENDMDL
MODEL 5
REMARK VINA RESULT:      -8.6      4.429      7.488
REMARK  Name = CHEMBL24074
REMARK  8 active torsions:
REMARK  status: ('A' for Active; 'I' for Inactive)
REMARK    1  A    between atoms: C_1  and  C_2
REMARK    2  A    between atoms: N_4  and  C_5
REMARK    3  A    between atoms: C_7  and  C_8
REMARK    4  A    between atoms: N_20  and  C_21
REMARK    5  A    between atoms: C_21  and  C_22
REMARK    6  A    between atoms: N_24  and  C_25
REMARK    7  A    between atoms: C_25  and  C_26
REMARK    8  A    between atoms: C_26  and  C_27
REMARK                            x       y       z     vdW  Elec       q    Type
REMARK                         _______ _______ _______ _____ _____    ______ ____
ROOT
ATOM      1  C   UNL     1      -9.121   6.116 130.289  0.00  0.00    +0.000 C 
ATOM      2  N   UNL     1      -7.680   6.127 130.082  0.00  0.00    +0.000 NA
ATOM      3  C   UNL     1      -6.889   5.860 131.061  0.00  0.00    +0.000 C 
ATOM      4  C   UNL     1      -7.327   5.421 132.418  0.00  0.00    +0.000 A 
ATOM      5  C   UNL     1      -6.542   5.805 133.521  0.00  0.00    +0.000 A 
ATOM      6  C   UNL     1      -6.827   5.330 134.800  0.00  0.00    +0.000 A 
ATOM      7  C   UNL     1      -7.942   4.533 135.005  0.00  0.00    +0.000 A 
ATOM      8  C   UNL     1      -8.770   4.211 133.932  0.00  0.00    +0.000 A 
ATOM      9  C   UNL     1      -8.426   4.563 132.614  0.00  0.00    +0.000 A 
ATOM     10  N   UNL     1      -9.120   3.922 131.539  0.00  0.00    +0.000 N 
ATOM     11  C   UNL     1      -9.564   4.624 130.413  0.00  0.00    +0.000 C 
ATOM     12  O   UNL     1     -10.317   4.098 129.584  0.00  0.00    +0.000 OA
ENDROOT
BRANCH   3  13
ATOM     13  C   UNL     1      -5.426   5.971 130.792  0.00  0.00    +0.000 A 
ATOM     14  C   UNL     1      -4.836   7.204 130.493  0.00  0.00    +0.000 A 
ATOM     15  C   UNL     1      -3.479   7.254 130.156  0.00  0.00    +0.000 A 
ATOM     16  C   UNL     1      -2.704   6.093 130.201  0.00  0.00    +0.000 A 
ATOM     17  C   UNL     1      -3.279   4.883 130.591  0.00  0.00    +0.000 A 
ATOM     18  C   UNL     1      -4.649   4.809 130.837  0.00  0.00    +0.000 A 
ENDBRANCH   3  13
BRANCH   1  22
ATOM     19  C   UNL     1     -11.407   8.057 127.937  0.00  0.00    +0.000 C 
ATOM     20  C   UNL     1     -10.903   7.482 129.236  0.00  0.00    +0.000 C 
ATOM     21  O   UNL     1     -11.514   7.690 130.282  0.00  0.00    +0.000 OA
ATOM     22  N   UNL     1      -9.756   6.731 129.134  0.00  0.00    +0.000 N 
ATOM     23  H   UNL     1      -9.349   6.523 128.231  0.00  0.00    +0.000 HD
ENDBRANCH   1  22
BRANCH  10  24
ATOM     24  C   UNL     1      -9.407   2.465 131.605  0.00  0.00    +0.000 C 
BRANCH  24  25
ATOM     25  C   UNL     1      -8.411   1.485 130.946  0.00  0.00    +0.000 C 
ATOM     26  O   UNL     1      -8.585   0.260 130.916  0.00  0.00    +0.000 OA
ATOM     27  N   UNL     1      -7.269   2.012 130.381  0.00  0.00    +0.000 N 
ATOM     28  H   UNL     1      -6.856   2.851 130.773  0.00  0.00    +0.000 HD
BRANCH  27  29
ATOM     29  C   UNL     1      -6.462   1.089 129.609  0.00  0.00    +0.000 C 
BRANCH  29  30
ATOM     30  C   UNL     1      -6.413   1.369 128.116  0.00  0.00    +0.000 C 
BRANCH  30  31
ATOM     31  C   UNL     1      -5.455   2.494 127.788  0.00  0.00    +0.000 A 
ATOM     32  C   UNL     1      -5.961   3.773 127.538  0.00  0.00    +0.000 A 
ATOM     33  C   UNL     1      -5.105   4.811 127.166  0.00  0.00    +0.000 A 
ATOM     34  C   UNL     1      -3.752   4.556 126.939  0.00  0.00    +0.000 A 
ATOM     35  C   UNL     1      -3.237   3.294 127.210  0.00  0.00    +0.000 A 
ATOM     36 CL   UNL     1      -1.583   2.947 126.883  0.00  0.00    +0.000 Cl
ATOM     37  C   UNL     1      -4.065   2.294 127.708  0.00  0.00    +0.000 A 
ENDBRANCH  30  31
ENDBRANCH  29  30
ENDBRANCH  27  29
ENDBRANCH  24  25
ENDBRANCH  10  24
TORSDOF 7
ENDMDL
MODEL 6
REMARK VINA RESULT:      -8.5      4.152      7.095
REMARK  Name = CHEMBL24074
REMARK  8 active torsions:
REMARK  status: ('A' for Active; 'I' for Inactive)
REMARK    1  A    between atoms: C_1  and  C_2
REMARK    2  A    between atoms: N_4  and  C_5
REMARK    3  A    between atoms: C_7  and  C_8
REMARK    4  A    between atoms: N_20  and  C_21
REMARK    5  A    between atoms: C_21  and  C_22
REMARK    6  A    between atoms: N_24  and  C_25
REMARK    7  A    between atoms: C_25  and  C_26
REMARK    8  A    between atoms: C_26  and  C_27
REMARK                            x       y       z     vdW  Elec       q    Type
REMARK                         _______ _______ _______ _____ _____    ______ ____
ROOT
ATOM      1  C   UNL     1      -9.620   6.589 130.530  0.00  0.00    +0.000 C 
ATOM      2  N   UNL     1      -8.200   6.614 130.209  0.00  0.00    +0.000 NA
ATOM      3  C   UNL     1      -7.341   6.176 131.061  0.00  0.00    +0.000 C 
ATOM      4  C   UNL     1      -7.682   5.523 132.359  0.00  0.00    +0.000 A 
ATOM      5  C   UNL     1      -6.801   5.707 133.441  0.00  0.00    +0.000 A 
ATOM      6  C   UNL     1      -6.996   5.030 134.644  0.00  0.00    +0.000 A 
ATOM      7  C   UNL     1      -8.114   4.227 134.807  0.00  0.00    +0.000 A 
ATOM      8  C   UNL     1      -9.034   4.099 133.768  0.00  0.00    +0.000 A 
ATOM      9  C   UNL     1      -8.786   4.660 132.502  0.00  0.00    +0.000 A 
ATOM     10  N   UNL     1      -9.580   4.218 131.397  0.00  0.00    +0.000 N 
ATOM     11  C   UNL     1     -10.093   5.103 130.444  0.00  0.00    +0.000 C 
ATOM     12  O   UNL     1     -10.924   4.734 129.605  0.00  0.00    +0.000 OA
ENDROOT
BRANCH   3  13
ATOM     13  C   UNL     1      -5.902   6.308 130.693  0.00  0.00    +0.000 A 
ATOM     14  C   UNL     1      -5.131   5.186 130.367  0.00  0.00    +0.000 A 
ATOM     15  C   UNL     1      -3.764   5.341 130.118  0.00  0.00    +0.000 A 
ATOM     16  C   UNL     1      -3.193   6.615 130.111  0.00  0.00    +0.000 A 
ATOM     17  C   UNL     1      -3.987   7.738 130.345  0.00  0.00    +0.000 A 
ATOM     18  C   UNL     1      -5.329   7.584 130.686  0.00  0.00    +0.000 A 
ENDBRANCH   3  13
BRANCH   1  22
ATOM     19  C   UNL     1     -12.159   8.720 128.651  0.00  0.00    +0.000 C 
ATOM     20  C   UNL     1     -11.592   7.888 129.772  0.00  0.00    +0.000 C 
ATOM     21  O   UNL     1     -12.254   7.683 130.787  0.00  0.00    +0.000 OA
ATOM     22  N   UNL     1     -10.327   7.397 129.549  0.00  0.00    +0.000 N 
ATOM     23  H   UNL     1      -9.868   7.526 128.656  0.00  0.00    +0.000 HD
ENDBRANCH   1  22
BRANCH  10  24
ATOM     24  C   UNL     1      -9.902   2.774 131.247  0.00  0.00    +0.000 C 
BRANCH  24  25
ATOM     25  C   UNL     1      -8.981   1.900 130.367  0.00  0.00    +0.000 C 
ATOM     26  O   UNL     1      -8.898   2.027 129.138  0.00  0.00    +0.000 OA
ATOM     27  N   UNL     1      -8.231   0.926 130.990  0.00  0.00    +0.000 N 
ATOM     28  H   UNL     1      -8.589   0.473 131.824  0.00  0.00    +0.000 HD
BRANCH  27  29
ATOM     29  C   UNL     1      -7.243   0.264 130.163  0.00  0.00    +0.000 C 
BRANCH  29  30
ATOM     30  C   UNL     1      -7.209  -1.250 130.285  0.00  0.00    +0.000 C 
BRANCH  30  31
ATOM     31  C   UNL     1      -7.818  -1.925 129.076  0.00  0.00    +0.000 A 
ATOM     32  C   UNL     1      -8.310  -3.229 129.193  0.00  0.00    +0.000 A 
ATOM     33  C   UNL     1      -8.813  -3.898 128.077  0.00  0.00    +0.000 A 
ATOM     34  C   UNL     1      -8.736  -3.309 126.814  0.00  0.00    +0.000 A 
ATOM     35  C   UNL     1      -8.274  -2.004 126.693  0.00  0.00    +0.000 A 
ATOM     36 CL   UNL     1      -8.120  -1.283 125.137  0.00  0.00    +0.000 Cl
ATOM     37  C   UNL     1      -7.895  -1.289 127.824  0.00  0.00    +0.000 A 
ENDBRANCH  30  31
ENDBRANCH  29  30
ENDBRANCH  27  29
ENDBRANCH  24  25
ENDBRANCH  10  24
TORSDOF 7
ENDMDL
MODEL 7
REMARK VINA RESULT:      -8.5      2.448      5.318
REMARK  Name = CHEMBL24074
REMARK  8 active torsions:
REMARK  status: ('A' for Active; 'I' for Inactive)
REMARK    1  A    between atoms: C_1  and  C_2
REMARK    2  A    between atoms: N_4  and  C_5
REMARK    3  A    between atoms: C_7  and  C_8
REMARK    4  A    between atoms: N_20  and  C_21
REMARK    5  A    between atoms: C_21  and  C_22
REMARK    6  A    between atoms: N_24  and  C_25
REMARK    7  A    between atoms: C_25  and  C_26
REMARK    8  A    between atoms: C_26  and  C_27
REMARK                            x       y       z     vdW  Elec       q    Type
REMARK                         _______ _______ _______ _____ _____    ______ ____
ROOT
ATOM      1  C   UNL     1      -7.819   4.191 129.012  0.00  0.00    +0.000 C 
ATOM      2  N   UNL     1      -8.221   3.500 127.795  0.00  0.00    +0.000 NA
ATOM      3  C   UNL     1      -7.327   3.071 126.975  0.00  0.00    +0.000 C 
ATOM      4  C   UNL     1      -5.855   3.127 127.211  0.00  0.00    +0.000 A 
ATOM      5  C   UNL     1      -5.013   3.290 126.095  0.00  0.00    +0.000 A 
ATOM      6  C   UNL     1      -3.627   3.230 126.230  0.00  0.00    +0.000 A 
ATOM      7  C   UNL     1      -3.065   3.088 127.489  0.00  0.00    +0.000 A 
ATOM      8  C   UNL     1      -3.888   3.003 128.610  0.00  0.00    +0.000 A 
ATOM      9  C   UNL     1      -5.287   2.922 128.483  0.00  0.00    +0.000 A 
ATOM     10  N   UNL     1      -6.046   2.499 129.620  0.00  0.00    +0.000 N 
ATOM     11  C   UNL     1      -7.244   3.119 129.991  0.00  0.00    +0.000 C 
ATOM     12  O   UNL     1      -7.791   2.866 131.072  0.00  0.00    +0.000 OA
ENDROOT
BRANCH   3  13
ATOM     13  C   UNL     1      -7.817   2.445 125.713  0.00  0.00    +0.000 A 
ATOM     14  C   UNL     1      -7.811   1.056 125.544  0.00  0.00    +0.000 A 
ATOM     15  C   UNL     1      -8.192   0.511 124.313  0.00  0.00    +0.000 A 
ATOM     16  C   UNL     1      -8.655   1.345 123.293  0.00  0.00    +0.000 A 
ATOM     17  C   UNL     1      -8.747   2.721 123.502  0.00  0.00    +0.000 A 
ATOM     18  C   UNL     1      -8.282   3.278 124.691  0.00  0.00    +0.000 A 
ENDBRANCH   3  13
BRANCH   1  22
ATOM     19  C   UNL     1     -10.269   6.555 130.724  0.00  0.00    +0.000 C 
ATOM     20  C   UNL     1      -8.950   6.055 130.195  0.00  0.00    +0.000 C 
ATOM     21  O   UNL     1      -7.934   6.734 130.324  0.00  0.00    +0.000 OA
ATOM     22  N   UNL     1      -8.995   4.819 129.593  0.00  0.00    +0.000 N 
ATOM     23  H   UNL     1      -9.845   4.270 129.596  0.00  0.00    +0.000 HD
ENDBRANCH   1  22
BRANCH  10  24
ATOM     24  C   UNL     1      -5.557   1.375 130.462  0.00  0.00    +0.000 C 
BRANCH  24  25
ATOM     25  C   UNL     1      -5.523  -0.043 129.852  0.00  0.00    +0.000 C 
ATOM     26  O   UNL     1      -4.590  -0.836 130.034  0.00  0.00    +0.000 OA
ATOM     27  N   UNL     1      -6.582  -0.428 129.058  0.00  0.00    +0.000 N 
ATOM     28  H   UNL     1      -7.077   0.267 128.509  0.00  0.00    +0.000 HD
BRANCH  27  29
ATOM     29  C   UNL     1      -6.605  -1.823 128.668  0.00  0.00    +0.000 C 
BRANCH  29  30
ATOM     30  C   UNL     1      -7.951  -2.335 128.183  0.00  0.00    +0.000 C 
BRANCH  30  31
ATOM     31  C   UNL     1      -7.956  -2.572 126.688  0.00  0.00    +0.000 A 
ATOM     32  C   UNL     1      -9.167  -2.837 126.041  0.00  0.00    +0.000 A 
ATOM     33  C   UNL     1      -9.190  -3.127 124.676  0.00  0.00    +0.000 A 
ATOM     34  C   UNL     1      -7.995  -3.256 123.967  0.00  0.00    +0.000 A 
ATOM     35  C   UNL     1      -6.790  -2.969 124.597  0.00  0.00    +0.000 A 
ATOM     36 CL   UNL     1      -5.303  -3.177 123.754  0.00  0.00    +0.000 Cl
ATOM     37  C   UNL     1      -6.776  -2.551 125.923  0.00  0.00    +0.000 A 
ENDBRANCH  30  31
ENDBRANCH  29  30
ENDBRANCH  27  29
ENDBRANCH  24  25
ENDBRANCH  10  24
TORSDOF 7
ENDMDL
MODEL 8
REMARK VINA RESULT:      -8.2      3.173      5.949
REMARK  Name = CHEMBL24074
REMARK  8 active torsions:
REMARK  status: ('A' for Active; 'I' for Inactive)
REMARK    1  A    between atoms: C_1  and  C_2
REMARK    2  A    between atoms: N_4  and  C_5
REMARK    3  A    between atoms: C_7  and  C_8
REMARK    4  A    between atoms: N_20  and  C_21
REMARK    5  A    between atoms: C_21  and  C_22
REMARK    6  A    between atoms: N_24  and  C_25
REMARK    7  A    between atoms: C_25  and  C_26
REMARK    8  A    between atoms: C_26  and  C_27
REMARK                            x       y       z     vdW  Elec       q    Type
REMARK                         _______ _______ _______ _____ _____    ______ ____
ROOT
ATOM      1  C   UNL     1      -7.311   4.082 128.760  0.00  0.00    +0.000 C 
ATOM      2  N   UNL     1      -6.555   5.106 129.465  0.00  0.00    +0.000 NA
ATOM      3  C   UNL     1      -5.281   5.193 129.300  0.00  0.00    +0.000 C 
ATOM      4  C   UNL     1      -4.488   4.375 128.336  0.00  0.00    +0.000 A 
ATOM      5  C   UNL     1      -3.166   4.043 128.684  0.00  0.00    +0.000 A 
ATOM      6  C   UNL     1      -2.332   3.386 127.781  0.00  0.00    +0.000 A 
ATOM      7  C   UNL     1      -2.833   2.980 126.554  0.00  0.00    +0.000 A 
ATOM      8  C   UNL     1      -4.164   3.235 126.230  0.00  0.00    +0.000 A 
ATOM      9  C   UNL     1      -4.982   4.017 127.066  0.00  0.00    +0.000 A 
ATOM     10  N   UNL     1      -6.208   4.525 126.532  0.00  0.00    +0.000 N 
ATOM     11  C   UNL     1      -7.401   4.514 127.262  0.00  0.00    +0.000 C 
ATOM     12  O   UNL     1      -8.484   4.783 126.728  0.00  0.00    +0.000 OA
ENDROOT
BRANCH   3  13
ATOM     13  C   UNL     1      -4.565   6.214 130.117  0.00  0.00    +0.000 A 
ATOM     14  C   UNL     1      -4.225   7.461 129.580  0.00  0.00    +0.000 A 
ATOM     15  C   UNL     1      -3.473   8.358 130.347  0.00  0.00    +0.000 A 
ATOM     16  C   UNL     1      -3.140   8.041 131.666  0.00  0.00    +0.000 A 
ATOM     17  C   UNL     1      -3.562   6.835 132.224  0.00  0.00    +0.000 A 
ATOM     18  C   UNL     1      -4.231   5.899 131.437  0.00  0.00    +0.000 A 
ENDBRANCH   3  13
BRANCH   1  22
ATOM     19  C   UNL     1     -10.481   3.036 130.600  0.00  0.00    +0.000 C 
ATOM     20  C   UNL     1      -9.080   2.922 130.057  0.00  0.00    +0.000 C 
ATOM     21  O   UNL     1      -8.418   1.906 130.258  0.00  0.00    +0.000 OA
ATOM     22  N   UNL     1      -8.643   4.012 129.341  0.00  0.00    +0.000 N 
ATOM     23  H   UNL     1      -9.266   4.783 129.135  0.00  0.00    +0.000 HD
ENDBRANCH   1  22
BRANCH  10  24
ATOM     24  C   UNL     1      -6.245   5.070 125.150  0.00  0.00    +0.000 C 
BRANCH  24  25
ATOM     25  C   UNL     1      -6.549   4.104 123.983  0.00  0.00    +0.000 C 
ATOM     26  O   UNL     1      -5.693   3.734 123.169  0.00  0.00    +0.000 OA
ATOM     27  N   UNL     1      -7.844   3.651 123.845  0.00  0.00    +0.000 N 
ATOM     28  H   UNL     1      -8.617   4.243 124.128  0.00  0.00    +0.000 HD
BRANCH  27  29
ATOM     29  C   UNL     1      -8.045   2.603 122.864  0.00  0.00    +0.000 C 
BRANCH  29  30
ATOM     30  C   UNL     1      -8.659   1.323 123.404  0.00  0.00    +0.000 C 
BRANCH  30  31
ATOM     31  C   UNL     1      -7.616   0.417 124.021  0.00  0.00    +0.000 A 
ATOM     32  C   UNL     1      -7.053   0.761 125.254  0.00  0.00    +0.000 A 
ATOM     33  C   UNL     1      -6.040  -0.021 125.812  0.00  0.00    +0.000 A 
ATOM     34  C   UNL     1      -5.510  -1.094 125.096  0.00  0.00    +0.000 A 
ATOM     35  C   UNL     1      -6.081  -1.458 123.882  0.00  0.00    +0.000 A 
ATOM     36 CL   UNL     1      -5.403  -2.744 122.959  0.00  0.00    +0.000 Cl
ATOM     37  C   UNL     1      -7.177  -0.760 123.388  0.00  0.00    +0.000 A 
ENDBRANCH  30  31
ENDBRANCH  29  30
ENDBRANCH  27  29
ENDBRANCH  24  25
ENDBRANCH  10  24
TORSDOF 7
ENDMDL
MODEL 9
REMARK VINA RESULT:      -8.2      3.840      7.677
REMARK  Name = CHEMBL24074
REMARK  8 active torsions:
REMARK  status: ('A' for Active; 'I' for Inactive)
REMARK    1  A    between atoms: C_1  and  C_2
REMARK    2  A    between atoms: N_4  and  C_5
REMARK    3  A    between atoms: C_7  and  C_8
REMARK    4  A    between atoms: N_20  and  C_21
REMARK    5  A    between atoms: C_21  and  C_22
REMARK    6  A    between atoms: N_24  and  C_25
REMARK    7  A    between atoms: C_25  and  C_26
REMARK    8  A    between atoms: C_26  and  C_27
REMARK                            x       y       z     vdW  Elec       q    Type
REMARK                         _______ _______ _______ _____ _____    ______ ____
ROOT
ATOM      1  C   UNL     1      -7.303   1.786 127.715  0.00  0.00    +0.000 C 
ATOM      2  N   UNL     1      -7.080   0.486 127.098  0.00  0.00    +0.000 NA
ATOM      3  C   UNL     1      -6.820   0.410 125.840  0.00  0.00    +0.000 C 
ATOM      4  C   UNL     1      -6.616   1.580 124.937  0.00  0.00    +0.000 A 
ATOM      5  C   UNL     1      -7.012   1.454 123.593  0.00  0.00    +0.000 A 
ATOM      6  C   UNL     1      -6.740   2.463 122.670  0.00  0.00    +0.000 A 
ATOM      7  C   UNL     1      -6.144   3.640 123.094  0.00  0.00    +0.000 A 
ATOM      8  C   UNL     1      -5.818   3.807 124.439  0.00  0.00    +0.000 A 
ATOM      9  C   UNL     1      -5.956   2.751 125.359  0.00  0.00    +0.000 A 
ATOM     10  N   UNL     1      -5.298   2.865 126.624  0.00  0.00    +0.000 N 
ATOM     11  C   UNL     1      -5.916   2.496 127.823  0.00  0.00    +0.000 C 
ATOM     12  O   UNL     1      -5.410   2.769 128.919  0.00  0.00    +0.000 OA
ENDROOT
BRANCH   3  13
ATOM     13  C   UNL     1      -6.685  -0.959 125.264  0.00  0.00    +0.000 A 
ATOM     14  C   UNL     1      -5.441  -1.451 124.852  0.00  0.00    +0.000 A 
ATOM     15  C   UNL     1      -5.368  -2.704 124.233  0.00  0.00    +0.000 A 
ATOM     16  C   UNL     1      -6.516  -3.489 124.104  0.00  0.00    +0.000 A 
ATOM     17  C   UNL     1      -7.737  -3.030 124.601  0.00  0.00    +0.000 A 
ATOM     18  C   UNL     1      -7.833  -1.746 125.135  0.00  0.00    +0.000 A 
ENDBRANCH   3  13
BRANCH   1  22
ATOM     19  C   UNL     1      -9.253   2.046 130.979  0.00  0.00    +0.000 C 
ATOM     20  C   UNL     1      -8.771   2.436 129.606  0.00  0.00    +0.000 C 
ATOM     21  O   UNL     1      -9.183   3.465 129.074  0.00  0.00    +0.000 OA
ATOM     22  N   UNL     1      -7.861   1.574 129.042  0.00  0.00    +0.000 N 
ATOM     23  H   UNL     1      -7.493   0.790 129.566  0.00  0.00    +0.000 HD
ENDBRANCH   1  22
BRANCH  10  24
ATOM     24  C   UNL     1      -3.916   3.410 126.695  0.00  0.00    +0.000 C 
BRANCH  24  25
ATOM     25  C   UNL     1      -3.717   4.853 127.207  0.00  0.00    +0.000 C 
ATOM     26  O   UNL     1      -4.617   5.703 127.204  0.00  0.00    +0.000 OA
ATOM     27  N   UNL     1      -2.468   5.204 127.673  0.00  0.00    +0.000 N 
ATOM     28  H   UNL     1      -1.643   4.768 127.275  0.00  0.00    +0.000 HD
BRANCH  27  29
ATOM     29  C   UNL     1      -2.375   6.497 128.319  0.00  0.00    +0.000 C 
BRANCH  29  30
ATOM     30  C   UNL     1      -1.787   6.478 129.720  0.00  0.00    +0.000 C 
BRANCH  30  31
ATOM     31  C   UNL     1      -2.866   6.479 130.782  0.00  0.00    +0.000 A 
ATOM     32  C   UNL     1      -2.579   5.965 132.050  0.00  0.00    +0.000 A 
ATOM     33  C   UNL     1      -3.576   5.890 133.024  0.00  0.00    +0.000 A 
ATOM     34  C   UNL     1      -4.891   6.234 132.708  0.00  0.00    +0.000 A 
ATOM     35  C   UNL     1      -5.178   6.770 131.459  0.00  0.00    +0.000 A 
ATOM     36 CL   UNL     1      -6.804   7.146 131.034  0.00  0.00    +0.000 Cl
ATOM     37  C   UNL     1      -4.161   6.968 130.532  0.00  0.00    +0.000 A 
ENDBRANCH  30  31
ENDBRANCH  29  30
ENDBRANCH  27  29
ENDBRANCH  24  25
ENDBRANCH  10  24
TORSDOF 7
ENDMDL
