MODEL 1
REMARK VINA RESULT:      -9.9      0.000      0.000
REMARK  Name = CHEMBL221436
REMARK  20 active torsions:
REMARK  status: ('A' for Active; 'I' for Inactive)
REMARK    1  A    between atoms: C_1  and  C_2
REMARK    2  A    between atoms: C_2  and  C_3
REMARK    3  A    between atoms: C_2  and  C_4
REMARK    4  A    between atoms: C_8  and  C_9
REMARK    5  A    between atoms: C_9  and  C_10
REMARK    6  A    between atoms: C_19  and  C_20
REMARK    7  A    between atoms: C_20  and  C_21
REMARK    8  A    between atoms: C_24  and  O_25
REMARK    9  A    between atoms: C_36  and  C_37
REMARK   10  A    between atoms: C_43  and  C_44
REMARK   11  A    between atoms: N_46  and  C_47
REMARK   12  A    between atoms: C_47  and  C_48
REMARK   13  A    between atoms: C_47  and  C_55
REMARK   14  A    between atoms: C_48  and  C_49
REMARK   15  A    between atoms: C_49  and  C_50
REMARK   16  A    between atoms: C_50  and  N_51
REMARK   17  A    between atoms: N_57  and  C_58
REMARK   18  A    between atoms: C_58  and  C_59
REMARK   19  A    between atoms: C_65  and  C_66
REMARK   20  A    between atoms: C_66  and  C_67
REMARK                            x       y       z     vdW  Elec       q    Type
REMARK                         _______ _______ _______ _____ _____    ______ ____
ROOT
ATOM      1  C   UNL     1      -6.823   3.453 126.127  0.00  0.00    +0.000 C 
ATOM      2  N   UNL     1      -8.116   2.672 126.061  0.00  0.00    +0.000 N 
ATOM      3  C   UNL     1      -8.329   1.395 126.574  0.00  0.00    +0.000 C 
ATOM      4  O   UNL     1      -9.309   1.124 127.288  0.00  0.00    +0.000 OA
ATOM      5  C   UNL     1      -7.390   0.332 126.058  0.00  0.00    +0.000 C 
ATOM      6  N   UNL     1      -6.247   0.131 126.907  0.00  0.00    +0.000 N 
ATOM      7  C   UNL     1      -6.146  -0.767 127.929  0.00  0.00    +0.000 C 
ATOM      8  O   UNL     1      -5.012  -1.265 128.004  0.00  0.00    +0.000 OA
ATOM      9  C   UNL     1      -7.418  -1.173 128.968  0.00  0.00    +0.000 C 
ATOM     10  N   UNL     1      -7.175  -2.569 129.156  0.00  0.00    +0.000 N 
ATOM     11  C   UNL     1      -6.193  -3.076 129.944  0.00  0.00    +0.000 C 
ATOM     12  O   UNL     1      -6.176  -4.309 130.047  0.00  0.00    +0.000 OA
ATOM     13  C   UNL     1      -5.135  -2.214 130.710  0.00  0.00    +0.000 C 
ATOM     14  C   UNL     1      -5.053  -0.678 130.734  0.00  0.00    +0.000 C 
ATOM     15  S   UNL     1      -3.708   0.212 131.573  0.00  0.00    +0.000 S 
ATOM     16  S   UNL     1      -4.713   2.028 131.861  0.00  0.00    +0.000 S 
ATOM     17  C   UNL     1      -3.483   3.333 131.553  0.00  0.00    +0.000 C 
ATOM     18  C   UNL     1      -3.894   4.799 131.393  0.00  0.00    +0.000 C 
ATOM     19  N   UNL     1      -3.863   5.233 130.004  0.00  0.00    +0.000 N 
ATOM     20  C   UNL     1      -4.799   5.098 129.089  0.00  0.00    +0.000 C 
ATOM     21  O   UNL     1      -4.675   5.866 128.085  0.00  0.00    +0.000 OA
ATOM     22  C   UNL     1      -5.689   3.926 129.041  0.00  0.00    +0.000 C 
ATOM     23  N   UNL     1      -6.767   4.627 128.214  0.00  0.00    +0.000 N 
ATOM     24  C   UNL     1      -7.295   4.566 126.983  0.00  0.00    +0.000 C 
ATOM     25  O   UNL     1      -8.413   5.084 126.848  0.00  0.00    +0.000 OA
ATOM     26  H   UNL     1      -8.925   3.218 126.393  0.00  0.00    +0.000 HD
ATOM     27  H   UNL     1      -5.339   0.333 126.476  0.00  0.00    +0.000 HD
ATOM     28  H   UNL     1      -7.793  -3.235 128.703  0.00  0.00    +0.000 HD
ATOM     29  H   UNL     1      -3.220   5.988 129.762  0.00  0.00    +0.000 HD
ATOM     30  H   UNL     1      -7.651   4.788 128.650  0.00  0.00    +0.000 HD
ENDROOT
BRANCH  18  31
ATOM     31  C   UNL     1      -2.942   5.806 132.121  0.00  0.00    +0.000 C 
ATOM     32  O   UNL     1      -2.093   6.436 131.475  0.00  0.00    +0.000 OA
ATOM     33  N   UNL     1      -3.226   6.097 133.437  0.00  0.00    +0.000 N 
ATOM     34  C   UNL     1      -3.499   5.167 134.512  0.00  0.00    +0.000 C 
ATOM     35  C   UNL     1      -4.398   5.971 135.393  0.00  0.00    +0.000 C 
ATOM     36  C   UNL     1      -3.696   7.311 135.417  0.00  0.00    +0.000 C 
ATOM     37  C   UNL     1      -2.991   7.422 134.049  0.00  0.00    +0.000 C 
BRANCH  37  38
ATOM     38  C   UNL     1      -1.516   7.679 134.391  0.00  0.00    +0.000 C 
ATOM     39  O   UNL     1      -0.704   6.753 134.405  0.00  0.00    +0.000 OA
ATOM     40  N   UNL     1      -1.176   8.975 134.756  0.00  0.00    +0.000 N 
ATOM     41  H   UNL     1      -1.891   9.637 135.045  0.00  0.00    +0.000 HD
BRANCH  40  42
ATOM     42  C   UNL     1       0.225   9.408 134.932  0.00  0.00    +0.000 C 
BRANCH  42  43
ATOM     43  C   UNL     1       0.773   8.955 136.330  0.00  0.00    +0.000 C 
ATOM     44  O   UNL     1       0.380   9.470 137.375  0.00  0.00    +0.000 OA
ATOM     45  N   UNL     1       1.714   7.941 136.309  0.00  0.00    +0.000 N 
ATOM     46  H   UNL     1       1.975   7.536 135.427  0.00  0.00    +0.000 HD
BRANCH  45  47
ATOM     47  C   UNL     1       2.341   7.424 137.530  0.00  0.00    +0.000 C 
BRANCH  47  48
ATOM     48  C   UNL     1       3.612   6.573 137.343  0.00  0.00    +0.000 C 
ATOM     49  N   UNL     1       4.484   6.470 138.390  0.00  0.00    +0.000 N 
ATOM     50  O   UNL     1       3.866   5.986 136.294  0.00  0.00    +0.000 OA
ATOM     51  H   UNL     1       4.386   6.902 139.289  0.00  0.00    +0.000 HD
ATOM     52  H   UNL     1       5.312   5.905 138.239  0.00  0.00    +0.000 HD
ENDBRANCH  47  48
ENDBRANCH  45  47
ENDBRANCH  42  43
BRANCH  42  53
ATOM     53  C   UNL     1       0.336  10.945 134.801  0.00  0.00    +0.000 C 
BRANCH  53  54
ATOM     54  C   UNL     1      -1.021  11.648 134.895  0.00  0.00    +0.000 C 
BRANCH  54  55
ATOM     55  C   UNL     1      -1.218  12.777 133.920  0.00  0.00    +0.000 C 
BRANCH  55  56
ATOM     56  N   UNL     1      -0.155  12.805 132.929  0.00  0.00    +0.000 N 
ATOM     57  C   UNL     1      -0.392  13.023 131.620  0.00  0.00    +0.000 C 
ATOM     58  N   UNL     1      -1.537  13.317 131.112  0.00  0.00    +0.000 NA
ATOM     59  N   UNL     1       0.660  12.939 130.802  0.00  0.00    +0.000 N 
ATOM     60  H   UNL     1       0.735  12.397 133.200  0.00  0.00    +0.000 HD
ATOM     61  H   UNL     1      -2.228  13.329 131.859  0.00  0.00    +0.000 HD
ATOM     62  H   UNL     1       1.608  12.775 131.090  0.00  0.00    +0.000 HD
ATOM     63  H   UNL     1       0.477  13.196 129.840  0.00  0.00    +0.000 HD
ENDBRANCH  55  56
ENDBRANCH  54  55
ENDBRANCH  53  54
ENDBRANCH  42  53
ENDBRANCH  40  42
ENDBRANCH  37  38
ENDBRANCH  18  31
BRANCH   1  65
ATOM     64  C   UNL     1      -6.015   5.482 124.908  0.00  0.00    +0.000 C 
ATOM     65  C   UNL     1      -5.932   3.955 124.974  0.00  0.00    +0.000 C 
ATOM     66  C   UNL     1      -6.355   3.502 123.542  0.00  0.00    +0.000 C 
ENDBRANCH   1  65
BRANCH   9  67
ATOM     67  C   UNL     1      -7.960  -0.604 130.412  0.00  0.00    +0.000 C 
BRANCH  67  68
ATOM     68  C   UNL     1      -8.574   0.757 130.479  0.00  0.00    +0.000 A 
ATOM     69  C   UNL     1      -9.396   0.862 131.511  0.00  0.00    +0.000 A 
ATOM     70  C   UNL     1      -9.828   2.057 131.996  0.00  0.00    +0.000 A 
ATOM     71  C   UNL     1      -9.801   3.226 131.281  0.00  0.00    +0.000 A 
ATOM     72  C   UNL     1      -9.158   3.122 130.082  0.00  0.00    +0.000 A 
ATOM     73  C   UNL     1      -8.474   1.921 129.716  0.00  0.00    +0.000 A 
BRANCH  71  74
ATOM     74  O   UNL     1     -10.503   4.378 131.520  0.00  0.00    +0.000 OA
ATOM     75  H   UNL     1     -11.447   4.456 131.767  0.00  0.00    +0.000 HD
ENDBRANCH  71  74
ENDBRANCH  67  68
ENDBRANCH   9  67
BRANCH   5  76
ATOM     76  C   UNL     1      -8.087  -0.962 125.674  0.00  0.00    +0.000 C 
BRANCH  76  77
ATOM     77  C   UNL     1      -7.341  -1.786 124.660  0.00  0.00    +0.000 A 
ATOM     78  C   UNL     1      -6.666  -2.983 124.959  0.00  0.00    +0.000 A 
ATOM     79  C   UNL     1      -5.671  -3.486 124.154  0.00  0.00    +0.000 A 
ATOM     80  C   UNL     1      -5.574  -2.983 122.879  0.00  0.00    +0.000 A 
ATOM     81  C   UNL     1      -6.350  -1.885 122.492  0.00  0.00    +0.000 A 
ATOM     82  C   UNL     1      -7.188  -1.247 123.395  0.00  0.00    +0.000 A 
ENDBRANCH  76  77
ENDBRANCH   5  76
BRANCH  22  83
ATOM     83  C   UNL     1      -5.035   2.583 128.612  0.00  0.00    +0.000 C 
BRANCH  83  84
ATOM     84  C   UNL     1      -3.729   2.551 127.865  0.00  0.00    +0.000 C 
ATOM     85  N   UNL     1      -3.705   1.980 126.635  0.00  0.00    +0.000 N 
ATOM     86  O   UNL     1      -2.719   3.027 128.336  0.00  0.00    +0.000 OA
ATOM     87  H   UNL     1      -4.329   1.218 126.424  0.00  0.00    +0.000 HD
ATOM     88  H   UNL     1      -2.787   1.704 126.332  0.00  0.00    +0.000 HD
ENDBRANCH  83  84
ENDBRANCH  22  83
TORSDOF 18
ENDMDL
MODEL 2
REMARK VINA RESULT:      -9.8      1.809      2.605
REMARK  Name = CHEMBL221436
REMARK  20 active torsions:
REMARK  status: ('A' for Active; 'I' for Inactive)
REMARK    1  A    between atoms: C_1  and  C_2
REMARK    2  A    between atoms: C_2  and  C_3
REMARK    3  A    between atoms: C_2  and  C_4
REMARK    4  A    between atoms: C_8  and  C_9
REMARK    5  A    between atoms: C_9  and  C_10
REMARK    6  A    between atoms: C_19  and  C_20
REMARK    7  A    between atoms: C_20  and  C_21
REMARK    8  A    between atoms: C_24  and  O_25
REMARK    9  A    between atoms: C_36  and  C_37
REMARK   10  A    between atoms: C_43  and  C_44
REMARK   11  A    between atoms: N_46  and  C_47
REMARK   12  A    between atoms: C_47  and  C_48
REMARK   13  A    between atoms: C_47  and  C_55
REMARK   14  A    between atoms: C_48  and  C_49
REMARK   15  A    between atoms: C_49  and  C_50
REMARK   16  A    between atoms: C_50  and  N_51
REMARK   17  A    between atoms: N_57  and  C_58
REMARK   18  A    between atoms: C_58  and  C_59
REMARK   19  A    between atoms: C_65  and  C_66
REMARK   20  A    between atoms: C_66  and  C_67
REMARK                            x       y       z     vdW  Elec       q    Type
REMARK                         _______ _______ _______ _____ _____    ______ ____
ROOT
ATOM      1  C   UNL     1      -6.805   3.233 126.238  0.00  0.00    +0.000 C 
ATOM      2  N   UNL     1      -8.123   2.497 126.332  0.00  0.00    +0.000 N 
ATOM      3  C   UNL     1      -8.358   1.325 127.046  0.00  0.00    +0.000 C 
ATOM      4  O   UNL     1      -9.323   1.204 127.820  0.00  0.00    +0.000 OA
ATOM      5  C   UNL     1      -7.469   0.162 126.680  0.00  0.00    +0.000 C 
ATOM      6  N   UNL     1      -6.305   0.058 127.519  0.00  0.00    +0.000 N 
ATOM      7  C   UNL     1      -6.199  -0.672 128.668  0.00  0.00    +0.000 C 
ATOM      8  O   UNL     1      -5.079  -1.190 128.790  0.00  0.00    +0.000 OA
ATOM      9  C   UNL     1      -7.449  -0.864 129.792  0.00  0.00    +0.000 C 
ATOM     10  N   UNL     1      -7.242  -2.221 130.192  0.00  0.00    +0.000 N 
ATOM     11  C   UNL     1      -6.252  -2.631 131.023  0.00  0.00    +0.000 C 
ATOM     12  O   UNL     1      -6.268  -3.833 131.320  0.00  0.00    +0.000 OA
ATOM     13  C   UNL     1      -5.144  -1.697 131.615  0.00  0.00    +0.000 C 
ATOM     14  C   UNL     1      -5.015  -0.180 131.393  0.00  0.00    +0.000 C 
ATOM     15  S   UNL     1      -3.618   0.784 132.044  0.00  0.00    +0.000 S 
ATOM     16  S   UNL     1      -4.558   2.656 132.067  0.00  0.00    +0.000 S 
ATOM     17  C   UNL     1      -3.300   3.853 131.524  0.00  0.00    +0.000 C 
ATOM     18  C   UNL     1      -3.671   5.289 131.144  0.00  0.00    +0.000 C 
ATOM     19  N   UNL     1      -3.671   5.497 129.703  0.00  0.00    +0.000 N 
ATOM     20  C   UNL     1      -4.640   5.253 128.847  0.00  0.00    +0.000 C 
ATOM     21  O   UNL     1      -4.525   5.848 127.731  0.00  0.00    +0.000 OA
ATOM     22  C   UNL     1      -5.565   4.120 129.009  0.00  0.00    +0.000 C 
ATOM     23  N   UNL     1      -6.648   4.719 128.111  0.00  0.00    +0.000 N 
ATOM     24  C   UNL     1      -7.216   4.483 126.919  0.00  0.00    +0.000 C 
ATOM     25  O   UNL     1      -8.321   5.012 126.734  0.00  0.00    +0.000 OA
ATOM     26  H   UNL     1      -8.904   3.116 126.595  0.00  0.00    +0.000 HD
ATOM     27  H   UNL     1      -5.407   0.157 127.037  0.00  0.00    +0.000 HD
ATOM     28  H   UNL     1      -7.894  -2.928 129.867  0.00  0.00    +0.000 HD
ATOM     29  H   UNL     1      -3.014   6.182 129.328  0.00  0.00    +0.000 HD
ATOM     30  H   UNL     1      -7.512   4.977 128.539  0.00  0.00    +0.000 HD
ENDROOT
BRANCH  18  31
ATOM     31  C   UNL     1      -2.666   6.364 131.678  0.00  0.00    +0.000 C 
ATOM     32  O   UNL     1      -1.885   6.927 130.897  0.00  0.00    +0.000 OA
ATOM     33  N   UNL     1      -2.832   6.785 132.979  0.00  0.00    +0.000 N 
ATOM     34  C   UNL     1      -2.997   5.968 134.162  0.00  0.00    +0.000 C 
ATOM     35  C   UNL     1      -3.820   6.857 135.037  0.00  0.00    +0.000 C 
ATOM     36  C   UNL     1      -3.131   8.192 134.862  0.00  0.00    +0.000 C 
ATOM     37  C   UNL     1      -2.555   8.166 133.431  0.00  0.00    +0.000 C 
BRANCH  37  38
ATOM     38  C   UNL     1      -1.056   8.456 133.609  0.00  0.00    +0.000 C 
ATOM     39  O   UNL     1      -0.221   7.568 133.438  0.00  0.00    +0.000 OA
ATOM     40  N   UNL     1      -0.715   9.729 134.046  0.00  0.00    +0.000 N 
ATOM     41  H   UNL     1      -1.408  10.332 134.482  0.00  0.00    +0.000 HD
BRANCH  40  42
ATOM     42  C   UNL     1       0.682  10.206 134.086  0.00  0.00    +0.000 C 
BRANCH  42  43
ATOM     43  C   UNL     1       0.834  11.391 135.102  0.00  0.00    +0.000 C 
ATOM     44  O   UNL     1       1.934  11.740 135.527  0.00  0.00    +0.000 OA
ATOM     45  N   UNL     1      -0.341  12.018 135.477  0.00  0.00    +0.000 N 
ATOM     46  H   UNL     1      -1.208  11.710 135.073  0.00  0.00    +0.000 HD
BRANCH  45  47
ATOM     47  C   UNL     1      -0.370  13.124 136.438  0.00  0.00    +0.000 C 
BRANCH  47  48
ATOM     48  C   UNL     1      -0.076  14.530 135.879  0.00  0.00    +0.000 C 
ATOM     49  N   UNL     1       1.225  14.880 135.653  0.00  0.00    +0.000 N 
ATOM     50  O   UNL     1      -0.965  15.341 135.631  0.00  0.00    +0.000 OA
ATOM     51  H   UNL     1       2.032  14.307 135.818  0.00  0.00    +0.000 HD
ATOM     52  H   UNL     1       1.389  15.811 135.287  0.00  0.00    +0.000 HD
ENDBRANCH  47  48
ENDBRANCH  45  47
ENDBRANCH  42  43
BRANCH  42  53
ATOM     53  C   UNL     1       1.138  10.661 132.680  0.00  0.00    +0.000 C 
BRANCH  53  54
ATOM     54  C   UNL     1       0.981  12.170 132.465  0.00  0.00    +0.000 C 
BRANCH  54  55
ATOM     55  C   UNL     1      -0.202  12.569 131.627  0.00  0.00    +0.000 C 
BRANCH  55  56
ATOM     56  N   UNL     1      -1.005  13.577 132.301  0.00  0.00    +0.000 N 
ATOM     57  C   UNL     1      -2.142  13.275 132.959  0.00  0.00    +0.000 C 
ATOM     58  N   UNL     1      -2.597  12.087 133.150  0.00  0.00    +0.000 NA
ATOM     59  N   UNL     1      -2.831  14.304 133.461  0.00  0.00    +0.000 N 
ATOM     60  H   UNL     1      -0.835  14.545 132.043  0.00  0.00    +0.000 HD
ATOM     61  H   UNL     1      -1.969  11.425 132.697  0.00  0.00    +0.000 HD
ATOM     62  H   UNL     1      -2.546  15.266 133.427  0.00  0.00    +0.000 HD
ATOM     63  H   UNL     1      -3.630  14.048 134.029  0.00  0.00    +0.000 HD
ENDBRANCH  55  56
ENDBRANCH  54  55
ENDBRANCH  53  54
ENDBRANCH  42  53
ENDBRANCH  40  42
ENDBRANCH  37  38
ENDBRANCH  18  31
BRANCH   1  65
ATOM     64  C   UNL     1      -5.983   5.014 124.687  0.00  0.00    +0.000 C 
ATOM     65  C   UNL     1      -5.937   3.516 124.997  0.00  0.00    +0.000 C 
ATOM     66  C   UNL     1      -6.415   2.851 123.669  0.00  0.00    +0.000 C 
ENDBRANCH   1  65
BRANCH   9  67
ATOM     67  C   UNL     1      -7.927  -0.056 131.141  0.00  0.00    +0.000 C 
BRANCH  67  68
ATOM     68  C   UNL     1      -8.559   1.291 131.003  0.00  0.00    +0.000 A 
ATOM     69  C   UNL     1      -9.694   1.360 131.680  0.00  0.00    +0.000 A 
ATOM     70  C   UNL     1     -10.298   2.537 131.995  0.00  0.00    +0.000 A 
ATOM     71  C   UNL     1     -10.051   3.720 131.348  0.00  0.00    +0.000 A 
ATOM     72  C   UNL     1      -9.024   3.651 130.452  0.00  0.00    +0.000 A 
ATOM     73  C   UNL     1      -8.226   2.471 130.337  0.00  0.00    +0.000 A 
BRANCH  71  74
ATOM     74  O   UNL     1     -10.820   4.854 131.338  0.00  0.00    +0.000 OA
ATOM     75  H   UNL     1     -11.038   5.428 132.100  0.00  0.00    +0.000 HD
ENDBRANCH  71  74
ENDBRANCH  67  68
ENDBRANCH   9  67
BRANCH   5  76
ATOM     76  C   UNL     1      -8.216  -1.152 126.525  0.00  0.00    +0.000 C 
BRANCH  76  77
ATOM     77  C   UNL     1      -8.159  -1.732 125.139  0.00  0.00    +0.000 A 
ATOM     78  C   UNL     1      -7.308  -1.265 124.122  0.00  0.00    +0.000 A 
ATOM     79  C   UNL     1      -7.551  -1.506 122.790  0.00  0.00    +0.000 A 
ATOM     80  C   UNL     1      -8.454  -2.496 122.482  0.00  0.00    +0.000 A 
ATOM     81  C   UNL     1      -9.212  -3.101 123.491  0.00  0.00    +0.000 A 
ATOM     82  C   UNL     1      -9.112  -2.680 124.810  0.00  0.00    +0.000 A 
ENDBRANCH  76  77
ENDBRANCH   5  76
BRANCH  22  83
ATOM     83  C   UNL     1      -4.966   2.703 128.781  0.00  0.00    +0.000 C 
BRANCH  83  84
ATOM     84  C   UNL     1      -3.702   2.506 127.988  0.00  0.00    +0.000 C 
ATOM     85  N   UNL     1      -3.771   1.795 126.836  0.00  0.00    +0.000 N 
ATOM     86  O   UNL     1      -2.646   2.972 128.355  0.00  0.00    +0.000 OA
ATOM     87  H   UNL     1      -4.445   1.052 126.744  0.00  0.00    +0.000 HD
ATOM     88  H   UNL     1      -2.885   1.431 126.528  0.00  0.00    +0.000 HD
ENDBRANCH  83  84
ENDBRANCH  22  83
TORSDOF 18
ENDMDL
MODEL 3
REMARK VINA RESULT:      -9.6      2.083      3.496
REMARK  Name = CHEMBL221436
REMARK  20 active torsions:
REMARK  status: ('A' for Active; 'I' for Inactive)
REMARK    1  A    between atoms: C_1  and  C_2
REMARK    2  A    between atoms: C_2  and  C_3
REMARK    3  A    between atoms: C_2  and  C_4
REMARK    4  A    between atoms: C_8  and  C_9
REMARK    5  A    between atoms: C_9  and  C_10
REMARK    6  A    between atoms: C_19  and  C_20
REMARK    7  A    between atoms: C_20  and  C_21
REMARK    8  A    between atoms: C_24  and  O_25
REMARK    9  A    between atoms: C_36  and  C_37
REMARK   10  A    between atoms: C_43  and  C_44
REMARK   11  A    between atoms: N_46  and  C_47
REMARK   12  A    between atoms: C_47  and  C_48
REMARK   13  A    between atoms: C_47  and  C_55
REMARK   14  A    between atoms: C_48  and  C_49
REMARK   15  A    between atoms: C_49  and  C_50
REMARK   16  A    between atoms: C_50  and  N_51
REMARK   17  A    between atoms: N_57  and  C_58
REMARK   18  A    between atoms: C_58  and  C_59
REMARK   19  A    between atoms: C_65  and  C_66
REMARK   20  A    between atoms: C_66  and  C_67
REMARK                            x       y       z     vdW  Elec       q    Type
REMARK                         _______ _______ _______ _____ _____    ______ ____
ROOT
ATOM      1  C   UNL     1      -6.653   3.586 126.956  0.00  0.00    +0.000 C 
ATOM      2  N   UNL     1      -7.803   2.664 126.616  0.00  0.00    +0.000 N 
ATOM      3  C   UNL     1      -7.963   1.355 127.061  0.00  0.00    +0.000 C 
ATOM      4  O   UNL     1      -9.030   0.949 127.553  0.00  0.00    +0.000 OA
ATOM      5  C   UNL     1      -6.819   0.425 126.740  0.00  0.00    +0.000 C 
ATOM      6  N   UNL     1      -5.858   0.327 127.806  0.00  0.00    +0.000 N 
ATOM      7  C   UNL     1      -5.863  -0.589 128.818  0.00  0.00    +0.000 C 
ATOM      8  O   UNL     1      -4.717  -0.956 129.121  0.00  0.00    +0.000 OA
ATOM      9  C   UNL     1      -7.263  -1.173 129.566  0.00  0.00    +0.000 C 
ATOM     10  N   UNL     1      -6.899  -2.538 129.787  0.00  0.00    +0.000 N 
ATOM     11  C   UNL     1      -6.047  -2.956 130.755  0.00  0.00    +0.000 C 
ATOM     12  O   UNL     1      -5.904  -4.182 130.848  0.00  0.00    +0.000 OA
ATOM     13  C   UNL     1      -5.278  -2.005 131.733  0.00  0.00    +0.000 C 
ATOM     14  C   UNL     1      -5.387  -0.472 131.789  0.00  0.00    +0.000 C 
ATOM     15  S   UNL     1      -4.358   0.537 132.898  0.00  0.00    +0.000 S 
ATOM     16  S   UNL     1      -5.609   2.215 132.989  0.00  0.00    +0.000 S 
ATOM     17  C   UNL     1      -4.507   3.662 132.956  0.00  0.00    +0.000 C 
ATOM     18  C   UNL     1      -5.047   5.076 132.728  0.00  0.00    +0.000 C 
ATOM     19  N   UNL     1      -4.784   5.558 131.380  0.00  0.00    +0.000 N 
ATOM     20  C   UNL     1      -5.490   5.349 130.290  0.00  0.00    +0.000 C 
ATOM     21  O   UNL     1      -5.255   6.159 129.341  0.00  0.00    +0.000 OA
ATOM     22  C   UNL     1      -6.205   4.085 130.047  0.00  0.00    +0.000 C 
ATOM     23  N   UNL     1      -7.167   4.686 129.021  0.00  0.00    +0.000 N 
ATOM     24  C   UNL     1      -7.419   4.608 127.706  0.00  0.00    +0.000 C 
ATOM     25  O   UNL     1      -8.539   4.998 127.348  0.00  0.00    +0.000 OA
ATOM     26  H   UNL     1      -8.722   3.103 126.778  0.00  0.00    +0.000 HD
ATOM     27  H   UNL     1      -4.912   0.645 127.574  0.00  0.00    +0.000 HD
ATOM     28  H   UNL     1      -7.328  -3.254 129.209  0.00  0.00    +0.000 HD
ATOM     29  H   UNL     1      -4.199   6.390 131.285  0.00  0.00    +0.000 HD
ATOM     30  H   UNL     1      -8.133   4.730 129.266  0.00  0.00    +0.000 HD
ENDROOT
BRANCH  18  31
ATOM     31  C   UNL     1      -4.391   6.160 133.648  0.00  0.00    +0.000 C 
ATOM     32  O   UNL     1      -3.923   7.195 133.152  0.00  0.00    +0.000 OA
ATOM     33  N   UNL     1      -4.542   6.001 135.008  0.00  0.00    +0.000 N 
ATOM     34  C   UNL     1      -4.305   4.809 135.794  0.00  0.00    +0.000 C 
ATOM     35  C   UNL     1      -5.270   4.987 136.920  0.00  0.00    +0.000 C 
ATOM     36  C   UNL     1      -5.073   6.444 137.274  0.00  0.00    +0.000 C 
ATOM     37  C   UNL     1      -4.677   7.132 135.951  0.00  0.00    +0.000 C 
BRANCH  37  38
ATOM     38  C   UNL     1      -3.343   7.829 136.258  0.00  0.00    +0.000 C 
ATOM     39  O   UNL     1      -2.588   7.387 137.125  0.00  0.00    +0.000 OA
ATOM     40  N   UNL     1      -3.082   9.007 135.572  0.00  0.00    +0.000 N 
ATOM     41  H   UNL     1      -3.832   9.518 135.113  0.00  0.00    +0.000 HD
BRANCH  40  42
ATOM     42  C   UNL     1      -1.771   9.685 135.627  0.00  0.00    +0.000 C 
BRANCH  42  43
ATOM     43  C   UNL     1      -1.950  11.242 135.598  0.00  0.00    +0.000 C 
ATOM     44  O   UNL     1      -2.547  11.841 136.490  0.00  0.00    +0.000 OA
ATOM     45  N   UNL     1      -1.387  11.894 134.514  0.00  0.00    +0.000 N 
ATOM     46  H   UNL     1      -0.883  11.356 133.831  0.00  0.00    +0.000 HD
BRANCH  45  47
ATOM     47  C   UNL     1      -1.491  13.344 134.328  0.00  0.00    +0.000 C 
BRANCH  47  48
ATOM     48  C   UNL     1      -2.023  13.827 132.964  0.00  0.00    +0.000 C 
ATOM     49  N   UNL     1      -3.255  14.416 132.921  0.00  0.00    +0.000 N 
ATOM     50  O   UNL     1      -1.383  13.702 131.924  0.00  0.00    +0.000 OA
ATOM     51  H   UNL     1      -3.868  14.572 133.699  0.00  0.00    +0.000 HD
ATOM     52  H   UNL     1      -3.581  14.723 132.011  0.00  0.00    +0.000 HD
ENDBRANCH  47  48
ENDBRANCH  45  47
ENDBRANCH  42  43
BRANCH  42  53
ATOM     53  C   UNL     1      -0.882   9.239 134.443  0.00  0.00    +0.000 C 
BRANCH  53  54
ATOM     54  C   UNL     1       0.073   8.100 134.813  0.00  0.00    +0.000 C 
BRANCH  54  55
ATOM     55  C   UNL     1      -0.166   6.810 134.077  0.00  0.00    +0.000 C 
BRANCH  55  56
ATOM     56  N   UNL     1      -0.738   7.054 132.763  0.00  0.00    +0.000 N 
ATOM     57  C   UNL     1      -1.195   6.058 131.977  0.00  0.00    +0.000 C 
ATOM     58  N   UNL     1      -1.267   4.820 132.314  0.00  0.00    +0.000 NA
ATOM     59  N   UNL     1      -1.617   6.408 130.759  0.00  0.00    +0.000 N 
ATOM     60  H   UNL     1      -0.547   7.958 132.340  0.00  0.00    +0.000 HD
ATOM     61  H   UNL     1      -0.897   4.720 133.258  0.00  0.00    +0.000 HD
ATOM     62  H   UNL     1      -1.664   7.347 130.407  0.00  0.00    +0.000 HD
ATOM     63  H   UNL     1      -2.040   5.661 130.221  0.00  0.00    +0.000 HD
ENDBRANCH  55  56
ENDBRANCH  54  55
ENDBRANCH  53  54
ENDBRANCH  42  53
ENDBRANCH  40  42
ENDBRANCH  37  38
ENDBRANCH  18  31
BRANCH   1  65
ATOM     64  C   UNL     1      -6.312   4.701 124.743  0.00  0.00    +0.000 C 
ATOM     65  C   UNL     1      -5.611   4.226 126.018  0.00  0.00    +0.000 C 
ATOM     66  C   UNL     1      -4.496   3.270 125.490  0.00  0.00    +0.000 C 
ENDBRANCH   1  65
BRANCH   9  67
ATOM     67  C   UNL     1      -8.153  -0.719 130.872  0.00  0.00    +0.000 C 
BRANCH  67  68
ATOM     68  C   UNL     1      -8.725   0.660 130.924  0.00  0.00    +0.000 A 
ATOM     69  C   UNL     1      -9.188   0.942 132.132  0.00  0.00    +0.000 A 
ATOM     70  C   UNL     1      -9.455   2.209 132.546  0.00  0.00    +0.000 A 
ATOM     71  C   UNL     1      -9.660   3.264 131.695  0.00  0.00    +0.000 A 
ATOM     72  C   UNL     1      -9.420   2.966 130.385  0.00  0.00    +0.000 A 
ATOM     73  C   UNL     1      -8.875   1.700 130.007  0.00  0.00    +0.000 A 
BRANCH  71  74
ATOM     74  O   UNL     1     -10.260   4.464 131.967  0.00  0.00    +0.000 OA
ATOM     75  H   UNL     1     -10.298   5.252 131.387  0.00  0.00    +0.000 HD
ENDBRANCH  71  74
ENDBRANCH  67  68
ENDBRANCH   9  67
BRANCH   5  76
ATOM     76  C   UNL     1      -7.263  -0.927 126.207  0.00  0.00    +0.000 C 
BRANCH  76  77
ATOM     77  C   UNL     1      -6.509  -1.387 124.990  0.00  0.00    +0.000 A 
ATOM     78  C   UNL     1      -6.753  -0.918 123.687  0.00  0.00    +0.000 A 
ATOM     79  C   UNL     1      -6.371  -1.623 122.569  0.00  0.00    +0.000 A 
ATOM     80  C   UNL     1      -5.450  -2.629 122.739  0.00  0.00    +0.000 A 
ATOM     81  C   UNL     1      -5.060  -3.020 124.024  0.00  0.00    +0.000 A 
ATOM     82  C   UNL     1      -5.631  -2.445 125.151  0.00  0.00    +0.000 A 
ENDBRANCH  76  77
ENDBRANCH   5  76
BRANCH  22  83
ATOM     83  C   UNL     1      -5.322   2.841 129.749  0.00  0.00    +0.000 C 
BRANCH  83  84
ATOM     84  C   UNL     1      -3.869   2.981 129.383  0.00  0.00    +0.000 C 
ATOM     85  N   UNL     1      -3.400   2.267 128.329  0.00  0.00    +0.000 N 
ATOM     86  O   UNL     1      -3.128   3.715 130.000  0.00  0.00    +0.000 OA
ATOM     87  H   UNL     1      -3.804   1.371 128.111  0.00  0.00    +0.000 HD
ATOM     88  H   UNL     1      -2.401   2.150 128.329  0.00  0.00    +0.000 HD
ENDBRANCH  83  84
ENDBRANCH  22  83
TORSDOF 18
ENDMDL
MODEL 4
REMARK VINA RESULT:      -9.6      4.469     12.215
REMARK  Name = CHEMBL221436
REMARK  20 active torsions:
REMARK  status: ('A' for Active; 'I' for Inactive)
REMARK    1  A    between atoms: C_1  and  C_2
REMARK    2  A    between atoms: C_2  and  C_3
REMARK    3  A    between atoms: C_2  and  C_4
REMARK    4  A    between atoms: C_8  and  C_9
REMARK    5  A    between atoms: C_9  and  C_10
REMARK    6  A    between atoms: C_19  and  C_20
REMARK    7  A    between atoms: C_20  and  C_21
REMARK    8  A    between atoms: C_24  and  O_25
REMARK    9  A    between atoms: C_36  and  C_37
REMARK   10  A    between atoms: C_43  and  C_44
REMARK   11  A    between atoms: N_46  and  C_47
REMARK   12  A    between atoms: C_47  and  C_48
REMARK   13  A    between atoms: C_47  and  C_55
REMARK   14  A    between atoms: C_48  and  C_49
REMARK   15  A    between atoms: C_49  and  C_50
REMARK   16  A    between atoms: C_50  and  N_51
REMARK   17  A    between atoms: N_57  and  C_58
REMARK   18  A    between atoms: C_58  and  C_59
REMARK   19  A    between atoms: C_65  and  C_66
REMARK   20  A    between atoms: C_66  and  C_67
REMARK                            x       y       z     vdW  Elec       q    Type
REMARK                         _______ _______ _______ _____ _____    ______ ____
ROOT
ATOM      1  C   UNL     1      -4.417   4.551 131.047  0.00  0.00    +0.000 C 
ATOM      2  N   UNL     1      -3.407   4.503 132.172  0.00  0.00    +0.000 N 
ATOM      3  C   UNL     1      -3.329   3.526 133.161  0.00  0.00    +0.000 C 
ATOM      4  O   UNL     1      -2.260   2.963 133.451  0.00  0.00    +0.000 OA
ATOM      5  C   UNL     1      -4.587   3.333 133.971  0.00  0.00    +0.000 C 
ATOM      6  N   UNL     1      -5.431   2.287 133.459  0.00  0.00    +0.000 N 
ATOM      7  C   UNL     1      -5.406   0.973 133.829  0.00  0.00    +0.000 C 
ATOM      8  O   UNL     1      -6.542   0.476 133.864  0.00  0.00    +0.000 OA
ATOM      9  C   UNL     1      -3.996   0.119 134.210  0.00  0.00    +0.000 C 
ATOM     10  N   UNL     1      -4.467  -0.710 135.276  0.00  0.00    +0.000 N 
ATOM     11  C   UNL     1      -5.245  -1.808 135.105  0.00  0.00    +0.000 C 
ATOM     12  O   UNL     1      -5.497  -2.448 136.134  0.00  0.00    +0.000 OA
ATOM     13  C   UNL     1      -5.805  -2.294 133.727  0.00  0.00    +0.000 C 
ATOM     14  C   UNL     1      -5.541  -1.649 132.355  0.00  0.00    +0.000 C 
ATOM     15  S   UNL     1      -6.338  -2.241 130.832  0.00  0.00    +0.000 S 
ATOM     16  S   UNL     1      -4.926  -1.501 129.473  0.00  0.00    +0.000 S 
ATOM     17  C   UNL     1      -5.877  -0.881 128.051  0.00  0.00    +0.000 C 
ATOM     18  C   UNL     1      -5.228  -0.014 126.970  0.00  0.00    +0.000 C 
ATOM     19  N   UNL     1      -5.589   1.391 127.098  0.00  0.00    +0.000 N 
ATOM     20  C   UNL     1      -5.030   2.307 127.859  0.00  0.00    +0.000 C 
ATOM     21  O   UNL     1      -5.286   3.505 127.523  0.00  0.00    +0.000 OA
ATOM     22  C   UNL     1      -4.474   1.995 129.185  0.00  0.00    +0.000 C 
ATOM     23  N   UNL     1      -3.575   3.231 129.233  0.00  0.00    +0.000 N 
ATOM     24  C   UNL     1      -3.477   4.382 129.915  0.00  0.00    +0.000 C 
ATOM     25  O   UNL     1      -2.370   4.938 129.878  0.00  0.00    +0.000 OA
ATOM     26  H   UNL     1      -2.437   4.604 131.837  0.00  0.00    +0.000 HD
ATOM     27  H   UNL     1      -6.361   2.585 133.149  0.00  0.00    +0.000 HD
ATOM     28  H   UNL     1      -4.176  -0.493 136.224  0.00  0.00    +0.000 HD
ATOM     29  H   UNL     1      -6.095   1.818 126.321  0.00  0.00    +0.000 HD
ATOM     30  H   UNL     1      -2.588   3.085 129.219  0.00  0.00    +0.000 HD
ENDROOT
BRANCH  18  31
ATOM     31  C   UNL     1      -5.671  -0.383 125.514  0.00  0.00    +0.000 C 
ATOM     32  O   UNL     1      -6.047   0.505 124.735  0.00  0.00    +0.000 OA
ATOM     33  N   UNL     1      -5.431  -1.673 125.095  0.00  0.00    +0.000 N 
ATOM     34  C   UNL     1      -5.747  -2.904 125.787  0.00  0.00    +0.000 C 
ATOM     35  C   UNL     1      -4.679  -3.821 125.286  0.00  0.00    +0.000 C 
ATOM     36  C   UNL     1      -4.668  -3.509 123.806  0.00  0.00    +0.000 C 
ATOM     37  C   UNL     1      -5.082  -2.027 123.702  0.00  0.00    +0.000 C 
BRANCH  37  38
ATOM     38  C   UNL     1      -6.292  -2.026 122.755  0.00  0.00    +0.000 C 
ATOM     39  O   UNL     1      -6.180  -2.419 121.593  0.00  0.00    +0.000 OA
ATOM     40  N   UNL     1      -7.472  -1.489 123.252  0.00  0.00    +0.000 N 
ATOM     41  H   UNL     1      -7.465  -0.891 124.074  0.00  0.00    +0.000 HD
BRANCH  40  42
ATOM     42  C   UNL     1      -8.755  -1.586 122.526  0.00  0.00    +0.000 C 
BRANCH  42  43
ATOM     43  C   UNL     1      -9.511  -0.213 122.550  0.00  0.00    +0.000 C 
ATOM     44  O   UNL     1     -10.701  -0.125 122.257  0.00  0.00    +0.000 OA
ATOM     45  N   UNL     1      -8.756   0.884 122.929  0.00  0.00    +0.000 N 
ATOM     46  H   UNL     1      -7.795   0.748 123.188  0.00  0.00    +0.000 HD
BRANCH  45  47
ATOM     47  C   UNL     1      -9.309   2.241 122.976  0.00  0.00    +0.000 C 
BRANCH  47  48
ATOM     48  C   UNL     1      -8.605   3.239 123.916  0.00  0.00    +0.000 C 
ATOM     49  N   UNL     1      -7.516   3.916 123.445  0.00  0.00    +0.000 N 
ATOM     50  O   UNL     1      -8.988   3.447 125.065  0.00  0.00    +0.000 OA
ATOM     51  H   UNL     1      -7.112   3.830 122.531  0.00  0.00    +0.000 HD
ATOM     52  H   UNL     1      -7.072   4.564 124.085  0.00  0.00    +0.000 HD
ENDBRANCH  47  48
ENDBRANCH  45  47
ENDBRANCH  42  43
BRANCH  42  53
ATOM     53  C   UNL     1      -9.647  -2.684 123.151  0.00  0.00    +0.000 C 
BRANCH  53  54
ATOM     54  C   UNL     1      -9.115  -3.188 124.496  0.00  0.00    +0.000 C 
BRANCH  54  55
ATOM     55  C   UNL     1      -9.795  -2.606 125.704  0.00  0.00    +0.000 C 
BRANCH  55  56
ATOM     56  N   UNL     1      -9.050  -1.475 126.232  0.00  0.00    +0.000 N 
ATOM     57  C   UNL     1      -9.464  -0.201 126.079  0.00  0.00    +0.000 C 
ATOM     58  N   UNL     1     -10.579   0.158 125.548  0.00  0.00    +0.000 NA
ATOM     59  N   UNL     1      -8.645   0.750 126.537  0.00  0.00    +0.000 N 
ATOM     60  H   UNL     1      -8.081  -1.644 126.487  0.00  0.00    +0.000 HD
ATOM     61  H   UNL     1     -11.075  -0.677 125.243  0.00  0.00    +0.000 HD
ATOM     62  H   UNL     1      -7.780   0.589 127.020  0.00  0.00    +0.000 HD
ATOM     63  H   UNL     1      -9.017   1.691 126.495  0.00  0.00    +0.000 HD
ENDBRANCH  55  56
ENDBRANCH  54  55
ENDBRANCH  53  54
ENDBRANCH  42  53
ENDBRANCH  40  42
ENDBRANCH  37  38
ENDBRANCH  18  31
BRANCH   1  65
ATOM     64  C   UNL     1      -4.793   6.944 130.425  0.00  0.00    +0.000 C 
ATOM     65  C   UNL     1      -5.487   5.619 130.747  0.00  0.00    +0.000 C 
ATOM     66  C   UNL     1      -6.436   5.980 131.933  0.00  0.00    +0.000 C 
ENDBRANCH   1  65
BRANCH   9  67
ATOM     67  C   UNL     1      -2.929  -0.794 133.356  0.00  0.00    +0.000 C 
BRANCH  67  68
ATOM     68  C   UNL     1      -1.761  -1.405 134.060  0.00  0.00    +0.000 A 
ATOM     69  C   UNL     1      -2.040  -2.629 134.478  0.00  0.00    +0.000 A 
ATOM     70  C   UNL     1      -1.083  -3.522 134.848  0.00  0.00    +0.000 A 
ATOM     71  C   UNL     1       0.192  -3.170 135.207  0.00  0.00    +0.000 A 
ATOM     72  C   UNL     1       0.472  -1.848 135.014  0.00  0.00    +0.000 A 
ATOM     73  C   UNL     1      -0.467  -0.985 134.367  0.00  0.00    +0.000 A 
BRANCH  71  74
ATOM     74  O   UNL     1       1.107  -3.910 135.908  0.00  0.00    +0.000 OA
ATOM     75  H   UNL     1       1.427  -3.747 136.819  0.00  0.00    +0.000 HD
ENDBRANCH  71  74
ENDBRANCH  67  68
ENDBRANCH   9  67
BRANCH   5  76
ATOM     76  C   UNL     1      -4.339   3.225 135.467  0.00  0.00    +0.000 C 
BRANCH  76  77
ATOM     77  C   UNL     1      -5.020   4.290 136.282  0.00  0.00    +0.000 A 
ATOM     78  C   UNL     1      -4.870   4.434 137.673  0.00  0.00    +0.000 A 
ATOM     79  C   UNL     1      -5.786   5.110 138.445  0.00  0.00    +0.000 A 
ATOM     80  C   UNL     1      -6.677   5.932 137.795  0.00  0.00    +0.000 A 
ATOM     81  C   UNL     1      -6.746   5.933 136.398  0.00  0.00    +0.000 A 
ATOM     82  C   UNL     1      -5.965   5.072 135.641  0.00  0.00    +0.000 A 
ENDBRANCH  76  77
ENDBRANCH   5  76
BRANCH  22  83
ATOM     83  C   UNL     1      -5.502   1.654 130.300  0.00  0.00    +0.000 C 
BRANCH  83  84
ATOM     84  C   UNL     1      -6.976   1.890 130.105  0.00  0.00    +0.000 C 
ATOM     85  N   UNL     1      -7.563   2.893 130.804  0.00  0.00    +0.000 N 
ATOM     86  O   UNL     1      -7.629   1.215 129.341  0.00  0.00    +0.000 OA
ATOM     87  H   UNL     1      -7.215   3.140 131.716  0.00  0.00    +0.000 HD
ATOM     88  H   UNL     1      -8.562   2.803 130.883  0.00  0.00    +0.000 HD
ENDBRANCH  83  84
ENDBRANCH  22  83
TORSDOF 18
ENDMDL
MODEL 5
REMARK VINA RESULT:      -9.3      1.727      2.510
REMARK  Name = CHEMBL221436
REMARK  20 active torsions:
REMARK  status: ('A' for Active; 'I' for Inactive)
REMARK    1  A    between atoms: C_1  and  C_2
REMARK    2  A    between atoms: C_2  and  C_3
REMARK    3  A    between atoms: C_2  and  C_4
REMARK    4  A    between atoms: C_8  and  C_9
REMARK    5  A    between atoms: C_9  and  C_10
REMARK    6  A    between atoms: C_19  and  C_20
REMARK    7  A    between atoms: C_20  and  C_21
REMARK    8  A    between atoms: C_24  and  O_25
REMARK    9  A    between atoms: C_36  and  C_37
REMARK   10  A    between atoms: C_43  and  C_44
REMARK   11  A    between atoms: N_46  and  C_47
REMARK   12  A    between atoms: C_47  and  C_48
REMARK   13  A    between atoms: C_47  and  C_55
REMARK   14  A    between atoms: C_48  and  C_49
REMARK   15  A    between atoms: C_49  and  C_50
REMARK   16  A    between atoms: C_50  and  N_51
REMARK   17  A    between atoms: N_57  and  C_58
REMARK   18  A    between atoms: C_58  and  C_59
REMARK   19  A    between atoms: C_65  and  C_66
REMARK   20  A    between atoms: C_66  and  C_67
REMARK                            x       y       z     vdW  Elec       q    Type
REMARK                         _______ _______ _______ _____ _____    ______ ____
ROOT
ATOM      1  C   UNL     1      -6.790   3.707 126.939  0.00  0.00    +0.000 C 
ATOM      2  N   UNL     1      -7.997   2.851 126.625  0.00  0.00    +0.000 N 
ATOM      3  C   UNL     1      -8.167   1.514 126.976  0.00  0.00    +0.000 C 
ATOM      4  O   UNL     1      -9.203   1.101 127.524  0.00  0.00    +0.000 OA
ATOM      5  C   UNL     1      -7.088   0.581 126.486  0.00  0.00    +0.000 C 
ATOM      6  N   UNL     1      -6.046   0.367 127.454  0.00  0.00    +0.000 N 
ATOM      7  C   UNL     1      -6.001  -0.629 128.387  0.00  0.00    +0.000 C 
ATOM      8  O   UNL     1      -4.848  -1.053 128.561  0.00  0.00    +0.000 OA
ATOM      9  C   UNL     1      -7.354  -1.231 129.203  0.00  0.00    +0.000 C 
ATOM     10  N   UNL     1      -7.023  -2.620 129.282  0.00  0.00    +0.000 N 
ATOM     11  C   UNL     1      -6.110  -3.141 130.137  0.00  0.00    +0.000 C 
ATOM     12  O   UNL     1      -6.004  -4.375 130.119  0.00  0.00    +0.000 OA
ATOM     13  C   UNL     1      -5.229  -2.298 131.119  0.00  0.00    +0.000 C 
ATOM     14  C   UNL     1      -5.276  -0.772 131.306  0.00  0.00    +0.000 C 
ATOM     15  S   UNL     1      -4.123   0.111 132.400  0.00  0.00    +0.000 S 
ATOM     16  S   UNL     1      -5.301   1.812 132.731  0.00  0.00    +0.000 S 
ATOM     17  C   UNL     1      -4.153   3.223 132.720  0.00  0.00    +0.000 C 
ATOM     18  C   UNL     1      -4.659   4.667 132.653  0.00  0.00    +0.000 C 
ATOM     19  N   UNL     1      -4.491   5.250 131.330  0.00  0.00    +0.000 N 
ATOM     20  C   UNL     1      -5.292   5.153 130.291  0.00  0.00    +0.000 C 
ATOM     21  O   UNL     1      -5.107   6.032 129.393  0.00  0.00    +0.000 OA
ATOM     22  C   UNL     1      -6.070   3.935 130.010  0.00  0.00    +0.000 C 
ATOM     23  N   UNL     1      -7.091   4.647 129.122  0.00  0.00    +0.000 N 
ATOM     24  C   UNL     1      -7.454   4.685 127.831  0.00  0.00    +0.000 C 
ATOM     25  O   UNL     1      -8.585   5.137 127.602  0.00  0.00    +0.000 OA
ATOM     26  H   UNL     1      -8.883   3.301 126.900  0.00  0.00    +0.000 HD
ATOM     27  H   UNL     1      -5.112   0.675 127.169  0.00  0.00    +0.000 HD
ATOM     28  H   UNL     1      -7.524  -3.273 128.687  0.00  0.00    +0.000 HD
ATOM     29  H   UNL     1      -3.887   6.069 131.252  0.00  0.00    +0.000 HD
ATOM     30  H   UNL     1      -8.032   4.699 129.451  0.00  0.00    +0.000 HD
ENDROOT
BRANCH  18  31
ATOM     31  C   UNL     1      -3.890   5.651 133.598  0.00  0.00    +0.000 C 
ATOM     32  O   UNL     1      -2.926   6.299 133.166  0.00  0.00    +0.000 OA
ATOM     33  N   UNL     1      -4.451   5.903 134.830  0.00  0.00    +0.000 N 
ATOM     34  C   UNL     1      -4.942   4.941 135.795  0.00  0.00    +0.000 C 
ATOM     35  C   UNL     1      -6.014   5.720 136.486  0.00  0.00    +0.000 C 
ATOM     36  C   UNL     1      -5.340   7.058 136.698  0.00  0.00    +0.000 C 
ATOM     37  C   UNL     1      -4.360   7.209 135.517  0.00  0.00    +0.000 C 
BRANCH  37  38
ATOM     38  C   UNL     1      -2.992   7.455 136.174  0.00  0.00    +0.000 C 
ATOM     39  O   UNL     1      -2.797   7.145 137.349  0.00  0.00    +0.000 OA
ATOM     40  N   UNL     1      -2.039   8.108 135.405  0.00  0.00    +0.000 N 
ATOM     41  H   UNL     1      -2.309   8.631 134.576  0.00  0.00    +0.000 HD
BRANCH  40  42
ATOM     42  C   UNL     1      -0.633   8.248 135.835  0.00  0.00    +0.000 C 
BRANCH  42  43
ATOM     43  C   UNL     1      -0.365   9.688 136.394  0.00  0.00    +0.000 C 
ATOM     44  O   UNL     1       0.756  10.046 136.748  0.00  0.00    +0.000 OA
ATOM     45  N   UNL     1      -1.466  10.526 136.454  0.00  0.00    +0.000 N 
ATOM     46  H   UNL     1      -2.352  10.189 136.122  0.00  0.00    +0.000 HD
BRANCH  45  47
ATOM     47  C   UNL     1      -1.386  11.893 136.976  0.00  0.00    +0.000 C 
BRANCH  47  48
ATOM     48  C   UNL     1      -0.958  12.988 135.979  0.00  0.00    +0.000 C 
ATOM     49  N   UNL     1       0.374  13.147 135.723  0.00  0.00    +0.000 N 
ATOM     50  O   UNL     1      -1.768  13.716 135.411  0.00  0.00    +0.000 OA
ATOM     51  H   UNL     1       1.124  12.616 136.124  0.00  0.00    +0.000 HD
ATOM     52  H   UNL     1       0.627  13.875 135.064  0.00  0.00    +0.000 HD
ENDBRANCH  47  48
ENDBRANCH  45  47
ENDBRANCH  42  43
BRANCH  42  53
ATOM     53  C   UNL     1       0.325   7.960 134.655  0.00  0.00    +0.000 C 
BRANCH  53  54
ATOM     54  C   UNL     1      -0.129   8.618 133.348  0.00  0.00    +0.000 C 
BRANCH  54  55
ATOM     55  C   UNL     1       0.294  10.052 133.182  0.00  0.00    +0.000 C 
BRANCH  55  56
ATOM     56  N   UNL     1      -0.856  10.917 132.978  0.00  0.00    +0.000 N 
ATOM     57  C   UNL     1      -0.754  12.131 132.400  0.00  0.00    +0.000 C 
ATOM     58  N   UNL     1       0.319  12.622 131.888  0.00  0.00    +0.000 NA
ATOM     59  N   UNL     1      -1.871  12.862 132.349  0.00  0.00    +0.000 N 
ATOM     60  H   UNL     1      -1.692  10.703 133.515  0.00  0.00    +0.000 HD
ATOM     61  H   UNL     1       1.075  11.953 132.019  0.00  0.00    +0.000 HD
ATOM     62  H   UNL     1      -2.777  12.562 132.661  0.00  0.00    +0.000 HD
ATOM     63  H   UNL     1      -1.794  13.728 131.830  0.00  0.00    +0.000 HD
ENDBRANCH  55  56
ENDBRANCH  54  55
ENDBRANCH  53  54
ENDBRANCH  42  53
ENDBRANCH  40  42
ENDBRANCH  37  38
ENDBRANCH  18  31
BRANCH   1  65
ATOM     64  C   UNL     1      -5.263   3.347 124.991  0.00  0.00    +0.000 C 
ATOM     65  C   UNL     1      -5.807   4.391 125.970  0.00  0.00    +0.000 C 
ATOM     66  C   UNL     1      -4.520   4.991 126.619  0.00  0.00    +0.000 C 
ENDBRANCH   1  65
BRANCH   9  67
ATOM     67  C   UNL     1      -8.116  -0.861 130.612  0.00  0.00    +0.000 C 
BRANCH  67  68
ATOM     68  C   UNL     1      -8.655   0.518 130.813  0.00  0.00    +0.000 A 
ATOM     69  C   UNL     1      -9.033   0.707 132.067  0.00  0.00    +0.000 A 
ATOM     70  C   UNL     1      -9.247   1.941 132.598  0.00  0.00    +0.000 A 
ATOM     71  C   UNL     1      -9.483   3.064 131.850  0.00  0.00    +0.000 A 
ATOM     72  C   UNL     1      -9.333   2.872 130.508  0.00  0.00    +0.000 A 
ATOM     73  C   UNL     1      -8.840   1.632 129.994  0.00  0.00    +0.000 A 
BRANCH  71  74
ATOM     74  O   UNL     1     -10.039   4.248 132.257  0.00  0.00    +0.000 OA
ATOM     75  H   UNL     1     -10.981   4.422 132.458  0.00  0.00    +0.000 HD
ENDBRANCH  71  74
ENDBRANCH  67  68
ENDBRANCH   9  67
BRANCH   5  76
ATOM     76  C   UNL     1      -7.624  -0.709 125.886  0.00  0.00    +0.000 C 
BRANCH  76  77
ATOM     77  C   UNL     1      -6.744  -1.305 124.822  0.00  0.00    +0.000 A 
ATOM     78  C   UNL     1      -6.813  -0.966 123.459  0.00  0.00    +0.000 A 
ATOM     79  C   UNL     1      -6.323  -1.787 122.471  0.00  0.00    +0.000 A 
ATOM     80  C   UNL     1      -5.463  -2.790 122.851  0.00  0.00    +0.000 A 
ATOM     81  C   UNL     1      -5.244  -3.057 124.207  0.00  0.00    +0.000 A 
ATOM     82  C   UNL     1      -5.927  -2.359 125.193  0.00  0.00    +0.000 A 
ENDBRANCH  76  77
ENDBRANCH   5  76
BRANCH  22  83
ATOM     83  C   UNL     1      -5.260   2.694 129.539  0.00  0.00    +0.000 C 
BRANCH  83  84
ATOM     84  C   UNL     1      -3.843   2.824 129.049  0.00  0.00    +0.000 C 
ATOM     85  N   UNL     1      -3.422   1.980 128.074  0.00  0.00    +0.000 N 
ATOM     86  O   UNL     1      -3.091   3.660 129.499  0.00  0.00    +0.000 OA
ATOM     87  H   UNL     1      -3.804   1.051 128.015  0.00  0.00    +0.000 HD
ATOM     88  H   UNL     1      -2.421   1.894 128.015  0.00  0.00    +0.000 HD
ENDBRANCH  83  84
ENDBRANCH  22  83
TORSDOF 18
ENDMDL
MODEL 6
REMARK VINA RESULT:      -9.3      1.571      2.965
REMARK  Name = CHEMBL221436
REMARK  20 active torsions:
REMARK  status: ('A' for Active; 'I' for Inactive)
REMARK    1  A    between atoms: C_1  and  C_2
REMARK    2  A    between atoms: C_2  and  C_3
REMARK    3  A    between atoms: C_2  and  C_4
REMARK    4  A    between atoms: C_8  and  C_9
REMARK    5  A    between atoms: C_9  and  C_10
REMARK    6  A    between atoms: C_19  and  C_20
REMARK    7  A    between atoms: C_20  and  C_21
REMARK    8  A    between atoms: C_24  and  O_25
REMARK    9  A    between atoms: C_36  and  C_37
REMARK   10  A    between atoms: C_43  and  C_44
REMARK   11  A    between atoms: N_46  and  C_47
REMARK   12  A    between atoms: C_47  and  C_48
REMARK   13  A    between atoms: C_47  and  C_55
REMARK   14  A    between atoms: C_48  and  C_49
REMARK   15  A    between atoms: C_49  and  C_50
REMARK   16  A    between atoms: C_50  and  N_51
REMARK   17  A    between atoms: N_57  and  C_58
REMARK   18  A    between atoms: C_58  and  C_59
REMARK   19  A    between atoms: C_65  and  C_66
REMARK   20  A    between atoms: C_66  and  C_67
REMARK                            x       y       z     vdW  Elec       q    Type
REMARK                         _______ _______ _______ _____ _____    ______ ____
ROOT
ATOM      1  C   UNL     1      -6.689   3.661 126.757  0.00  0.00    +0.000 C 
ATOM      2  N   UNL     1      -7.876   2.768 126.472  0.00  0.00    +0.000 N 
ATOM      3  C   UNL     1      -8.026   1.447 126.887  0.00  0.00    +0.000 C 
ATOM      4  O   UNL     1      -9.062   1.042 127.441  0.00  0.00    +0.000 OA
ATOM      5  C   UNL     1      -6.924   0.511 126.457  0.00  0.00    +0.000 C 
ATOM      6  N   UNL     1      -5.892   0.365 127.448  0.00  0.00    +0.000 N 
ATOM      7  C   UNL     1      -5.840  -0.582 128.429  0.00  0.00    +0.000 C 
ATOM      8  O   UNL     1      -4.682  -0.975 128.638  0.00  0.00    +0.000 OA
ATOM      9  C   UNL     1      -7.193  -1.169 129.257  0.00  0.00    +0.000 C 
ATOM     10  N   UNL     1      -6.838  -2.545 129.409  0.00  0.00    +0.000 N 
ATOM     11  C   UNL     1      -5.926  -3.006 130.301  0.00  0.00    +0.000 C 
ATOM     12  O   UNL     1      -5.798  -4.237 130.345  0.00  0.00    +0.000 OA
ATOM     13  C   UNL     1      -5.074  -2.099 131.250  0.00  0.00    +0.000 C 
ATOM     14  C   UNL     1      -5.152  -0.567 131.361  0.00  0.00    +0.000 C 
ATOM     15  S   UNL     1      -4.030   0.391 132.424  0.00  0.00    +0.000 S 
ATOM     16  S   UNL     1      -5.243   2.084 132.655  0.00  0.00    +0.000 S 
ATOM     17  C   UNL     1      -4.121   3.514 132.588  0.00  0.00    +0.000 C 
ATOM     18  C   UNL     1      -4.653   4.943 132.443  0.00  0.00    +0.000 C 
ATOM     19  N   UNL     1      -4.477   5.463 131.095  0.00  0.00    +0.000 N 
ATOM     20  C   UNL     1      -5.262   5.299 130.052  0.00  0.00    +0.000 C 
ATOM     21  O   UNL     1      -5.082   6.136 129.114  0.00  0.00    +0.000 OA
ATOM     22  C   UNL     1      -6.014   4.055 129.822  0.00  0.00    +0.000 C 
ATOM     23  N   UNL     1      -7.036   4.702 128.887  0.00  0.00    +0.000 N 
ATOM     24  C   UNL     1      -7.383   4.670 127.592  0.00  0.00    +0.000 C 
ATOM     25  O   UNL     1      -8.519   5.088 127.326  0.00  0.00    +0.000 OA
ATOM     26  H   UNL     1      -8.774   3.214 126.713  0.00  0.00    +0.000 HD
ATOM     27  H   UNL     1      -4.959   0.677 127.159  0.00  0.00    +0.000 HD
ATOM     28  H   UNL     1      -7.319  -3.236 128.841  0.00  0.00    +0.000 HD
ATOM     29  H   UNL     1      -3.887   6.289 130.984  0.00  0.00    +0.000 HD
ATOM     30  H   UNL     1      -7.982   4.753 129.201  0.00  0.00    +0.000 HD
ENDROOT
BRANCH  18  31
ATOM     31  C   UNL     1      -3.914   5.987 133.347  0.00  0.00    +0.000 C 
ATOM     32  O   UNL     1      -3.198   6.857 132.832  0.00  0.00    +0.000 OA
ATOM     33  N   UNL     1      -4.257   6.013 134.681  0.00  0.00    +0.000 N 
ATOM     34  C   UNL     1      -4.352   4.894 135.594  0.00  0.00    +0.000 C 
ATOM     35  C   UNL     1      -5.394   5.371 136.554  0.00  0.00    +0.000 C 
ATOM     36  C   UNL     1      -4.961   6.799 136.802  0.00  0.00    +0.000 C 
ATOM     37  C   UNL     1      -4.283   7.249 135.492  0.00  0.00    +0.000 C 
BRANCH  37  38
ATOM     38  C   UNL     1      -2.885   7.723 135.920  0.00  0.00    +0.000 C 
ATOM     39  O   UNL     1      -2.463   7.491 137.053  0.00  0.00    +0.000 OA
ATOM     40  N   UNL     1      -2.176   8.484 135.000  0.00  0.00    +0.000 N 
ATOM     41  H   UNL     1      -2.650   8.929 134.219  0.00  0.00    +0.000 HD
BRANCH  40  42
ATOM     42  C   UNL     1      -0.759   8.852 135.199  0.00  0.00    +0.000 C 
BRANCH  42  43
ATOM     43  C   UNL     1      -0.379  10.090 134.316  0.00  0.00    +0.000 C 
ATOM     44  O   UNL     1       0.221   9.964 133.250  0.00  0.00    +0.000 OA
ATOM     45  N   UNL     1      -0.768  11.324 134.808  0.00  0.00    +0.000 N 
ATOM     46  H   UNL     1      -1.283  11.365 135.669  0.00  0.00    +0.000 HD
BRANCH  45  47
ATOM     47  C   UNL     1      -0.464  12.579 134.113  0.00  0.00    +0.000 C 
BRANCH  47  48
ATOM     48  C   UNL     1       0.906  13.218 134.413  0.00  0.00    +0.000 C 
ATOM     49  N   UNL     1       1.806  13.332 133.392  0.00  0.00    +0.000 N 
ATOM     50  O   UNL     1       1.215  13.625 135.530  0.00  0.00    +0.000 OA
ATOM     51  H   UNL     1       1.670  13.037 132.443  0.00  0.00    +0.000 HD
ATOM     52  H   UNL     1       2.699  13.754 133.617  0.00  0.00    +0.000 HD
ENDBRANCH  47  48
ENDBRANCH  45  47
ENDBRANCH  42  43
BRANCH  42  53
ATOM     53  C   UNL     1       0.163   7.660 134.851  0.00  0.00    +0.000 C 
BRANCH  53  54
ATOM     54  C   UNL     1       1.091   7.271 136.005  0.00  0.00    +0.000 C 
BRANCH  54  55
ATOM     55  C   UNL     1       1.193   8.289 137.107  0.00  0.00    +0.000 C 
BRANCH  55  56
ATOM     56  N   UNL     1       2.263   9.238 136.848  0.00  0.00    +0.000 N 
ATOM     57  C   UNL     1       2.102  10.568 136.993  0.00  0.00    +0.000 C 
ATOM     58  N   UNL     1       1.048  11.142 137.454  0.00  0.00    +0.000 NA
ATOM     59  N   UNL     1       3.138  11.335 136.640  0.00  0.00    +0.000 N 
ATOM     60  H   UNL     1       3.052   8.900 136.303  0.00  0.00    +0.000 HD
ATOM     61  H   UNL     1       0.354  10.426 137.661  0.00  0.00    +0.000 HD
ATOM     62  H   UNL     1       4.029  10.999 136.325  0.00  0.00    +0.000 HD
ATOM     63  H   UNL     1       3.029  12.321 136.844  0.00  0.00    +0.000 HD
ENDBRANCH  55  56
ENDBRANCH  54  55
ENDBRANCH  53  54
ENDBRANCH  42  53
ENDBRANCH  40  42
ENDBRANCH  37  38
ENDBRANCH  18  31
BRANCH   1  65
ATOM     64  C   UNL     1      -6.371   4.411 124.393  0.00  0.00    +0.000 C 
ATOM     65  C   UNL     1      -5.706   4.315 125.768  0.00  0.00    +0.000 C 
ATOM     66  C   UNL     1      -4.394   3.517 125.486  0.00  0.00    +0.000 C 
ENDBRANCH   1  65
BRANCH   9  67
ATOM     67  C   UNL     1      -7.981  -0.744 130.636  0.00  0.00    +0.000 C 
BRANCH  67  68
ATOM     68  C   UNL     1      -8.610   0.608 130.733  0.00  0.00    +0.000 A 
ATOM     69  C   UNL     1      -9.317   0.729 131.846  0.00  0.00    +0.000 A 
ATOM     70  C   UNL     1      -9.715   1.931 132.343  0.00  0.00    +0.000 A 
ATOM     71  C   UNL     1      -9.789   3.079 131.598  0.00  0.00    +0.000 A 
ATOM     72  C   UNL     1      -9.279   2.951 130.339  0.00  0.00    +0.000 A 
ATOM     73  C   UNL     1      -8.617   1.751 129.934  0.00  0.00    +0.000 A 
BRANCH  71  74
ATOM     74  O   UNL     1     -10.483   4.226 131.882  0.00  0.00    +0.000 OA
ATOM     75  H   UNL     1     -10.414   5.088 131.423  0.00  0.00    +0.000 HD
ENDBRANCH  71  74
ENDBRANCH  67  68
ENDBRANCH   9  67
BRANCH   5  76
ATOM     76  C   UNL     1      -7.428  -0.816 125.915  0.00  0.00    +0.000 C 
BRANCH  76  77
ATOM     77  C   UNL     1      -6.549  -1.423 124.857  0.00  0.00    +0.000 A 
ATOM     78  C   UNL     1      -6.603  -1.080 123.494  0.00  0.00    +0.000 A 
ATOM     79  C   UNL     1      -6.117  -1.906 122.508  0.00  0.00    +0.000 A 
ATOM     80  C   UNL     1      -5.275  -2.922 122.892  0.00  0.00    +0.000 A 
ATOM     81  C   UNL     1      -5.070  -3.195 124.249  0.00  0.00    +0.000 A 
ATOM     82  C   UNL     1      -5.750  -2.490 125.232  0.00  0.00    +0.000 A 
ENDBRANCH  76  77
ENDBRANCH   5  76
BRANCH  22  83
ATOM     83  C   UNL     1      -5.176   2.808 129.424  0.00  0.00    +0.000 C 
BRANCH  83  84
ATOM     84  C   UNL     1      -3.756   2.940 128.942  0.00  0.00    +0.000 C 
ATOM     85  N   UNL     1      -3.271   1.989 128.106  0.00  0.00    +0.000 N 
ATOM     86  O   UNL     1      -3.057   3.870 129.279  0.00  0.00    +0.000 OA
ATOM     87  H   UNL     1      -3.605   1.041 128.176  0.00  0.00    +0.000 HD
ATOM     88  H   UNL     1      -2.266   1.948 128.076  0.00  0.00    +0.000 HD
ENDBRANCH  83  84
ENDBRANCH  22  83
TORSDOF 18
ENDMDL
MODEL 7
REMARK VINA RESULT:      -9.2      5.003     12.108
REMARK  Name = CHEMBL221436
REMARK  20 active torsions:
REMARK  status: ('A' for Active; 'I' for Inactive)
REMARK    1  A    between atoms: C_1  and  C_2
REMARK    2  A    between atoms: C_2  and  C_3
REMARK    3  A    between atoms: C_2  and  C_4
REMARK    4  A    between atoms: C_8  and  C_9
REMARK    5  A    between atoms: C_9  and  C_10
REMARK    6  A    between atoms: C_19  and  C_20
REMARK    7  A    between atoms: C_20  and  C_21
REMARK    8  A    between atoms: C_24  and  O_25
REMARK    9  A    between atoms: C_36  and  C_37
REMARK   10  A    between atoms: C_43  and  C_44
REMARK   11  A    between atoms: N_46  and  C_47
REMARK   12  A    between atoms: C_47  and  C_48
REMARK   13  A    between atoms: C_47  and  C_55
REMARK   14  A    between atoms: C_48  and  C_49
REMARK   15  A    between atoms: C_49  and  C_50
REMARK   16  A    between atoms: C_50  and  N_51
REMARK   17  A    between atoms: N_57  and  C_58
REMARK   18  A    between atoms: C_58  and  C_59
REMARK   19  A    between atoms: C_65  and  C_66
REMARK   20  A    between atoms: C_66  and  C_67
REMARK                            x       y       z     vdW  Elec       q    Type
REMARK                         _______ _______ _______ _____ _____    ______ ____
ROOT
ATOM      1  C   UNL     1      -5.126   2.800 134.899  0.00  0.00    +0.000 C 
ATOM      2  N   UNL     1      -4.130   2.143 135.828  0.00  0.00    +0.000 N 
ATOM      3  C   UNL     1      -4.088   0.792 136.162  0.00  0.00    +0.000 C 
ATOM      4  O   UNL     1      -3.038   0.129 136.109  0.00  0.00    +0.000 OA
ATOM      5  C   UNL     1      -5.359   0.240 136.759  0.00  0.00    +0.000 C 
ATOM      6  N   UNL     1      -6.226  -0.361 135.781  0.00  0.00    +0.000 N 
ATOM      7  C   UNL     1      -6.240  -1.674 135.411  0.00  0.00    +0.000 C 
ATOM      8  O   UNL     1      -7.390  -2.084 135.188  0.00  0.00    +0.000 OA
ATOM      9  C   UNL     1      -4.859  -2.641 135.282  0.00  0.00    +0.000 C 
ATOM     10  N   UNL     1      -5.362  -3.891 135.761  0.00  0.00    +0.000 N 
ATOM     11  C   UNL     1      -6.169  -4.716 135.047  0.00  0.00    +0.000 C 
ATOM     12  O   UNL     1      -6.448  -5.792 135.592  0.00  0.00    +0.000 OA
ATOM     13  C   UNL     1      -6.728  -4.395 133.620  0.00  0.00    +0.000 C 
ATOM     14  C   UNL     1      -6.432  -3.137 132.786  0.00  0.00    +0.000 C 
ATOM     15  S   UNL     1      -7.230  -2.823 131.182  0.00  0.00    +0.000 S 
ATOM     16  S   UNL     1      -5.784  -1.524 130.401  0.00  0.00    +0.000 S 
ATOM     17  C   UNL     1      -6.704  -0.227 129.518  0.00  0.00    +0.000 C 
ATOM     18  C   UNL     1      -6.021   1.059 129.044  0.00  0.00    +0.000 C 
ATOM     19  N   UNL     1      -6.344   2.200 129.888  0.00  0.00    +0.000 N 
ATOM     20  C   UNL     1      -5.768   2.568 131.012  0.00  0.00    +0.000 C 
ATOM     21  O   UNL     1      -5.988   3.771 131.353  0.00  0.00    +0.000 OA
ATOM     22  C   UNL     1      -5.234   1.594 131.978  0.00  0.00    +0.000 C 
ATOM     23  N   UNL     1      -4.303   2.597 132.659  0.00  0.00    +0.000 N 
ATOM     24  C   UNL     1      -4.179   3.220 133.840  0.00  0.00    +0.000 C 
ATOM     25  O   UNL     1      -3.057   3.681 134.093  0.00  0.00    +0.000 OA
ATOM     26  H   UNL     1      -3.154   2.376 135.590  0.00  0.00    +0.000 HD
ATOM     27  H   UNL     1      -7.144   0.083 135.677  0.00  0.00    +0.000 HD
ATOM     28  H   UNL     1      -5.076  -4.210 136.681  0.00  0.00    +0.000 HD
ATOM     29  H   UNL     1      -6.831   2.984 129.451  0.00  0.00    +0.000 HD
ATOM     30  H   UNL     1      -3.320   2.451 132.565  0.00  0.00    +0.000 HD
ENDROOT
BRANCH  18  31
ATOM     31  C   UNL     1      -6.459   1.517 127.612  0.00  0.00    +0.000 C 
ATOM     32  O   UNL     1      -7.425   0.976 127.055  0.00  0.00    +0.000 OA
ATOM     33  N   UNL     1      -5.863   2.652 127.109  0.00  0.00    +0.000 N 
ATOM     34  C   UNL     1      -4.451   2.970 127.068  0.00  0.00    +0.000 C 
ATOM     35  C   UNL     1      -4.470   4.462 127.136  0.00  0.00    +0.000 C 
ATOM     36  C   UNL     1      -5.576   4.806 126.162  0.00  0.00    +0.000 C 
ATOM     37  C   UNL     1      -6.558   3.618 126.230  0.00  0.00    +0.000 C 
BRANCH  37  38
ATOM     38  C   UNL     1      -6.685   3.133 124.778  0.00  0.00    +0.000 C 
ATOM     39  O   UNL     1      -5.698   3.086 124.043  0.00  0.00    +0.000 OA
ATOM     40  N   UNL     1      -7.965   2.837 124.329  0.00  0.00    +0.000 N 
ATOM     41  H   UNL     1      -8.783   3.178 124.827  0.00  0.00    +0.000 HD
BRANCH  40  42
ATOM     42  C   UNL     1      -8.218   2.191 123.025  0.00  0.00    +0.000 C 
BRANCH  42  43
ATOM     43  C   UNL     1      -7.937   3.189 121.848  0.00  0.00    +0.000 C 
ATOM     44  O   UNL     1      -8.828   3.884 121.364  0.00  0.00    +0.000 OA
ATOM     45  N   UNL     1      -6.629   3.241 121.401  0.00  0.00    +0.000 N 
ATOM     46  H   UNL     1      -5.936   2.672 121.855  0.00  0.00    +0.000 HD
BRANCH  45  47
ATOM     47  C   UNL     1      -6.210   4.103 120.291  0.00  0.00    +0.000 C 
BRANCH  47  48
ATOM     48  C   UNL     1      -5.122   5.148 120.605  0.00  0.00    +0.000 C 
ATOM     49  N   UNL     1      -4.348   4.966 121.715  0.00  0.00    +0.000 N 
ATOM     50  O   UNL     1      -4.927   6.132 119.895  0.00  0.00    +0.000 OA
ATOM     51  H   UNL     1      -4.414   4.208 122.368  0.00  0.00    +0.000 HD
ATOM     52  H   UNL     1      -3.642   5.670 121.899  0.00  0.00    +0.000 HD
ENDBRANCH  47  48
ENDBRANCH  45  47
ENDBRANCH  42  43
BRANCH  42  53
ATOM     53  C   UNL     1      -9.679   1.689 122.945  0.00  0.00    +0.000 C 
BRANCH  53  54
ATOM     54  C   UNL     1      -9.790   0.165 123.054  0.00  0.00    +0.000 C 
BRANCH  54  55
ATOM     55  C   UNL     1      -8.490  -0.547 123.309  0.00  0.00    +0.000 C 
BRANCH  55  56
ATOM     56  N   UNL     1      -8.289  -0.778 124.731  0.00  0.00    +0.000 N 
ATOM     57  C   UNL     1      -8.807  -1.846 125.370  0.00  0.00    +0.000 C 
ATOM     58  N   UNL     1      -9.442  -2.812 124.808  0.00  0.00    +0.000 NA
ATOM     59  N   UNL     1      -8.621  -1.896 126.692  0.00  0.00    +0.000 N 
ATOM     60  H   UNL     1      -7.976   0.015 125.284  0.00  0.00    +0.000 HD
ATOM     61  H   UNL     1      -9.509  -2.618 123.810  0.00  0.00    +0.000 HD
ATOM     62  H   UNL     1      -8.093  -1.233 127.231  0.00  0.00    +0.000 HD
ATOM     63  H   UNL     1      -8.936  -2.749 127.138  0.00  0.00    +0.000 HD
ENDBRANCH  55  56
ENDBRANCH  54  55
ENDBRANCH  53  54
ENDBRANCH  42  53
ENDBRANCH  40  42
ENDBRANCH  37  38
ENDBRANCH  18  31
BRANCH   1  65
ATOM     64  C   UNL     1      -6.028   5.017 134.173  0.00  0.00    +0.000 C 
ATOM     65  C   UNL     1      -6.164   3.897 135.207  0.00  0.00    +0.000 C 
ATOM     66  C   UNL     1      -5.988   4.634 136.571  0.00  0.00    +0.000 C 
ENDBRANCH   1  65
BRANCH   9  67
ATOM     67  C   UNL     1      -3.808  -3.005 134.071  0.00  0.00    +0.000 C 
BRANCH  67  68
ATOM     68  C   UNL     1      -2.341  -2.839 134.301  0.00  0.00    +0.000 A 
ATOM     69  C   UNL     1      -1.839  -3.869 134.964  0.00  0.00    +0.000 A 
ATOM     70  C   UNL     1      -0.507  -4.135 135.021  0.00  0.00    +0.000 A 
ATOM     71  C   UNL     1       0.469  -3.209 134.761  0.00  0.00    +0.000 A 
ATOM     72  C   UNL     1      -0.011  -2.024 134.286  0.00  0.00    +0.000 A 
ATOM     73  C   UNL     1      -1.398  -1.864 133.977  0.00  0.00    +0.000 A 
BRANCH  71  74
ATOM     74  O   UNL     1       1.792  -3.256 135.112  0.00  0.00    +0.000 OA
ATOM     75  H   UNL     1       2.566  -3.167 134.519  0.00  0.00    +0.000 HD
ENDBRANCH  71  74
ENDBRANCH  67  68
ENDBRANCH   9  67
BRANCH   5  76
ATOM     76  C   UNL     1      -5.129  -0.639 137.977  0.00  0.00    +0.000 C 
BRANCH  76  77
ATOM     77  C   UNL     1      -6.116  -0.420 139.090  0.00  0.00    +0.000 A 
ATOM     78  C   UNL     1      -7.309  -1.149 139.241  0.00  0.00    +0.000 A 
ATOM     79  C   UNL     1      -8.369  -0.679 139.981  0.00  0.00    +0.000 A 
ATOM     80  C   UNL     1      -8.125   0.360 140.847  0.00  0.00    +0.000 A 
ATOM     81  C   UNL     1      -6.887   1.012 140.836  0.00  0.00    +0.000 A 
ATOM     82  C   UNL     1      -5.904   0.666 139.920  0.00  0.00    +0.000 A 
ENDBRANCH  76  77
ENDBRANCH   5  76
BRANCH  22  83
ATOM     83  C   UNL     1      -6.282   0.750 132.757  0.00  0.00    +0.000 C 
BRANCH  83  84
ATOM     84  C   UNL     1      -7.735   1.144 132.790  0.00  0.00    +0.000 C 
ATOM     85  N   UNL     1      -8.624   0.375 132.113  0.00  0.00    +0.000 N 
ATOM     86  O   UNL     1      -8.114   2.114 133.408  0.00  0.00    +0.000 OA
ATOM     87  H   UNL     1      -8.337  -0.104 131.275  0.00  0.00    +0.000 HD
ATOM     88  H   UNL     1      -9.491   0.842 131.906  0.00  0.00    +0.000 HD
ENDBRANCH  83  84
ENDBRANCH  22  83
TORSDOF 18
ENDMDL
MODEL 8
REMARK VINA RESULT:      -9.1      2.628      4.059
REMARK  Name = CHEMBL221436
REMARK  20 active torsions:
REMARK  status: ('A' for Active; 'I' for Inactive)
REMARK    1  A    between atoms: C_1  and  C_2
REMARK    2  A    between atoms: C_2  and  C_3
REMARK    3  A    between atoms: C_2  and  C_4
REMARK    4  A    between atoms: C_8  and  C_9
REMARK    5  A    between atoms: C_9  and  C_10
REMARK    6  A    between atoms: C_19  and  C_20
REMARK    7  A    between atoms: C_20  and  C_21
REMARK    8  A    between atoms: C_24  and  O_25
REMARK    9  A    between atoms: C_36  and  C_37
REMARK   10  A    between atoms: C_43  and  C_44
REMARK   11  A    between atoms: N_46  and  C_47
REMARK   12  A    between atoms: C_47  and  C_48
REMARK   13  A    between atoms: C_47  and  C_55
REMARK   14  A    between atoms: C_48  and  C_49
REMARK   15  A    between atoms: C_49  and  C_50
REMARK   16  A    between atoms: C_50  and  N_51
REMARK   17  A    between atoms: N_57  and  C_58
REMARK   18  A    between atoms: C_58  and  C_59
REMARK   19  A    between atoms: C_65  and  C_66
REMARK   20  A    between atoms: C_66  and  C_67
REMARK                            x       y       z     vdW  Elec       q    Type
REMARK                         _______ _______ _______ _____ _____    ______ ____
ROOT
ATOM      1  C   UNL     1      -6.943   2.880 127.844  0.00  0.00    +0.000 C 
ATOM      2  N   UNL     1      -7.948   1.750 127.879  0.00  0.00    +0.000 N 
ATOM      3  C   UNL     1      -7.752   0.497 128.453  0.00  0.00    +0.000 C 
ATOM      4  O   UNL     1      -8.579  -0.012 129.229  0.00  0.00    +0.000 OA
ATOM      5  C   UNL     1      -6.561  -0.268 127.930  0.00  0.00    +0.000 C 
ATOM      6  N   UNL     1      -5.377  -0.077 128.724  0.00  0.00    +0.000 N 
ATOM      7  C   UNL     1      -4.974  -0.850 129.775  0.00  0.00    +0.000 C 
ATOM      8  O   UNL     1      -3.741  -0.986 129.809  0.00  0.00    +0.000 OA
ATOM      9  C   UNL     1      -6.026  -1.555 130.896  0.00  0.00    +0.000 C 
ATOM     10  N   UNL     1      -5.372  -2.806 131.126  0.00  0.00    +0.000 N 
ATOM     11  C   UNL     1      -4.254  -2.957 131.879  0.00  0.00    +0.000 C 
ATOM     12  O   UNL     1      -3.867  -4.124 132.030  0.00  0.00    +0.000 OA
ATOM     13  C   UNL     1      -3.470  -1.782 132.553  0.00  0.00    +0.000 C 
ATOM     14  C   UNL     1      -3.847  -0.291 132.511  0.00  0.00    +0.000 C 
ATOM     15  S   UNL     1      -2.795   1.000 133.241  0.00  0.00    +0.000 S 
ATOM     16  S   UNL     1      -4.282   2.452 133.509  0.00  0.00    +0.000 S 
ATOM     17  C   UNL     1      -3.508   4.043 133.084  0.00  0.00    +0.000 C 
ATOM     18  C   UNL     1      -4.342   5.311 132.888  0.00  0.00    +0.000 C 
ATOM     19  N   UNL     1      -4.495   5.659 131.482  0.00  0.00    +0.000 N 
ATOM     20  C   UNL     1      -5.384   5.206 130.625  0.00  0.00    +0.000 C 
ATOM     21  O   UNL     1      -5.534   5.920 129.586  0.00  0.00    +0.000 OA
ATOM     22  C   UNL     1      -5.887   3.823 130.672  0.00  0.00    +0.000 C 
ATOM     23  N   UNL     1      -7.157   4.129 129.877  0.00  0.00    +0.000 N 
ATOM     24  C   UNL     1      -7.690   3.849 128.679  0.00  0.00    +0.000 C 
ATOM     25  O   UNL     1      -8.916   4.007 128.584  0.00  0.00    +0.000 OA
ATOM     26  H   UNL     1      -8.869   2.051 128.232  0.00  0.00    +0.000 HD
ATOM     27  H   UNL     1      -4.588   0.359 128.237  0.00  0.00    +0.000 HD
ATOM     28  H   UNL     1      -5.782  -3.648 130.734  0.00  0.00    +0.000 HD
ATOM     29  H   UNL     1      -4.116   6.556 131.177  0.00  0.00    +0.000 HD
ATOM     30  H   UNL     1      -8.030   4.046 130.353  0.00  0.00    +0.000 HD
ENDROOT
BRANCH  18  31
ATOM     31  C   UNL     1      -3.703   6.592 133.523  0.00  0.00    +0.000 C 
ATOM     32  O   UNL     1      -4.262   7.160 134.472  0.00  0.00    +0.000 OA
ATOM     33  N   UNL     1      -2.427   6.921 133.119  0.00  0.00    +0.000 N 
ATOM     34  C   UNL     1      -1.922   7.017 131.766  0.00  0.00    +0.000 C 
ATOM     35  C   UNL     1      -0.480   6.670 131.953  0.00  0.00    +0.000 C 
ATOM     36  C   UNL     1      -0.123   7.469 133.187  0.00  0.00    +0.000 C 
ATOM     37  C   UNL     1      -1.425   7.544 134.011  0.00  0.00    +0.000 C 
BRANCH  37  38
ATOM     38  C   UNL     1      -1.661   9.047 134.231  0.00  0.00    +0.000 C 
ATOM     39  O   UNL     1      -1.246   9.873 133.418  0.00  0.00    +0.000 OA
ATOM     40  N   UNL     1      -2.283   9.413 135.417  0.00  0.00    +0.000 N 
ATOM     41  H   UNL     1      -2.327   8.768 136.201  0.00  0.00    +0.000 HD
BRANCH  40  42
ATOM     42  C   UNL     1      -2.736  10.794 135.681  0.00  0.00    +0.000 C 
BRANCH  42  43
ATOM     43  C   UNL     1      -1.511  11.767 135.797  0.00  0.00    +0.000 C 
ATOM     44  O   UNL     1      -0.793  11.784 136.794  0.00  0.00    +0.000 OA
ATOM     45  N   UNL     1      -1.290  12.590 134.707  0.00  0.00    +0.000 N 
ATOM     46  H   UNL     1      -1.891  12.510 133.906  0.00  0.00    +0.000 HD
BRANCH  45  47
ATOM     47  C   UNL     1      -0.202  13.573 134.671  0.00  0.00    +0.000 C 
BRANCH  47  48
ATOM     48  C   UNL     1       1.052  13.183 133.866  0.00  0.00    +0.000 C 
ATOM     49  N   UNL     1       1.015  12.038 133.121  0.00  0.00    +0.000 N 
ATOM     50  O   UNL     1       2.077  13.861 133.869  0.00  0.00    +0.000 OA
ATOM     51  H   UNL     1       0.241  11.406 133.041  0.00  0.00    +0.000 HD
ATOM     52  H   UNL     1       1.854  11.805 132.603  0.00  0.00    +0.000 HD
ENDBRANCH  47  48
ENDBRANCH  45  47
ENDBRANCH  42  43
BRANCH  42  53
ATOM     53  C   UNL     1      -3.571  10.849 136.982  0.00  0.00    +0.000 C 
BRANCH  53  54
ATOM     54  C   UNL     1      -4.544   9.673 137.112  0.00  0.00    +0.000 C 
BRANCH  54  55
ATOM     55  C   UNL     1      -5.710   9.916 138.030  0.00  0.00    +0.000 C 
BRANCH  55  56
ATOM     56  N   UNL     1      -6.944   9.404 137.457  0.00  0.00    +0.000 N 
ATOM     57  C   UNL     1      -8.151   9.639 138.010  0.00  0.00    +0.000 C 
ATOM     58  N   UNL     1      -8.367  10.399 139.025  0.00  0.00    +0.000 NA
ATOM     59  N   UNL     1      -9.197   9.041 137.433  0.00  0.00    +0.000 N 
ATOM     60  H   UNL     1      -6.857   8.647 136.784  0.00  0.00    +0.000 HD
ATOM     61  H   UNL     1      -7.474  10.764 139.351  0.00  0.00    +0.000 HD
ATOM     62  H   UNL     1      -9.159   8.475 136.605  0.00  0.00    +0.000 HD
ATOM     63  H   UNL     1     -10.101   9.304 137.807  0.00  0.00    +0.000 HD
ENDBRANCH  55  56
ENDBRANCH  54  55
ENDBRANCH  53  54
ENDBRANCH  42  53
ENDBRANCH  40  42
ENDBRANCH  37  38
ENDBRANCH  18  31
BRANCH   1  65
ATOM     64  C   UNL     1      -7.372   4.257 125.801  0.00  0.00    +0.000 C 
ATOM     65  C   UNL     1      -6.288   3.559 126.626  0.00  0.00    +0.000 C 
ATOM     66  C   UNL     1      -5.605   2.602 125.600  0.00  0.00    +0.000 C 
ENDBRANCH   1  65
BRANCH   9  67
ATOM     67  C   UNL     1      -6.655  -1.094 132.343  0.00  0.00    +0.000 C 
BRANCH  67  68
ATOM     68  C   UNL     1      -7.721  -0.047 132.377  0.00  0.00    +0.000 A 
ATOM     69  C   UNL     1      -7.322   1.021 133.051  0.00  0.00    +0.000 A 
ATOM     70  C   UNL     1      -7.946   2.226 132.965  0.00  0.00    +0.000 A 
ATOM     71  C   UNL     1      -9.230   2.392 132.517  0.00  0.00    +0.000 A 
ATOM     72  C   UNL     1      -9.788   1.252 132.015  0.00  0.00    +0.000 A 
ATOM     73  C   UNL     1      -9.014   0.059 131.866  0.00  0.00    +0.000 A 
BRANCH  71  74
ATOM     74  O   UNL     1     -10.059   3.466 132.706  0.00  0.00    +0.000 OA
ATOM     75  H   UNL     1     -10.895   3.659 132.235  0.00  0.00    +0.000 HD
ENDBRANCH  71  74
ENDBRANCH  67  68
ENDBRANCH   9  67
BRANCH   5  76
ATOM     76  C   UNL     1      -6.857  -1.730 127.636  0.00  0.00    +0.000 C 
BRANCH  76  77
ATOM     77  C   UNL     1      -7.427  -1.979 126.267  0.00  0.00    +0.000 A 
ATOM     78  C   UNL     1      -8.674  -2.586 126.031  0.00  0.00    +0.000 A 
ATOM     79  C   UNL     1      -8.988  -3.175 124.829  0.00  0.00    +0.000 A 
ATOM     80  C   UNL     1      -8.196  -2.868 123.748  0.00  0.00    +0.000 A 
ATOM     81  C   UNL     1      -7.022  -2.126 123.920  0.00  0.00    +0.000 A 
ATOM     82  C   UNL     1      -6.604  -1.733 125.183  0.00  0.00    +0.000 A 
ENDBRANCH  76  77
ENDBRANCH   5  76
BRANCH  22  83
ATOM     83  C   UNL     1      -4.882   2.711 130.262  0.00  0.00    +0.000 C 
BRANCH  83  84
ATOM     84  C   UNL     1      -3.687   3.014 129.398  0.00  0.00    +0.000 C 
ATOM     85  N   UNL     1      -3.389   2.156 128.391  0.00  0.00    +0.000 N 
ATOM     86  O   UNL     1      -3.007   4.000 129.581  0.00  0.00    +0.000 OA
ATOM     87  H   UNL     1      -3.599   1.176 128.488  0.00  0.00    +0.000 HD
ATOM     88  H   UNL     1      -2.439   2.225 128.066  0.00  0.00    +0.000 HD
ENDBRANCH  83  84
ENDBRANCH  22  83
TORSDOF 18
ENDMDL
MODEL 9
REMARK VINA RESULT:      -9.0      2.816      4.698
REMARK  Name = CHEMBL221436
REMARK  20 active torsions:
REMARK  status: ('A' for Active; 'I' for Inactive)
REMARK    1  A    between atoms: C_1  and  C_2
REMARK    2  A    between atoms: C_2  and  C_3
REMARK    3  A    between atoms: C_2  and  C_4
REMARK    4  A    between atoms: C_8  and  C_9
REMARK    5  A    between atoms: C_9  and  C_10
REMARK    6  A    between atoms: C_19  and  C_20
REMARK    7  A    between atoms: C_20  and  C_21
REMARK    8  A    between atoms: C_24  and  O_25
REMARK    9  A    between atoms: C_36  and  C_37
REMARK   10  A    between atoms: C_43  and  C_44
REMARK   11  A    between atoms: N_46  and  C_47
REMARK   12  A    between atoms: C_47  and  C_48
REMARK   13  A    between atoms: C_47  and  C_55
REMARK   14  A    between atoms: C_48  and  C_49
REMARK   15  A    between atoms: C_49  and  C_50
REMARK   16  A    between atoms: C_50  and  N_51
REMARK   17  A    between atoms: N_57  and  C_58
REMARK   18  A    between atoms: C_58  and  C_59
REMARK   19  A    between atoms: C_65  and  C_66
REMARK   20  A    between atoms: C_66  and  C_67
REMARK                            x       y       z     vdW  Elec       q    Type
REMARK                         _______ _______ _______ _____ _____    ______ ____
ROOT
ATOM      1  C   UNL     1      -7.382   2.566 129.157  0.00  0.00    +0.000 C 
ATOM      2  N   UNL     1      -8.266   1.340 129.187  0.00  0.00    +0.000 N 
ATOM      3  C   UNL     1      -7.900   0.077 129.645  0.00  0.00    +0.000 C 
ATOM      4  O   UNL     1      -8.602  -0.566 130.445  0.00  0.00    +0.000 OA
ATOM      5  C   UNL     1      -6.694  -0.525 128.968  0.00  0.00    +0.000 C 
ATOM      6  N   UNL     1      -5.467  -0.269 129.675  0.00  0.00    +0.000 N 
ATOM      7  C   UNL     1      -4.899  -1.067 130.626  0.00  0.00    +0.000 C 
ATOM      8  O   UNL     1      -3.661  -1.078 130.547  0.00  0.00    +0.000 OA
ATOM      9  C   UNL     1      -5.775  -1.951 131.772  0.00  0.00    +0.000 C 
ATOM     10  N   UNL     1      -4.986  -3.141 131.851  0.00  0.00    +0.000 N 
ATOM     11  C   UNL     1      -3.796  -3.229 132.495  0.00  0.00    +0.000 C 
ATOM     12  O   UNL     1      -3.287  -4.357 132.524  0.00  0.00    +0.000 OA
ATOM     13  C   UNL     1      -3.071  -2.029 133.190  0.00  0.00    +0.000 C 
ATOM     14  C   UNL     1      -3.591  -0.585 133.295  0.00  0.00    +0.000 C 
ATOM     15  S   UNL     1      -2.607   0.754 134.033  0.00  0.00    +0.000 S 
ATOM     16  S   UNL     1      -4.195   2.025 134.534  0.00  0.00    +0.000 S 
ATOM     17  C   UNL     1      -3.618   3.711 134.171  0.00  0.00    +0.000 C 
ATOM     18  C   UNL     1      -4.584   4.899 134.142  0.00  0.00    +0.000 C 
ATOM     19  N   UNL     1      -4.895   5.325 132.785  0.00  0.00    +0.000 N 
ATOM     20  C   UNL     1      -5.810   4.843 131.971  0.00  0.00    +0.000 C 
ATOM     21  O   UNL     1      -6.120   5.608 131.006  0.00  0.00    +0.000 OA
ATOM     22  C   UNL     1      -6.172   3.416 131.953  0.00  0.00    +0.000 C 
ATOM     23  N   UNL     1      -7.531   3.645 131.291  0.00  0.00    +0.000 N 
ATOM     24  C   UNL     1      -8.141   3.395 130.123  0.00  0.00    +0.000 C 
ATOM     25  O   UNL     1      -9.379   3.432 130.141  0.00  0.00    +0.000 OA
ATOM     26  H   UNL     1      -9.177   1.520 129.637  0.00  0.00    +0.000 HD
ATOM     27  H   UNL     1      -4.770   0.277 129.159  0.00  0.00    +0.000 HD
ATOM     28  H   UNL     1      -5.347  -3.992 131.430  0.00  0.00    +0.000 HD
ATOM     29  H   UNL     1      -4.632   6.275 132.519  0.00  0.00    +0.000 HD
ATOM     30  H   UNL     1      -8.347   3.440 131.829  0.00  0.00    +0.000 HD
ENDROOT
BRANCH  18  31
ATOM     31  C   UNL     1      -4.017   6.192 134.819  0.00  0.00    +0.000 C 
ATOM     32  O   UNL     1      -3.248   6.935 134.192  0.00  0.00    +0.000 OA
ATOM     33  N   UNL     1      -4.562   6.554 136.031  0.00  0.00    +0.000 N 
ATOM     34  C   UNL     1      -4.774   5.718 137.194  0.00  0.00    +0.000 C 
ATOM     35  C   UNL     1      -5.962   6.369 137.826  0.00  0.00    +0.000 C 
ATOM     36  C   UNL     1      -5.603   7.835 137.731  0.00  0.00    +0.000 C 
ATOM     37  C   UNL     1      -4.740   7.959 136.458  0.00  0.00    +0.000 C 
BRANCH  37  38
ATOM     38  C   UNL     1      -3.436   8.617 136.935  0.00  0.00    +0.000 C 
ATOM     39  O   UNL     1      -3.111   8.580 138.122  0.00  0.00    +0.000 OA
ATOM     40  N   UNL     1      -2.704   9.313 135.982  0.00  0.00    +0.000 N 
ATOM     41  H   UNL     1      -3.133   9.602 135.107  0.00  0.00    +0.000 HD
BRANCH  40  42
ATOM     42  C   UNL     1      -1.349   9.838 136.249  0.00  0.00    +0.000 C 
BRANCH  42  43
ATOM     43  C   UNL     1      -1.095  11.155 135.437  0.00  0.00    +0.000 C 
ATOM     44  O   UNL     1      -0.169  11.915 135.713  0.00  0.00    +0.000 OA
ATOM     45  N   UNL     1      -1.970  11.398 134.393  0.00  0.00    +0.000 N 
ATOM     46  H   UNL     1      -2.690  10.725 134.194  0.00  0.00    +0.000 HD
BRANCH  45  47
ATOM     47  C   UNL     1      -1.882  12.598 133.556  0.00  0.00    +0.000 C 
BRANCH  47  48
ATOM     48  C   UNL     1      -1.007  12.494 132.291  0.00  0.00    +0.000 C 
ATOM     49  N   UNL     1      -1.460  13.071 131.139  0.00  0.00    +0.000 N 
ATOM     50  O   UNL     1       0.077  11.915 132.285  0.00  0.00    +0.000 OA
ATOM     51  H   UNL     1      -2.325  13.566 131.022  0.00  0.00    +0.000 HD
ATOM     52  H   UNL     1      -0.865  12.985 130.323  0.00  0.00    +0.000 HD
ENDBRANCH  47  48
ENDBRANCH  45  47
ENDBRANCH  42  43
BRANCH  42  53
ATOM     53  C   UNL     1      -0.279   8.783 135.882  0.00  0.00    +0.000 C 
BRANCH  53  54
ATOM     54  C   UNL     1       0.082   8.797 134.393  0.00  0.00    +0.000 C 
BRANCH  54  55
ATOM     55  C   UNL     1       0.112   7.445 133.737  0.00  0.00    +0.000 C 
BRANCH  55  56
ATOM     56  N   UNL     1      -0.623   7.454 132.483  0.00  0.00    +0.000 N 
ATOM     57  C   UNL     1      -1.116   6.330 131.925  0.00  0.00    +0.000 C 
ATOM     58  N   UNL     1      -1.083   5.161 132.458  0.00  0.00    +0.000 NA
ATOM     59  N   UNL     1      -1.697   6.464 130.729  0.00  0.00    +0.000 N 
ATOM     60  H   UNL     1      -0.529   8.284 131.903  0.00  0.00    +0.000 HD
ATOM     61  H   UNL     1      -0.600   5.227 133.353  0.00  0.00    +0.000 HD
ATOM     62  H   UNL     1      -1.833   7.332 130.243  0.00  0.00    +0.000 HD
ATOM     63  H   UNL     1      -2.140   5.627 130.372  0.00  0.00    +0.000 HD
ENDBRANCH  55  56
ENDBRANCH  54  55
ENDBRANCH  53  54
ENDBRANCH  42  53
ENDBRANCH  40  42
ENDBRANCH  37  38
ENDBRANCH  18  31
BRANCH   1  65
ATOM     64  C   UNL     1      -8.083   4.207 127.404  0.00  0.00    +0.000 C 
ATOM     65  C   UNL     1      -6.906   3.391 127.945  0.00  0.00    +0.000 C 
ATOM     66  C   UNL     1      -6.431   2.567 126.708  0.00  0.00    +0.000 C 
ENDBRANCH   1  65
BRANCH   9  67
ATOM     67  C   UNL     1      -6.313  -1.657 133.297  0.00  0.00    +0.000 C 
BRANCH  67  68
ATOM     68  C   UNL     1      -6.960  -2.760 134.070  0.00  0.00    +0.000 A 
ATOM     69  C   UNL     1      -6.257  -3.065 135.149  0.00  0.00    +0.000 A 
ATOM     70  C   UNL     1      -6.766  -3.785 136.186  0.00  0.00    +0.000 A 
ATOM     71  C   UNL     1      -7.871  -4.589 136.087  0.00  0.00    +0.000 A 
ATOM     72  C   UNL     1      -8.517  -4.490 134.890  0.00  0.00    +0.000 A 
ATOM     73  C   UNL     1      -8.118  -3.522 133.917  0.00  0.00    +0.000 A 
BRANCH  71  74
ATOM     74  O   UNL     1      -8.259  -5.597 136.930  0.00  0.00    +0.000 OA
ATOM     75  H   UNL     1      -9.161  -5.769 137.272  0.00  0.00    +0.000 HD
ENDBRANCH  71  74
ENDBRANCH  67  68
ENDBRANCH   9  67
BRANCH   5  76
ATOM     76  C   UNL     1      -6.873  -1.985 128.588  0.00  0.00    +0.000 C 
BRANCH  76  77
ATOM     77  C   UNL     1      -7.004  -2.225 127.109  0.00  0.00    +0.000 A 
ATOM     78  C   UNL     1      -8.162  -2.731 126.492  0.00  0.00    +0.000 A 
ATOM     79  C   UNL     1      -8.134  -3.325 125.252  0.00  0.00    +0.000 A 
ATOM     80  C   UNL     1      -7.018  -3.117 124.476  0.00  0.00    +0.000 A 
ATOM     81  C   UNL     1      -5.897  -2.472 125.010  0.00  0.00    +0.000 A 
ATOM     82  C   UNL     1      -5.863  -2.080 126.340  0.00  0.00    +0.000 A 
ENDBRANCH  76  77
ENDBRANCH   5  76
BRANCH  22  83
ATOM     83  C   UNL     1      -5.105   2.443 131.377  0.00  0.00    +0.000 C 
BRANCH  83  84
ATOM     84  C   UNL     1      -3.988   2.937 130.497  0.00  0.00    +0.000 C 
ATOM     85  N   UNL     1      -3.840   2.375 129.272  0.00  0.00    +0.000 N 
ATOM     86  O   UNL     1      -3.240   3.818 130.859  0.00  0.00    +0.000 OA
ATOM     87  H   UNL     1      -4.094   1.411 129.128  0.00  0.00    +0.000 HD
ATOM     88  H   UNL     1      -2.925   2.503 128.874  0.00  0.00    +0.000 HD
ENDBRANCH  83  84
ENDBRANCH  22  83
TORSDOF 18
ENDMDL
