MODEL 1
REMARK VINA RESULT:      -7.7      0.000      0.000
REMARK  Name = CHEMBL514975
REMARK  6 active torsions:
REMARK  status: ('A' for Active; 'I' for Inactive)
REMARK    1  A    between atoms: C_2  and  C_3
REMARK    2  A    between atoms: C_6  and  C_7
REMARK    3  A    between atoms: N_16  and  C_17
REMARK    4  A    between atoms: N_16  and  C_21
REMARK    5  A    between atoms: C_17  and  C_18
REMARK    6  A    between atoms: C_21  and  C_22
REMARK                            x       y       z     vdW  Elec       q    Type
REMARK                         _______ _______ _______ _____ _____    ______ ____
ROOT
ATOM      1  O   UNL     1      -9.946   6.377 132.747  0.00  0.00    +0.000 OA
ATOM      2  C   UNL     1      -9.322   6.118 131.712  0.00  0.00    +0.000 C 
ATOM      3  N   UNL     1      -9.894   5.622 130.528  0.00  0.00    +0.000 N 
ENDROOT
BRANCH   2   4
ATOM      4  C   UNL     1      -7.869   6.329 131.839  0.00  0.00    +0.000 A 
ATOM      5  C   UNL     1      -7.089   7.057 130.944  0.00  0.00    +0.000 A 
ATOM      6  C   UNL     1      -5.709   6.971 131.031  0.00  0.00    +0.000 A 
ATOM      7  C   UNL     1      -5.103   6.342 132.131  0.00  0.00    +0.000 A 
ATOM      8  C   UNL     1      -5.903   5.752 133.111  0.00  0.00    +0.000 A 
ATOM      9  C   UNL     1      -7.274   5.728 132.954  0.00  0.00    +0.000 A 
BRANCH   7  10
ATOM     10  C   UNL     1      -3.651   6.349 132.255  0.00  0.00    +0.000 A 
ATOM     11  C   UNL     1      -3.022   7.554 132.628  0.00  0.00    +0.000 A 
ATOM     12  C   UNL     1      -1.637   7.660 132.643  0.00  0.00    +0.000 A 
ATOM     13  C   UNL     1      -0.860   6.539 132.367  0.00  0.00    +0.000 A 
ATOM     14  C   UNL     1      -1.464   5.324 132.045  0.00  0.00    +0.000 A 
ATOM     15  C   UNL     1      -2.853   5.227 131.978  0.00  0.00    +0.000 A 
ATOM     16 CL   UNL     1      -3.515   3.695 131.513  0.00  0.00    +0.000 Cl
ENDBRANCH   7  10
ENDBRANCH   2   4
BRANCH   3  17
ATOM     17  C   UNL     1     -11.347   5.536 130.402  0.00  0.00    +0.000 C 
BRANCH  17  18
ATOM     18  C   UNL     1     -12.032   6.598 129.610  0.00  0.00    +0.000 C 
ATOM     19  C   UNL     1     -12.766   7.762 130.249  0.00  0.00    +0.000 C 
ATOM     20  C   UNL     1     -11.472   7.998 129.552  0.00  0.00    +0.000 C 
ENDBRANCH  17  18
ENDBRANCH   3  17
BRANCH   3  21
ATOM     21  C   UNL     1      -9.109   4.739 129.651  0.00  0.00    +0.000 C 
BRANCH  21  22
ATOM     22  C   UNL     1      -9.112   3.200 129.797  0.00  0.00    +0.000 C 
ATOM     23  C   UNL     1      -7.950   2.758 130.670  0.00  0.00    +0.000 C 
ATOM     24  C   UNL     1      -7.842   1.297 130.344  0.00  0.00    +0.000 C 
ATOM     25  C   UNL     1      -8.205   1.261 128.875  0.00  0.00    +0.000 C 
ATOM     26  O   UNL     1      -9.056   2.392 128.618  0.00  0.00    +0.000 OA
ENDBRANCH  21  22
ENDBRANCH   3  21
TORSDOF 6
ENDMDL
MODEL 2
REMARK VINA RESULT:      -7.5      7.325      8.991
REMARK  Name = CHEMBL514975
REMARK  6 active torsions:
REMARK  status: ('A' for Active; 'I' for Inactive)
REMARK    1  A    between atoms: C_2  and  C_3
REMARK    2  A    between atoms: C_6  and  C_7
REMARK    3  A    between atoms: N_16  and  C_17
REMARK    4  A    between atoms: N_16  and  C_21
REMARK    5  A    between atoms: C_17  and  C_18
REMARK    6  A    between atoms: C_21  and  C_22
REMARK                            x       y       z     vdW  Elec       q    Type
REMARK                         _______ _______ _______ _____ _____    ______ ____
ROOT
ATOM      1  O   UNL     1      -5.278   2.900 125.279  0.00  0.00    +0.000 OA
ATOM      2  C   UNL     1      -6.072   1.959 125.161  0.00  0.00    +0.000 C 
ATOM      3  N   UNL     1      -7.181   1.943 124.298  0.00  0.00    +0.000 N 
ENDROOT
BRANCH   2   4
ATOM      4  C   UNL     1      -5.783   0.836 126.070  0.00  0.00    +0.000 A 
ATOM      5  C   UNL     1      -5.335  -0.419 125.666  0.00  0.00    +0.000 A 
ATOM      6  C   UNL     1      -5.344  -1.462 126.579  0.00  0.00    +0.000 A 
ATOM      7  C   UNL     1      -5.588  -1.214 127.940  0.00  0.00    +0.000 A 
ATOM      8  C   UNL     1      -5.881   0.085 128.360  0.00  0.00    +0.000 A 
ATOM      9  C   UNL     1      -5.998   1.097 127.427  0.00  0.00    +0.000 A 
BRANCH   7  10
ATOM     10  C   UNL     1      -5.495  -2.307 128.899  0.00  0.00    +0.000 A 
ATOM     11  C   UNL     1      -4.221  -2.646 129.397  0.00  0.00    +0.000 A 
ATOM     12  C   UNL     1      -4.048  -3.755 130.216  0.00  0.00    +0.000 A 
ATOM     13  C   UNL     1      -5.157  -4.491 130.618  0.00  0.00    +0.000 A 
ATOM     14  C   UNL     1      -6.434  -4.141 130.175  0.00  0.00    +0.000 A 
ATOM     15  C   UNL     1      -6.606  -3.061 129.312  0.00  0.00    +0.000 A 
ATOM     16 CL   UNL     1      -8.218  -2.735 128.768  0.00  0.00    +0.000 Cl
ENDBRANCH   7  10
ENDBRANCH   2   4
BRANCH   3  17
ATOM     17  C   UNL     1      -7.367   3.022 123.331  0.00  0.00    +0.000 C 
BRANCH  17  18
ATOM     18  C   UNL     1      -6.608   2.938 122.051  0.00  0.00    +0.000 C 
ATOM     19  C   UNL     1      -6.907   3.819 120.853  0.00  0.00    +0.000 C 
ATOM     20  C   UNL     1      -5.664   4.040 121.641  0.00  0.00    +0.000 C 
ENDBRANCH  17  18
ENDBRANCH   3  17
BRANCH   3  21
ATOM     21  C   UNL     1      -8.385   1.183 124.669  0.00  0.00    +0.000 C 
BRANCH  21  22
ATOM     22  C   UNL     1      -8.702  -0.214 124.088  0.00  0.00    +0.000 C 
ATOM     23  C   UNL     1      -8.916  -1.209 125.216  0.00  0.00    +0.000 C 
ATOM     24  C   UNL     1      -8.762  -2.527 124.514  0.00  0.00    +0.000 C 
ATOM     25  C   UNL     1      -7.695  -2.228 123.484  0.00  0.00    +0.000 C 
ATOM     26  O   UNL     1      -7.765  -0.821 123.192  0.00  0.00    +0.000 OA
ENDBRANCH  21  22
ENDBRANCH   3  21
TORSDOF 6
ENDMDL
MODEL 3
REMARK VINA RESULT:      -7.4      6.361     10.839
REMARK  Name = CHEMBL514975
REMARK  6 active torsions:
REMARK  status: ('A' for Active; 'I' for Inactive)
REMARK    1  A    between atoms: C_2  and  C_3
REMARK    2  A    between atoms: C_6  and  C_7
REMARK    3  A    between atoms: N_16  and  C_17
REMARK    4  A    between atoms: N_16  and  C_21
REMARK    5  A    between atoms: C_17  and  C_18
REMARK    6  A    between atoms: C_21  and  C_22
REMARK                            x       y       z     vdW  Elec       q    Type
REMARK                         _______ _______ _______ _____ _____    ______ ____
ROOT
ATOM      1  O   UNL     1      -5.870  -5.011 130.539  0.00  0.00    +0.000 OA
ATOM      2  C   UNL     1      -6.314  -3.860 130.632  0.00  0.00    +0.000 C 
ATOM      3  N   UNL     1      -6.270  -3.070 131.793  0.00  0.00    +0.000 N 
ENDROOT
BRANCH   2   4
ATOM      4  C   UNL     1      -6.962  -3.385 129.396  0.00  0.00    +0.000 A 
ATOM      5  C   UNL     1      -8.279  -3.656 129.034  0.00  0.00    +0.000 A 
ATOM      6  C   UNL     1      -8.692  -3.374 127.741  0.00  0.00    +0.000 A 
ATOM      7  C   UNL     1      -7.871  -2.627 126.879  0.00  0.00    +0.000 A 
ATOM      8  C   UNL     1      -6.609  -2.220 127.314  0.00  0.00    +0.000 A 
ATOM      9  C   UNL     1      -6.151  -2.615 128.556  0.00  0.00    +0.000 A 
BRANCH   7  10
ATOM     10  C   UNL     1      -8.363  -2.254 125.560  0.00  0.00    +0.000 A 
ATOM     11  C   UNL     1      -8.457  -3.261 124.577  0.00  0.00    +0.000 A 
ATOM     12  C   UNL     1      -8.799  -2.948 123.268  0.00  0.00    +0.000 A 
ATOM     13  C   UNL     1      -9.137  -1.639 122.940  0.00  0.00    +0.000 A 
ATOM     14  C   UNL     1      -9.099  -0.637 123.910  0.00  0.00    +0.000 A 
ATOM     15  C   UNL     1      -8.705  -0.936 125.213  0.00  0.00    +0.000 A 
ATOM     16 CL   UNL     1      -8.632   0.380 126.338  0.00  0.00    +0.000 Cl
ENDBRANCH   7  10
ENDBRANCH   2   4
BRANCH   3  17
ATOM     17  C   UNL     1      -5.518  -3.529 132.958  0.00  0.00    +0.000 C 
BRANCH  17  18
ATOM     18  C   UNL     1      -6.243  -4.362 133.960  0.00  0.00    +0.000 C 
ATOM     19  C   UNL     1      -5.740  -5.714 134.429  0.00  0.00    +0.000 C 
ATOM     20  C   UNL     1      -5.693  -4.547 135.352  0.00  0.00    +0.000 C 
ENDBRANCH  17  18
ENDBRANCH   3  17
BRANCH   3  21
ATOM     21  C   UNL     1      -7.335  -2.086 132.048  0.00  0.00    +0.000 C 
BRANCH  21  22
ATOM     22  C   UNL     1      -7.211  -0.599 131.644  0.00  0.00    +0.000 C 
ATOM     23  C   UNL     1      -8.279  -0.248 130.623  0.00  0.00    +0.000 C 
ATOM     24  C   UNL     1      -7.751   1.028 130.034  0.00  0.00    +0.000 C 
ATOM     25  C   UNL     1      -6.255   0.800 130.043  0.00  0.00    +0.000 C 
ATOM     26  O   UNL     1      -5.972  -0.129 131.105  0.00  0.00    +0.000 OA
ENDBRANCH  21  22
ENDBRANCH   3  21
TORSDOF 6
ENDMDL
MODEL 4
REMARK VINA RESULT:      -7.3      7.780      9.315
REMARK  Name = CHEMBL514975
REMARK  6 active torsions:
REMARK  status: ('A' for Active; 'I' for Inactive)
REMARK    1  A    between atoms: C_2  and  C_3
REMARK    2  A    between atoms: C_6  and  C_7
REMARK    3  A    between atoms: N_16  and  C_17
REMARK    4  A    between atoms: N_16  and  C_21
REMARK    5  A    between atoms: C_17  and  C_18
REMARK    6  A    between atoms: C_21  and  C_22
REMARK                            x       y       z     vdW  Elec       q    Type
REMARK                         _______ _______ _______ _____ _____    ______ ____
ROOT
ATOM      1  O   UNL     1     -10.019  -0.516 125.559  0.00  0.00    +0.000 OA
ATOM      2  C   UNL     1      -8.787  -0.466 125.649  0.00  0.00    +0.000 C 
ATOM      3  N   UNL     1      -7.924   0.014 124.650  0.00  0.00    +0.000 N 
ENDROOT
BRANCH   2   4
ATOM      4  C   UNL     1      -8.273  -1.017 126.916  0.00  0.00    +0.000 A 
ATOM      5  C   UNL     1      -7.645  -0.272 127.911  0.00  0.00    +0.000 A 
ATOM      6  C   UNL     1      -6.983  -0.937 128.931  0.00  0.00    +0.000 A 
ATOM      7  C   UNL     1      -7.127  -2.326 129.086  0.00  0.00    +0.000 A 
ATOM      8  C   UNL     1      -7.897  -3.043 128.168  0.00  0.00    +0.000 A 
ATOM      9  C   UNL     1      -8.447  -2.395 127.080  0.00  0.00    +0.000 A 
BRANCH   7  10
ATOM     10  C   UNL     1      -6.505  -2.992 130.223  0.00  0.00    +0.000 A 
ATOM     11  C   UNL     1      -7.247  -3.101 131.416  0.00  0.00    +0.000 A 
ATOM     12  C   UNL     1      -6.668  -3.612 132.571  0.00  0.00    +0.000 A 
ATOM     13  C   UNL     1      -5.366  -4.101 132.528  0.00  0.00    +0.000 A 
ATOM     14  C   UNL     1      -4.632  -4.048 131.343  0.00  0.00    +0.000 A 
ATOM     15  C   UNL     1      -5.191  -3.488 130.195  0.00  0.00    +0.000 A 
ATOM     16 CL   UNL     1      -4.187  -3.412 128.785  0.00  0.00    +0.000 Cl
ENDBRANCH   7  10
ENDBRANCH   2   4
BRANCH   3  17
ATOM     17  C   UNL     1      -8.474   0.658 123.460  0.00  0.00    +0.000 C 
BRANCH  17  18
ATOM     18  C   UNL     1      -7.801   1.898 122.976  0.00  0.00    +0.000 C 
ATOM     19  C   UNL     1      -8.543   3.018 122.272  0.00  0.00    +0.000 C 
ATOM     20  C   UNL     1      -8.041   3.221 123.658  0.00  0.00    +0.000 C 
ENDBRANCH  17  18
ENDBRANCH   3  17
BRANCH   3  21
ATOM     21  C   UNL     1      -6.570  -0.550 124.521  0.00  0.00    +0.000 C 
BRANCH  21  22
ATOM     22  C   UNL     1      -6.312  -1.998 124.044  0.00  0.00    +0.000 C 
ATOM     23  C   UNL     1      -5.505  -2.753 125.086  0.00  0.00    +0.000 C 
ATOM     24  C   UNL     1      -4.982  -3.921 124.302  0.00  0.00    +0.000 C 
ATOM     25  C   UNL     1      -4.744  -3.318 122.934  0.00  0.00    +0.000 C 
ATOM     26  O   UNL     1      -5.647  -2.207 122.794  0.00  0.00    +0.000 OA
ENDBRANCH  21  22
ENDBRANCH   3  21
TORSDOF 6
ENDMDL
MODEL 5
REMARK VINA RESULT:      -7.3      3.085      6.062
REMARK  Name = CHEMBL514975
REMARK  6 active torsions:
REMARK  status: ('A' for Active; 'I' for Inactive)
REMARK    1  A    between atoms: C_2  and  C_3
REMARK    2  A    between atoms: C_6  and  C_7
REMARK    3  A    between atoms: N_16  and  C_17
REMARK    4  A    between atoms: N_16  and  C_21
REMARK    5  A    between atoms: C_17  and  C_18
REMARK    6  A    between atoms: C_21  and  C_22
REMARK                            x       y       z     vdW  Elec       q    Type
REMARK                         _______ _______ _______ _____ _____    ______ ____
ROOT
ATOM      1  O   UNL     1     -11.773   3.769 129.981  0.00  0.00    +0.000 OA
ATOM      2  C   UNL     1     -10.731   3.987 130.610  0.00  0.00    +0.000 C 
ATOM      3  N   UNL     1     -10.399   5.208 131.221  0.00  0.00    +0.000 N 
ENDROOT
BRANCH   2   4
ATOM      4  C   UNL     1      -9.807   2.839 130.624  0.00  0.00    +0.000 A 
ATOM      5  C   UNL     1      -8.889   2.545 129.620  0.00  0.00    +0.000 A 
ATOM      6  C   UNL     1      -8.261   1.308 129.624  0.00  0.00    +0.000 A 
ATOM      7  C   UNL     1      -8.378   0.456 130.735  0.00  0.00    +0.000 A 
ATOM      8  C   UNL     1      -9.179   0.837 131.812  0.00  0.00    +0.000 A 
ATOM      9  C   UNL     1      -9.904   2.010 131.746  0.00  0.00    +0.000 A 
BRANCH   7  10
ATOM     10  C   UNL     1      -7.631  -0.795 130.764  0.00  0.00    +0.000 A 
ATOM     11  C   UNL     1      -8.102  -1.868 129.981  0.00  0.00    +0.000 A 
ATOM     12  C   UNL     1      -7.509  -3.122 130.061  0.00  0.00    +0.000 A 
ATOM     13  C   UNL     1      -6.383  -3.300 130.858  0.00  0.00    +0.000 A 
ATOM     14  C   UNL     1      -5.870  -2.236 131.601  0.00  0.00    +0.000 A 
ATOM     15  C   UNL     1      -6.493  -0.990 131.565  0.00  0.00    +0.000 A 
ATOM     16 CL   UNL     1      -5.823   0.257 132.564  0.00  0.00    +0.000 Cl
ENDBRANCH   7  10
ENDBRANCH   2   4
BRANCH   3  17
ATOM     17  C   UNL     1     -11.388   6.282 131.286  0.00  0.00    +0.000 C 
BRANCH  17  18
ATOM     18  C   UNL     1     -11.672   7.032 130.028  0.00  0.00    +0.000 C 
ATOM     19  C   UNL     1     -13.035   7.040 129.363  0.00  0.00    +0.000 C 
ATOM     20  C   UNL     1     -12.539   8.265 130.046  0.00  0.00    +0.000 C 
ENDBRANCH  17  18
ENDBRANCH   3  17
BRANCH   3  21
ATOM     21  C   UNL     1      -8.988   5.612 131.331  0.00  0.00    +0.000 C 
BRANCH  21  22
ATOM     22  C   UNL     1      -8.134   5.324 132.587  0.00  0.00    +0.000 C 
ATOM     23  C   UNL     1      -7.004   4.370 132.240  0.00  0.00    +0.000 C 
ATOM     24  C   UNL     1      -6.583   3.868 133.590  0.00  0.00    +0.000 C 
ATOM     25  C   UNL     1      -7.894   3.810 134.343  0.00  0.00    +0.000 C 
ATOM     26  O   UNL     1      -8.771   4.784 133.749  0.00  0.00    +0.000 OA
ENDBRANCH  21  22
ENDBRANCH   3  21
TORSDOF 6
ENDMDL
MODEL 6
REMARK VINA RESULT:      -7.2      8.233      9.642
REMARK  Name = CHEMBL514975
REMARK  6 active torsions:
REMARK  status: ('A' for Active; 'I' for Inactive)
REMARK    1  A    between atoms: C_2  and  C_3
REMARK    2  A    between atoms: C_6  and  C_7
REMARK    3  A    between atoms: N_16  and  C_17
REMARK    4  A    between atoms: N_16  and  C_21
REMARK    5  A    between atoms: C_17  and  C_18
REMARK    6  A    between atoms: C_21  and  C_22
REMARK                            x       y       z     vdW  Elec       q    Type
REMARK                         _______ _______ _______ _____ _____    ______ ____
ROOT
ATOM      1  O   UNL     1      -9.738  -2.332 125.249  0.00  0.00    +0.000 OA
ATOM      2  C   UNL     1      -8.758  -1.668 125.605  0.00  0.00    +0.000 C 
ATOM      3  N   UNL     1      -8.095  -0.718 124.809  0.00  0.00    +0.000 N 
ENDROOT
BRANCH   2   4
ATOM      4  C   UNL     1      -8.290  -2.001 126.962  0.00  0.00    +0.000 A 
ATOM      5  C   UNL     1      -7.555  -1.149 127.782  0.00  0.00    +0.000 A 
ATOM      6  C   UNL     1      -6.960  -1.662 128.923  0.00  0.00    +0.000 A 
ATOM      7  C   UNL     1      -7.270  -2.959 129.365  0.00  0.00    +0.000 A 
ATOM      8  C   UNL     1      -8.140  -3.751 128.614  0.00  0.00    +0.000 A 
ATOM      9  C   UNL     1      -8.629  -3.282 127.411  0.00  0.00    +0.000 A 
BRANCH   7  10
ATOM     10  C   UNL     1      -6.712  -3.445 130.620  0.00  0.00    +0.000 A 
ATOM     11  C   UNL     1      -5.845  -4.556 130.576  0.00  0.00    +0.000 A 
ATOM     12  C   UNL     1      -5.379  -5.143 131.746  0.00  0.00    +0.000 A 
ATOM     13  C   UNL     1      -5.703  -4.577 132.975  0.00  0.00    +0.000 A 
ATOM     14  C   UNL     1      -6.519  -3.447 133.037  0.00  0.00    +0.000 A 
ATOM     15  C   UNL     1      -7.031  -2.886 131.869  0.00  0.00    +0.000 A 
ATOM     16 CL   UNL     1      -8.082  -1.519 132.044  0.00  0.00    +0.000 Cl
ENDBRANCH   7  10
ENDBRANCH   2   4
BRANCH   3  17
ATOM     17  C   UNL     1      -8.657  -0.332 123.517  0.00  0.00    +0.000 C 
BRANCH  17  18
ATOM     18  C   UNL     1      -9.215   1.046 123.394  0.00  0.00    +0.000 C 
ATOM     19  C   UNL     1     -10.580   1.435 123.930  0.00  0.00    +0.000 C 
ATOM     20  C   UNL     1      -9.351   1.933 124.605  0.00  0.00    +0.000 C 
ENDBRANCH  17  18
ENDBRANCH   3  17
BRANCH   3  21
ATOM     21  C   UNL     1      -6.652  -0.494 124.987  0.00  0.00    +0.000 C 
BRANCH  21  22
ATOM     22  C   UNL     1      -5.589  -1.541 124.580  0.00  0.00    +0.000 C 
ATOM     23  C   UNL     1      -5.845  -2.016 123.160  0.00  0.00    +0.000 C 
ATOM     24  C   UNL     1      -5.049  -3.287 123.100  0.00  0.00    +0.000 C 
ATOM     25  C   UNL     1      -5.204  -3.838 124.501  0.00  0.00    +0.000 C 
ATOM     26  O   UNL     1      -5.439  -2.721 125.376  0.00  0.00    +0.000 OA
ENDBRANCH  21  22
ENDBRANCH   3  21
TORSDOF 6
ENDMDL
MODEL 7
REMARK VINA RESULT:      -7.2      2.385      3.539
REMARK  Name = CHEMBL514975
REMARK  6 active torsions:
REMARK  status: ('A' for Active; 'I' for Inactive)
REMARK    1  A    between atoms: C_2  and  C_3
REMARK    2  A    between atoms: C_6  and  C_7
REMARK    3  A    between atoms: N_16  and  C_17
REMARK    4  A    between atoms: N_16  and  C_21
REMARK    5  A    between atoms: C_17  and  C_18
REMARK    6  A    between atoms: C_21  and  C_22
REMARK                            x       y       z     vdW  Elec       q    Type
REMARK                         _______ _______ _______ _____ _____    ______ ____
ROOT
ATOM      1  O   UNL     1      -8.345   6.332 131.270  0.00  0.00    +0.000 OA
ATOM      2  C   UNL     1      -7.333   5.873 130.727  0.00  0.00    +0.000 C 
ATOM      3  N   UNL     1      -7.327   4.836 129.779  0.00  0.00    +0.000 N 
ENDROOT
BRANCH   2   4
ATOM      4  C   UNL     1      -6.083   6.487 131.210  0.00  0.00    +0.000 A 
ATOM      5  C   UNL     1      -5.325   7.412 130.499  0.00  0.00    +0.000 A 
ATOM      6  C   UNL     1      -4.049   7.720 130.944  0.00  0.00    +0.000 A 
ATOM      7  C   UNL     1      -3.610   7.281 132.204  0.00  0.00    +0.000 A 
ATOM      8  C   UNL     1      -4.448   6.481 132.983  0.00  0.00    +0.000 A 
ATOM      9  C   UNL     1      -5.666   6.070 132.479  0.00  0.00    +0.000 A 
BRANCH   7  10
ATOM     10  C   UNL     1      -2.304   7.698 132.698  0.00  0.00    +0.000 A 
ATOM     11  C   UNL     1      -2.132   9.050 133.058  0.00  0.00    +0.000 A 
ATOM     12  C   UNL     1      -0.881   9.537 133.416  0.00  0.00    +0.000 A 
ATOM     13  C   UNL     1       0.198   8.663 133.503  0.00  0.00    +0.000 A 
ATOM     14  C   UNL     1       0.036   7.311 133.199  0.00  0.00    +0.000 A 
ATOM     15  C   UNL     1      -1.205   6.828 132.788  0.00  0.00    +0.000 A 
ATOM     16 CL   UNL     1      -1.301   5.148 132.375  0.00  0.00    +0.000 Cl
ENDBRANCH   7  10
ENDBRANCH   2   4
BRANCH   3  17
ATOM     17  C   UNL     1      -8.588   4.334 129.240  0.00  0.00    +0.000 C 
BRANCH  17  18
ATOM     18  C   UNL     1      -9.187   3.135 129.894  0.00  0.00    +0.000 C 
ATOM     19  C   UNL     1      -9.328   2.999 131.398  0.00  0.00    +0.000 C 
ATOM     20  C   UNL     1     -10.538   3.214 130.559  0.00  0.00    +0.000 C 
ENDBRANCH  17  18
ENDBRANCH   3  17
BRANCH   3  21
ATOM     21  C   UNL     1      -6.174   3.924 129.700  0.00  0.00    +0.000 C 
BRANCH  21  22
ATOM     22  C   UNL     1      -5.021   4.123 128.690  0.00  0.00    +0.000 C 
ATOM     23  C   UNL     1      -3.703   4.273 129.430  0.00  0.00    +0.000 C 
ATOM     24  C   UNL     1      -2.816   4.883 128.384  0.00  0.00    +0.000 C 
ATOM     25  C   UNL     1      -3.772   5.778 127.625  0.00  0.00    +0.000 C 
ATOM     26  O   UNL     1      -5.088   5.215 127.768  0.00  0.00    +0.000 OA
ENDBRANCH  21  22
ENDBRANCH   3  21
TORSDOF 6
ENDMDL
MODEL 8
REMARK VINA RESULT:      -7.1      5.170      8.612
REMARK  Name = CHEMBL514975
REMARK  6 active torsions:
REMARK  status: ('A' for Active; 'I' for Inactive)
REMARK    1  A    between atoms: C_2  and  C_3
REMARK    2  A    between atoms: C_6  and  C_7
REMARK    3  A    between atoms: N_16  and  C_17
REMARK    4  A    between atoms: N_16  and  C_21
REMARK    5  A    between atoms: C_17  and  C_18
REMARK    6  A    between atoms: C_21  and  C_22
REMARK                            x       y       z     vdW  Elec       q    Type
REMARK                         _______ _______ _______ _____ _____    ______ ____
ROOT
ATOM      1  O   UNL     1      -9.360   0.885 131.584  0.00  0.00    +0.000 OA
ATOM      2  C   UNL     1      -8.180   0.590 131.361  0.00  0.00    +0.000 C 
ATOM      3  N   UNL     1      -7.083   1.021 132.126  0.00  0.00    +0.000 N 
ENDROOT
BRANCH   2   4
ATOM      4  C   UNL     1      -8.004  -0.237 130.155  0.00  0.00    +0.000 A 
ATOM      5  C   UNL     1      -7.855  -1.621 130.154  0.00  0.00    +0.000 A 
ATOM      6  C   UNL     1      -7.444  -2.253 128.991  0.00  0.00    +0.000 A 
ATOM      7  C   UNL     1      -7.392  -1.546 127.778  0.00  0.00    +0.000 A 
ATOM      8  C   UNL     1      -7.702  -0.185 127.762  0.00  0.00    +0.000 A 
ATOM      9  C   UNL     1      -7.985   0.468 128.946  0.00  0.00    +0.000 A 
BRANCH   7  10
ATOM     10  C   UNL     1      -7.055  -2.250 126.547  0.00  0.00    +0.000 A 
ATOM     11  C   UNL     1      -5.715  -2.219 126.111  0.00  0.00    +0.000 A 
ATOM     12  C   UNL     1      -5.353  -2.763 124.885  0.00  0.00    +0.000 A 
ATOM     13  C   UNL     1      -6.307  -3.422 124.117  0.00  0.00    +0.000 A 
ATOM     14  C   UNL     1      -7.629  -3.506 124.556  0.00  0.00    +0.000 A 
ATOM     15  C   UNL     1      -8.008  -2.917 125.760  0.00  0.00    +0.000 A 
ATOM     16 CL   UNL     1      -9.681  -3.021 126.198  0.00  0.00    +0.000 Cl
ENDBRANCH   7  10
ENDBRANCH   2   4
BRANCH   3  17
ATOM     17  C   UNL     1      -7.305   1.741 133.378  0.00  0.00    +0.000 C 
BRANCH  17  18
ATOM     18  C   UNL     1      -7.710   3.173 133.285  0.00  0.00    +0.000 C 
ATOM     19  C   UNL     1      -9.032   3.694 133.818  0.00  0.00    +0.000 C 
ATOM     20  C   UNL     1      -7.765   4.040 134.518  0.00  0.00    +0.000 C 
ENDBRANCH  17  18
ENDBRANCH   3  17
BRANCH   3  21
ATOM     21  C   UNL     1      -5.775   1.222 131.481  0.00  0.00    +0.000 C 
BRANCH  21  22
ATOM     22  C   UNL     1      -4.680   0.131 131.459  0.00  0.00    +0.000 C 
ATOM     23  C   UNL     1      -4.369  -0.264 130.025  0.00  0.00    +0.000 C 
ATOM     24  C   UNL     1      -3.665  -1.578 130.201  0.00  0.00    +0.000 C 
ATOM     25  C   UNL     1      -4.385  -2.180 131.388  0.00  0.00    +0.000 C 
ATOM     26  O   UNL     1      -4.904  -1.090 132.170  0.00  0.00    +0.000 OA
ENDBRANCH  21  22
ENDBRANCH   3  21
TORSDOF 6
ENDMDL
MODEL 9
REMARK VINA RESULT:      -7.1      5.618      9.016
REMARK  Name = CHEMBL514975
REMARK  6 active torsions:
REMARK  status: ('A' for Active; 'I' for Inactive)
REMARK    1  A    between atoms: C_2  and  C_3
REMARK    2  A    between atoms: C_6  and  C_7
REMARK    3  A    between atoms: N_16  and  C_17
REMARK    4  A    between atoms: N_16  and  C_21
REMARK    5  A    between atoms: C_17  and  C_18
REMARK    6  A    between atoms: C_21  and  C_22
REMARK                            x       y       z     vdW  Elec       q    Type
REMARK                         _______ _______ _______ _____ _____    ______ ____
ROOT
ATOM      1  O   UNL     1      -7.155  -1.575 124.284  0.00  0.00    +0.000 OA
ATOM      2  C   UNL     1      -7.885  -1.234 125.222  0.00  0.00    +0.000 C 
ATOM      3  N   UNL     1      -8.887  -0.252 125.149  0.00  0.00    +0.000 N 
ENDROOT
BRANCH   2   4
ATOM      4  C   UNL     1      -7.575  -1.930 126.484  0.00  0.00    +0.000 A 
ATOM      5  C   UNL     1      -8.460  -2.750 127.178  0.00  0.00    +0.000 A 
ATOM      6  C   UNL     1      -8.143  -3.139 128.471  0.00  0.00    +0.000 A 
ATOM      7  C   UNL     1      -6.861  -2.897 128.992  0.00  0.00    +0.000 A 
ATOM      8  C   UNL     1      -5.924  -2.210 128.219  0.00  0.00    +0.000 A 
ATOM      9  C   UNL     1      -6.286  -1.713 126.983  0.00  0.00    +0.000 A 
BRANCH   7  10
ATOM     10  C   UNL     1      -6.515  -3.401 130.315  0.00  0.00    +0.000 A 
ATOM     11  C   UNL     1      -5.752  -4.583 130.396  0.00  0.00    +0.000 A 
ATOM     12  C   UNL     1      -5.495  -5.182 131.623  0.00  0.00    +0.000 A 
ATOM     13  C   UNL     1      -5.924  -4.564 132.793  0.00  0.00    +0.000 A 
ATOM     14  C   UNL     1      -6.638  -3.366 132.735  0.00  0.00    +0.000 A 
ATOM     15  C   UNL     1      -6.943  -2.789 131.504  0.00  0.00    +0.000 A 
ATOM     16 CL   UNL     1      -7.883  -1.334 131.526  0.00  0.00    +0.000 Cl
ENDBRANCH   7  10
ENDBRANCH   2   4
BRANCH   3  17
ATOM     17  C   UNL     1      -9.243   0.330 123.857  0.00  0.00    +0.000 C 
BRANCH  17  18
ATOM     18  C   UNL     1      -9.226   1.817 123.746  0.00  0.00    +0.000 C 
ATOM     19  C   UNL     1      -7.977   2.605 123.400  0.00  0.00    +0.000 C 
ATOM     20  C   UNL     1      -9.076   2.487 122.403  0.00  0.00    +0.000 C 
ENDBRANCH  17  18
ENDBRANCH   3  17
BRANCH   3  21
ATOM     21  C   UNL     1      -9.214   0.549 126.339  0.00  0.00    +0.000 C 
BRANCH  21  22
ATOM     22  C   UNL     1      -8.167   1.423 127.069  0.00  0.00    +0.000 C 
ATOM     23  C   UNL     1      -8.111   1.047 128.539  0.00  0.00    +0.000 C 
ATOM     24  C   UNL     1      -7.423   2.234 129.148  0.00  0.00    +0.000 C 
ATOM     25  C   UNL     1      -7.950   3.381 128.314  0.00  0.00    +0.000 C 
ATOM     26  O   UNL     1      -8.302   2.847 127.025  0.00  0.00    +0.000 OA
ENDBRANCH  21  22
ENDBRANCH   3  21
TORSDOF 6
ENDMDL
