MODEL 1
REMARK VINA RESULT:     -11.3      0.000      0.000
REMARK  Name = CHEMBL445875
REMARK  6 active torsions:
REMARK  status: ('A' for Active; 'I' for Inactive)
REMARK    1  A    between atoms: C_2  and  C_3
REMARK    2  A    between atoms: C_8  and  C_9
REMARK    3  A    between atoms: C_13  and  C_14
REMARK    4  A    between atoms: C_14  and  N_15
REMARK    5  A    between atoms: C_17  and  C_18
REMARK    6  A    between atoms: C_33  and  N_34
REMARK                            x       y       z     vdW  Elec       q    Type
REMARK                         _______ _______ _______ _____ _____    ______ ____
ROOT
ATOM      1  C   UNL     1      -6.126  -3.490 130.124  0.00  0.00    +0.000 A 
ATOM      2  C   UNL     1      -5.277  -2.381 129.946  0.00  0.00    +0.000 A 
ATOM      3  C   UNL     1      -5.436  -1.492 128.851  0.00  0.00    +0.000 A 
ATOM      4  C   UNL     1      -6.489  -1.757 127.967  0.00  0.00    +0.000 A 
ATOM      5  O   UNL     1      -6.796  -1.085 126.809  0.00  0.00    +0.000 OA
ATOM      6  C   UNL     1      -7.911  -1.691 126.278  0.00  0.00    +0.000 A 
ATOM      7  C   UNL     1      -8.309  -2.730 127.090  0.00  0.00    +0.000 A 
ATOM      8  C   UNL     1      -7.389  -2.798 128.160  0.00  0.00    +0.000 A 
ATOM      9  C   UNL     1      -7.222  -3.656 129.264  0.00  0.00    +0.000 A 
ENDROOT
BRANCH   1  11
ATOM     10  O   UNL     1      -5.470  -5.566 131.018  0.00  0.00    +0.000 OA
ATOM     11  C   UNL     1      -5.971  -4.472 131.263  0.00  0.00    +0.000 C 
ATOM     12  N   UNL     1      -6.291  -4.022 132.569  0.00  0.00    +0.000 N 
ATOM     13  C   UNL     1      -7.564  -3.361 132.864  0.00  0.00    +0.000 C 
ATOM     14  C   UNL     1      -7.377  -2.193 133.818  0.00  0.00    +0.000 C 
ATOM     15  C   UNL     1      -7.038  -2.831 135.405  0.00  0.00    +0.000 C 
ATOM     16  C   UNL     1      -5.499  -3.435 134.829  0.00  0.00    +0.000 C 
ATOM     17  C   UNL     1      -5.608  -4.540 133.768  0.00  0.00    +0.000 C 
BRANCH  15  18
ATOM     18  N   UNL     1      -8.566  -3.275 136.355  0.00  0.00    +0.000 N 
ATOM     19  C   UNL     1      -7.807  -2.711 137.442  0.00  0.00    +0.000 C 
ATOM     20  O   UNL     1      -7.285  -1.550 137.515  0.00  0.00    +0.000 OA
ATOM     21  O   UNL     1      -7.429  -3.536 138.397  0.00  0.00    +0.000 OA
ATOM     22  C   UNL     1      -8.490  -3.285 139.239  0.00  0.00    +0.000 C 
ATOM     23  C   UNL     1      -9.179  -4.467 138.749  0.00  0.00    +0.000 A 
ATOM     24  C   UNL     1      -9.229  -5.674 139.531  0.00  0.00    +0.000 A 
ATOM     25  C   UNL     1     -10.213  -6.641 139.445  0.00  0.00    +0.000 A 
ATOM     26  C   UNL     1     -11.284  -6.191 138.728  0.00  0.00    +0.000 A 
ATOM     27  C   UNL     1     -11.028  -4.979 137.746  0.00  0.00    +0.000 A 
ATOM     28  C   UNL     1      -9.597  -4.380 137.436  0.00  0.00    +0.000 A 
ENDBRANCH  15  18
ENDBRANCH   1  11
BRANCH   6  29
ATOM     29  C   UNL     1      -8.425  -1.215 125.003  0.00  0.00    +0.000 A 
ATOM     30  C   UNL     1      -8.885  -2.111 124.044  0.00  0.00    +0.000 A 
ATOM     31  C   UNL     1      -9.434  -1.612 122.878  0.00  0.00    +0.000 A 
ATOM     32  C   UNL     1      -9.487  -0.243 122.705  0.00  0.00    +0.000 A 
ATOM     33  C   UNL     1      -9.087   0.617 123.731  0.00  0.00    +0.000 A 
ATOM     34  N   UNL     1      -8.548   0.138 124.885  0.00  0.00    +0.000 NA
BRANCH  33  35
ATOM     35  C   UNL     1      -9.279   2.127 123.595  0.00  0.00    +0.000 C 
BRANCH  35  36
ATOM     36  N   UNL     1      -8.031   2.906 123.699  0.00  0.00    +0.000 N 
ATOM     37  C   UNL     1      -7.234   3.091 122.580  0.00  0.00    +0.000 A 
ATOM     38  C   UNL     1      -6.141   3.874 122.617  0.00  0.00    +0.000 A 
ATOM     39  C   UNL     1      -5.810   4.563 123.851  0.00  0.00    +0.000 A 
ATOM     40  C   UNL     1      -6.563   4.410 124.946  0.00  0.00    +0.000 A 
ATOM     41  C   UNL     1      -7.732   3.498 124.931  0.00  0.00    +0.000 A 
ATOM     42  O   UNL     1      -8.406   3.393 125.951  0.00  0.00    +0.000 OA
BRANCH  38  43
ATOM     43  C   UNL     1      -5.266   4.053 121.413  0.00  0.00    +0.000 C 
ATOM     44  F   UNL     1      -4.104   4.673 121.740  0.00  0.00    +0.000 F 
ATOM     45  F   UNL     1      -4.933   2.861 120.856  0.00  0.00    +0.000 F 
ATOM     46  F   UNL     1      -5.847   4.795 120.437  0.00  0.00    +0.000 F 
ENDBRANCH  38  43
ENDBRANCH  35  36
ENDBRANCH  33  35
ENDBRANCH   6  29
TORSDOF 6
ENDMDL
MODEL 2
REMARK VINA RESULT:     -11.2      7.751     10.964
REMARK  Name = CHEMBL445875
REMARK  6 active torsions:
REMARK  status: ('A' for Active; 'I' for Inactive)
REMARK    1  A    between atoms: C_2  and  C_3
REMARK    2  A    between atoms: C_8  and  C_9
REMARK    3  A    between atoms: C_13  and  C_14
REMARK    4  A    between atoms: C_14  and  N_15
REMARK    5  A    between atoms: C_17  and  C_18
REMARK    6  A    between atoms: C_33  and  N_34
REMARK                            x       y       z     vdW  Elec       q    Type
REMARK                         _______ _______ _______ _____ _____    ______ ____
ROOT
ATOM      1  C   UNL     1      -7.386   4.113 134.401  0.00  0.00    +0.000 A 
ATOM      2  C   UNL     1      -8.775   4.035 134.188  0.00  0.00    +0.000 A 
ATOM      3  C   UNL     1      -9.340   3.060 133.326  0.00  0.00    +0.000 A 
ATOM      4  C   UNL     1      -8.454   2.166 132.713  0.00  0.00    +0.000 A 
ATOM      5  O   UNL     1      -8.756   1.189 131.794  0.00  0.00    +0.000 OA
ATOM      6  C   UNL     1      -7.575   0.558 131.479  0.00  0.00    +0.000 A 
ATOM      7  C   UNL     1      -6.539   1.121 132.192  0.00  0.00    +0.000 A 
ATOM      8  C   UNL     1      -7.088   2.170 132.964  0.00  0.00    +0.000 A 
ATOM      9  C   UNL     1      -6.552   3.136 133.837  0.00  0.00    +0.000 A 
ENDROOT
BRANCH   1  11
ATOM     10  O   UNL     1      -7.304   5.431 136.349  0.00  0.00    +0.000 OA
ATOM     11  C   UNL     1      -6.746   5.155 135.291  0.00  0.00    +0.000 C 
ATOM     12  N   UNL     1      -5.473   5.653 134.912  0.00  0.00    +0.000 N 
ATOM     13  C   UNL     1      -5.215   6.158 133.563  0.00  0.00    +0.000 C 
ATOM     14  C   UNL     1      -3.851   5.723 133.056  0.00  0.00    +0.000 C 
ATOM     15  C   UNL     1      -2.633   6.630 133.914  0.00  0.00    +0.000 C 
ATOM     16  C   UNL     1      -3.059   5.795 135.392  0.00  0.00    +0.000 C 
ATOM     17  C   UNL     1      -4.476   6.094 135.904  0.00  0.00    +0.000 C 
BRANCH  15  18
ATOM     18  N   UNL     1      -2.303   8.295 133.169  0.00  0.00    +0.000 N 
ATOM     19  C   UNL     1      -0.936   7.886 133.367  0.00  0.00    +0.000 C 
ATOM     20  O   UNL     1      -0.362   6.832 132.935  0.00  0.00    +0.000 OA
ATOM     21  O   UNL     1      -0.233   8.561 134.253  0.00  0.00    +0.000 OA
ATOM     22  C   UNL     1       0.341   9.432 133.355  0.00  0.00    +0.000 C 
ATOM     23  C   UNL     1      -0.662  10.438 133.663  0.00  0.00    +0.000 A 
ATOM     24  C   UNL     1      -0.351  11.565 134.501  0.00  0.00    +0.000 A 
ATOM     25  C   UNL     1      -0.992  12.788 134.466  0.00  0.00    +0.000 A 
ATOM     26  C   UNL     1      -1.778  12.900 133.355  0.00  0.00    +0.000 A 
ATOM     27  C   UNL     1      -2.217  11.554 132.652  0.00  0.00    +0.000 A 
ATOM     28  C   UNL     1      -1.939  10.115 133.247  0.00  0.00    +0.000 A 
ENDBRANCH  15  18
ENDBRANCH   1  11
BRANCH   6  29
ATOM     29  C   UNL     1      -7.590  -0.491 130.472  0.00  0.00    +0.000 A 
ATOM     30  C   UNL     1      -7.815  -1.816 130.830  0.00  0.00    +0.000 A 
ATOM     31  C   UNL     1      -7.896  -2.769 129.832  0.00  0.00    +0.000 A 
ATOM     32  C   UNL     1      -7.733  -2.369 128.521  0.00  0.00    +0.000 A 
ATOM     33  C   UNL     1      -7.590  -1.016 128.205  0.00  0.00    +0.000 A 
ATOM     34  N   UNL     1      -7.513  -0.067 129.177  0.00  0.00    +0.000 NA
BRANCH  33  35
ATOM     35  C   UNL     1      -7.554  -0.560 126.746  0.00  0.00    +0.000 C 
BRANCH  35  36
ATOM     36  N   UNL     1      -7.553  -1.665 125.769  0.00  0.00    +0.000 N 
ATOM     37  C   UNL     1      -6.355  -2.236 125.368  0.00  0.00    +0.000 A 
ATOM     38  C   UNL     1      -6.323  -3.305 124.553  0.00  0.00    +0.000 A 
ATOM     39  C   UNL     1      -7.576  -3.891 124.112  0.00  0.00    +0.000 A 
ATOM     40  C   UNL     1      -8.749  -3.368 124.488  0.00  0.00    +0.000 A 
ATOM     41  C   UNL     1      -8.791  -2.150 125.332  0.00  0.00    +0.000 A 
ATOM     42  O   UNL     1      -9.885  -1.706 125.667  0.00  0.00    +0.000 OA
BRANCH  38  43
ATOM     43  C   UNL     1      -5.027  -3.905 124.099  0.00  0.00    +0.000 C 
ATOM     44  F   UNL     1      -4.122  -3.937 125.111  0.00  0.00    +0.000 F 
ATOM     45  F   UNL     1      -5.189  -5.184 123.676  0.00  0.00    +0.000 F 
ATOM     46  F   UNL     1      -4.452  -3.221 123.078  0.00  0.00    +0.000 F 
ENDBRANCH  38  43
ENDBRANCH  35  36
ENDBRANCH  33  35
ENDBRANCH   6  29
TORSDOF 6
ENDMDL
MODEL 3
REMARK VINA RESULT:     -11.1     10.783     14.093
REMARK  Name = CHEMBL445875
REMARK  6 active torsions:
REMARK  status: ('A' for Active; 'I' for Inactive)
REMARK    1  A    between atoms: C_2  and  C_3
REMARK    2  A    between atoms: C_8  and  C_9
REMARK    3  A    between atoms: C_13  and  C_14
REMARK    4  A    between atoms: C_14  and  N_15
REMARK    5  A    between atoms: C_17  and  C_18
REMARK    6  A    between atoms: C_33  and  N_34
REMARK                            x       y       z     vdW  Elec       q    Type
REMARK                         _______ _______ _______ _____ _____    ______ ____
ROOT
ATOM      1  C   UNL     1      -3.180   5.252 130.674  0.00  0.00    +0.000 A 
ATOM      2  C   UNL     1      -2.088   5.739 129.932  0.00  0.00    +0.000 A 
ATOM      3  C   UNL     1      -0.983   6.369 130.563  0.00  0.00    +0.000 A 
ATOM      4  C   UNL     1      -1.020   6.464 131.959  0.00  0.00    +0.000 A 
ATOM      5  O   UNL     1      -0.109   7.086 132.778  0.00  0.00    +0.000 OA
ATOM      6  C   UNL     1      -0.552   6.918 134.069  0.00  0.00    +0.000 A 
ATOM      7  C   UNL     1      -1.724   6.196 134.071  0.00  0.00    +0.000 A 
ATOM      8  C   UNL     1      -2.048   5.924 132.723  0.00  0.00    +0.000 A 
ATOM      9  C   UNL     1      -3.124   5.288 132.076  0.00  0.00    +0.000 A 
ENDROOT
BRANCH   1  11
ATOM     10  O   UNL     1      -4.192   3.685 129.240  0.00  0.00    +0.000 OA
ATOM     11  C   UNL     1      -4.385   4.600 130.035  0.00  0.00    +0.000 C 
ATOM     12  N   UNL     1      -5.668   4.996 130.492  0.00  0.00    +0.000 N 
ATOM     13  C   UNL     1      -6.053   6.406 130.577  0.00  0.00    +0.000 C 
ATOM     14  C   UNL     1      -6.850   6.692 131.839  0.00  0.00    +0.000 C 
ATOM     15  C   UNL     1      -8.439   5.996 131.652  0.00  0.00    +0.000 C 
ATOM     16  C   UNL     1      -7.737   4.393 131.691  0.00  0.00    +0.000 C 
ATOM     17  C   UNL     1      -6.818   4.073 130.502  0.00  0.00    +0.000 C 
BRANCH  15  18
ATOM     18  N   UNL     1      -9.616   7.100 130.740  0.00  0.00    +0.000 N 
ATOM     19  C   UNL     1     -10.546   6.556 131.696  0.00  0.00    +0.000 C 
ATOM     20  O   UNL     1     -10.461   6.571 132.969  0.00  0.00    +0.000 OA
ATOM     21  O   UNL     1     -11.500   5.780 131.226  0.00  0.00    +0.000 OA
ATOM     22  C   UNL     1     -12.455   6.766 131.121  0.00  0.00    +0.000 C 
ATOM     23  C   UNL     1     -12.153   6.931 129.709  0.00  0.00    +0.000 A 
ATOM     24  C   UNL     1     -13.022   6.395 128.695  0.00  0.00    +0.000 A 
ATOM     25  C   UNL     1     -13.142   6.880 127.407  0.00  0.00    +0.000 A 
ATOM     26  C   UNL     1     -12.542   8.101 127.283  0.00  0.00    +0.000 A 
ATOM     27  C   UNL     1     -11.447   8.472 128.361  0.00  0.00    +0.000 A 
ATOM     28  C   UNL     1     -10.905   7.464 129.452  0.00  0.00    +0.000 A 
ENDBRANCH  15  18
ENDBRANCH   1  11
BRANCH   6  29
ATOM     29  C   UNL     1       0.200   7.535 135.152  0.00  0.00    +0.000 A 
ATOM     30  C   UNL     1       1.111   6.794 135.896  0.00  0.00    +0.000 A 
ATOM     31  C   UNL     1       1.857   7.438 136.864  0.00  0.00    +0.000 A 
ATOM     32  C   UNL     1       1.655   8.789 137.066  0.00  0.00    +0.000 A 
ATOM     33  C   UNL     1       0.787   9.507 136.239  0.00  0.00    +0.000 A 
ATOM     34  N   UNL     1       0.049   8.885 135.280  0.00  0.00    +0.000 NA
BRANCH  33  35
ATOM     35  C   UNL     1       0.671  11.025 136.370  0.00  0.00    +0.000 C 
BRANCH  35  36
ATOM     36  N   UNL     1       1.019  11.764 135.141  0.00  0.00    +0.000 N 
ATOM     37  C   UNL     1       0.068  11.944 134.148  0.00  0.00    +0.000 A 
ATOM     38  C   UNL     1       0.321  12.692 133.059  0.00  0.00    +0.000 A 
ATOM     39  C   UNL     1       1.609  13.350 132.942  0.00  0.00    +0.000 A 
ATOM     40  C   UNL     1       2.545  13.202 133.887  0.00  0.00    +0.000 A 
ATOM     41  C   UNL     1       2.297  12.326 135.057  0.00  0.00    +0.000 A 
ATOM     42  O   UNL     1       3.174  12.224 135.909  0.00  0.00    +0.000 OA
BRANCH  38  43
ATOM     43  C   UNL     1      -0.699  12.864 131.974  0.00  0.00    +0.000 C 
ATOM     44  F   UNL     1      -0.105  12.974 130.758  0.00  0.00    +0.000 F 
ATOM     45  F   UNL     1      -1.541  11.802 131.907  0.00  0.00    +0.000 F 
ATOM     46  F   UNL     1      -1.469  13.969 132.138  0.00  0.00    +0.000 F 
ENDBRANCH  38  43
ENDBRANCH  35  36
ENDBRANCH  33  35
ENDBRANCH   6  29
TORSDOF 6
ENDMDL
MODEL 4
REMARK VINA RESULT:     -11.1     11.515     14.811
REMARK  Name = CHEMBL445875
REMARK  6 active torsions:
REMARK  status: ('A' for Active; 'I' for Inactive)
REMARK    1  A    between atoms: C_2  and  C_3
REMARK    2  A    between atoms: C_8  and  C_9
REMARK    3  A    between atoms: C_13  and  C_14
REMARK    4  A    between atoms: C_14  and  N_15
REMARK    5  A    between atoms: C_17  and  C_18
REMARK    6  A    between atoms: C_33  and  N_34
REMARK                            x       y       z     vdW  Elec       q    Type
REMARK                         _______ _______ _______ _____ _____    ______ ____
ROOT
ATOM      1  C   UNL     1      -2.711   6.085 131.123  0.00  0.00    +0.000 A 
ATOM      2  C   UNL     1      -2.099   5.026 131.819  0.00  0.00    +0.000 A 
ATOM      3  C   UNL     1      -1.225   5.263 132.912  0.00  0.00    +0.000 A 
ATOM      4  C   UNL     1      -1.018   6.598 133.280  0.00  0.00    +0.000 A 
ATOM      5  O   UNL     1      -0.171   7.075 134.251  0.00  0.00    +0.000 OA
ATOM      6  C   UNL     1      -0.305   8.444 134.261  0.00  0.00    +0.000 A 
ATOM      7  C   UNL     1      -1.226   8.831 133.314  0.00  0.00    +0.000 A 
ATOM      8  C   UNL     1      -1.669   7.659 132.661  0.00  0.00    +0.000 A 
ATOM      9  C   UNL     1      -2.545   7.397 131.590  0.00  0.00    +0.000 A 
ENDROOT
BRANCH   1  11
ATOM     10  O   UNL     1      -3.113   5.676 128.840  0.00  0.00    +0.000 OA
ATOM     11  C   UNL     1      -3.626   5.871 129.938  0.00  0.00    +0.000 C 
ATOM     12  N   UNL     1      -5.019   5.779 130.190  0.00  0.00    +0.000 N 
ATOM     13  C   UNL     1      -5.725   6.785 130.985  0.00  0.00    +0.000 C 
ATOM     14  C   UNL     1      -6.744   6.146 131.913  0.00  0.00    +0.000 C 
ATOM     15  C   UNL     1      -8.085   5.583 130.951  0.00  0.00    +0.000 C 
ATOM     16  C   UNL     1      -7.048   4.377 130.219  0.00  0.00    +0.000 C 
ATOM     17  C   UNL     1      -5.914   4.954 129.357  0.00  0.00    +0.000 C 
BRANCH  15  18
ATOM     18  N   UNL     1      -9.336   6.904 130.597  0.00  0.00    +0.000 N 
ATOM     19  C   UNL     1     -10.082   6.178 131.593  0.00  0.00    +0.000 C 
ATOM     20  O   UNL     1      -9.728   5.890 132.784  0.00  0.00    +0.000 OA
ATOM     21  O   UNL     1     -11.174   5.562 131.189  0.00  0.00    +0.000 OA
ATOM     22  C   UNL     1     -12.047   6.574 131.524  0.00  0.00    +0.000 C 
ATOM     23  C   UNL     1     -12.039   7.057 130.153  0.00  0.00    +0.000 A 
ATOM     24  C   UNL     1     -13.145   6.800 129.269  0.00  0.00    +0.000 A 
ATOM     25  C   UNL     1     -13.496   7.577 128.182  0.00  0.00    +0.000 A 
ATOM     26  C   UNL     1     -12.840   8.775 128.202  0.00  0.00    +0.000 A 
ATOM     27  C   UNL     1     -11.514   8.850 129.059  0.00  0.00    +0.000 A 
ATOM     28  C   UNL     1     -10.836   7.598 129.747  0.00  0.00    +0.000 A 
ENDBRANCH  15  18
ENDBRANCH   1  11
BRANCH   6  29
ATOM     29  C   UNL     1       0.531   9.221 135.164  0.00  0.00    +0.000 A 
ATOM     30  C   UNL     1       1.227   8.602 136.197  0.00  0.00    +0.000 A 
ATOM     31  C   UNL     1       2.068   9.367 136.983  0.00  0.00    +0.000 A 
ATOM     32  C   UNL     1       2.169  10.719 136.722  0.00  0.00    +0.000 A 
ATOM     33  C   UNL     1       1.512  11.280 135.623  0.00  0.00    +0.000 A 
ATOM     34  N   UNL     1       0.685  10.537 134.839  0.00  0.00    +0.000 NA
BRANCH  33  35
ATOM     35  C   UNL     1       1.738  12.745 135.251  0.00  0.00    +0.000 C 
BRANCH  35  36
ATOM     36  N   UNL     1       0.522  13.578 135.314  0.00  0.00    +0.000 N 
ATOM     37  C   UNL     1      -0.424  13.501 134.302  0.00  0.00    +0.000 A 
ATOM     38  C   UNL     1      -1.586  14.174 134.374  0.00  0.00    +0.000 A 
ATOM     39  C   UNL     1      -1.866  14.971 135.555  0.00  0.00    +0.000 A 
ATOM     40  C   UNL     1      -0.976  15.059 136.550  0.00  0.00    +0.000 A 
ATOM     41  C   UNL     1       0.334  14.375 136.448  0.00  0.00    +0.000 A 
ATOM     42  O   UNL     1       1.119  14.468 137.387  0.00  0.00    +0.000 OA
BRANCH  38  43
ATOM     43  C   UNL     1      -2.596  14.110 133.269  0.00  0.00    +0.000 C 
ATOM     44  F   UNL     1      -3.468  15.148 133.343  0.00  0.00    +0.000 F 
ATOM     45  F   UNL     1      -2.006  14.179 132.049  0.00  0.00    +0.000 F 
ATOM     46  F   UNL     1      -3.335  12.972 133.287  0.00  0.00    +0.000 F 
ENDBRANCH  38  43
ENDBRANCH  35  36
ENDBRANCH  33  35
ENDBRANCH   6  29
TORSDOF 6
ENDMDL
MODEL 5
REMARK VINA RESULT:     -11.0      7.605     11.228
REMARK  Name = CHEMBL445875
REMARK  6 active torsions:
REMARK  status: ('A' for Active; 'I' for Inactive)
REMARK    1  A    between atoms: C_2  and  C_3
REMARK    2  A    between atoms: C_8  and  C_9
REMARK    3  A    between atoms: C_13  and  C_14
REMARK    4  A    between atoms: C_14  and  N_15
REMARK    5  A    between atoms: C_17  and  C_18
REMARK    6  A    between atoms: C_33  and  N_34
REMARK                            x       y       z     vdW  Elec       q    Type
REMARK                         _______ _______ _______ _____ _____    ______ ____
ROOT
ATOM      1  C   UNL     1      -3.779   3.845 129.208  0.00  0.00    +0.000 A 
ATOM      2  C   UNL     1      -3.654   3.377 130.530  0.00  0.00    +0.000 A 
ATOM      3  C   UNL     1      -4.201   2.131 130.932  0.00  0.00    +0.000 A 
ATOM      4  C   UNL     1      -4.851   1.377 129.947  0.00  0.00    +0.000 A 
ATOM      5  O   UNL     1      -5.512   0.183 130.110  0.00  0.00    +0.000 OA
ATOM      6  C   UNL     1      -5.984  -0.184 128.872  0.00  0.00    +0.000 A 
ATOM      7  C   UNL     1      -5.624   0.759 127.935  0.00  0.00    +0.000 A 
ATOM      8  C   UNL     1      -4.922   1.777 128.618  0.00  0.00    +0.000 A 
ATOM      9  C   UNL     1      -4.356   3.009 128.240  0.00  0.00    +0.000 A 
ENDROOT
BRANCH   1  11
ATOM     10  O   UNL     1      -3.019   5.334 127.551  0.00  0.00    +0.000 OA
ATOM     11  C   UNL     1      -3.232   5.178 128.750  0.00  0.00    +0.000 C 
ATOM     12  N   UNL     1      -3.123   6.212 129.716  0.00  0.00    +0.000 N 
ATOM     13  C   UNL     1      -2.456   5.996 131.001  0.00  0.00    +0.000 C 
ATOM     14  C   UNL     1      -3.205   6.669 132.138  0.00  0.00    +0.000 C 
ATOM     15  C   UNL     1      -2.970   8.393 132.005  0.00  0.00    +0.000 C 
ATOM     16  C   UNL     1      -3.910   8.403 130.528  0.00  0.00    +0.000 C 
ATOM     17  C   UNL     1      -3.269   7.635 129.362  0.00  0.00    +0.000 C 
BRANCH  15  18
ATOM     18  N   UNL     1      -1.394   8.977 132.787  0.00  0.00    +0.000 N 
ATOM     19  C   UNL     1      -2.305   9.402 133.819  0.00  0.00    +0.000 C 
ATOM     20  O   UNL     1      -3.151   8.695 134.461  0.00  0.00    +0.000 OA
ATOM     21  O   UNL     1      -2.435  10.700 134.002  0.00  0.00    +0.000 OA
ATOM     22  C   UNL     1      -1.511  10.801 135.019  0.00  0.00    +0.000 C 
ATOM     23  C   UNL     1      -0.492  11.226 134.073  0.00  0.00    +0.000 A 
ATOM     24  C   UNL     1      -0.097  12.607 133.979  0.00  0.00    +0.000 A 
ATOM     25  C   UNL     1       1.131  13.057 133.535  0.00  0.00    +0.000 A 
ATOM     26  C   UNL     1       2.030  12.033 133.453  0.00  0.00    +0.000 A 
ATOM     27  C   UNL     1       1.441  10.570 133.353  0.00  0.00    +0.000 A 
ATOM     28  C   UNL     1      -0.098  10.248 133.182  0.00  0.00    +0.000 A 
ENDBRANCH  15  18
ENDBRANCH   1  11
BRANCH   6  29
ATOM     29  C   UNL     1      -6.784  -1.395 128.760  0.00  0.00    +0.000 A 
ATOM     30  C   UNL     1      -7.124  -2.128 129.892  0.00  0.00    +0.000 A 
ATOM     31  C   UNL     1      -7.948  -3.228 129.748  0.00  0.00    +0.000 A 
ATOM     32  C   UNL     1      -8.385  -3.565 128.482  0.00  0.00    +0.000 A 
ATOM     33  C   UNL     1      -8.083  -2.752 127.387  0.00  0.00    +0.000 A 
ATOM     34  N   UNL     1      -7.277  -1.664 127.516  0.00  0.00    +0.000 NA
BRANCH  33  35
ATOM     35  C   UNL     1      -8.686  -3.046 126.014  0.00  0.00    +0.000 C 
BRANCH  35  36
ATOM     36  N   UNL     1      -7.789  -2.738 124.883  0.00  0.00    +0.000 N 
ATOM     37  C   UNL     1      -6.571  -3.392 124.767  0.00  0.00    +0.000 A 
ATOM     38  C   UNL     1      -5.773  -3.206 123.701  0.00  0.00    +0.000 A 
ATOM     39  C   UNL     1      -6.216  -2.326 122.635  0.00  0.00    +0.000 A 
ATOM     40  C   UNL     1      -7.388  -1.686 122.715  0.00  0.00    +0.000 A 
ATOM     41  C   UNL     1      -8.243  -1.834 123.917  0.00  0.00    +0.000 A 
ATOM     42  O   UNL     1      -9.317  -1.242 123.949  0.00  0.00    +0.000 OA
BRANCH  38  43
ATOM     43  C   UNL     1      -4.445  -3.894 123.588  0.00  0.00    +0.000 C 
ATOM     44  F   UNL     1      -4.051  -4.395 124.786  0.00  0.00    +0.000 F 
ATOM     45  F   UNL     1      -4.495  -4.937 122.721  0.00  0.00    +0.000 F 
ATOM     46  F   UNL     1      -3.455  -3.071 123.160  0.00  0.00    +0.000 F 
ENDBRANCH  38  43
ENDBRANCH  35  36
ENDBRANCH  33  35
ENDBRANCH   6  29
TORSDOF 6
ENDMDL
MODEL 6
REMARK VINA RESULT:     -10.9      8.940     11.140
REMARK  Name = CHEMBL445875
REMARK  6 active torsions:
REMARK  status: ('A' for Active; 'I' for Inactive)
REMARK    1  A    between atoms: C_2  and  C_3
REMARK    2  A    between atoms: C_8  and  C_9
REMARK    3  A    between atoms: C_13  and  C_14
REMARK    4  A    between atoms: C_14  and  N_15
REMARK    5  A    between atoms: C_17  and  C_18
REMARK    6  A    between atoms: C_33  and  N_34
REMARK                            x       y       z     vdW  Elec       q    Type
REMARK                         _______ _______ _______ _____ _____    ______ ____
ROOT
ATOM      1  C   UNL     1      -2.372   5.620 130.645  0.00  0.00    +0.000 A 
ATOM      2  C   UNL     1      -1.830   6.422 129.623  0.00  0.00    +0.000 A 
ATOM      3  C   UNL     1      -2.309   6.349 128.289  0.00  0.00    +0.000 A 
ATOM      4  C   UNL     1      -3.360   5.458 128.041  0.00  0.00    +0.000 A 
ATOM      5  O   UNL     1      -3.939   5.166 126.829  0.00  0.00    +0.000 OA
ATOM      6  C   UNL     1      -4.932   4.246 127.072  0.00  0.00    +0.000 A 
ATOM      7  C   UNL     1      -4.987   3.961 128.418  0.00  0.00    +0.000 A 
ATOM      8  C   UNL     1      -3.966   4.712 129.044  0.00  0.00    +0.000 A 
ATOM      9  C   UNL     1      -3.485   4.814 130.363  0.00  0.00    +0.000 A 
ENDROOT
BRANCH   1  11
ATOM     10  O   UNL     1      -1.462   4.603 132.563  0.00  0.00    +0.000 OA
ATOM     11  C   UNL     1      -1.870   5.652 132.071  0.00  0.00    +0.000 C 
ATOM     12  N   UNL     1      -1.777   6.915 132.708  0.00  0.00    +0.000 N 
ATOM     13  C   UNL     1      -2.902   7.853 132.725  0.00  0.00    +0.000 C 
ATOM     14  C   UNL     1      -2.439   9.283 132.508  0.00  0.00    +0.000 C 
ATOM     15  C   UNL     1      -1.626   9.821 133.955  0.00  0.00    +0.000 C 
ATOM     16  C   UNL     1      -0.334   8.680 133.648  0.00  0.00    +0.000 C 
ATOM     17  C   UNL     1      -0.756   7.206 133.732  0.00  0.00    +0.000 C 
BRANCH  15  18
ATOM     18  N   UNL     1      -2.787  10.465 135.248  0.00  0.00    +0.000 N 
ATOM     19  C   UNL     1      -1.927  11.618 135.153  0.00  0.00    +0.000 C 
ATOM     20  O   UNL     1      -1.637  12.297 134.113  0.00  0.00    +0.000 OA
ATOM     21  O   UNL     1      -1.193  11.903 136.208  0.00  0.00    +0.000 OA
ATOM     22  C   UNL     1      -2.066  12.817 136.755  0.00  0.00    +0.000 C 
ATOM     23  C   UNL     1      -2.606  11.797 137.640  0.00  0.00    +0.000 A 
ATOM     24  C   UNL     1      -2.245  11.756 139.032  0.00  0.00    +0.000 A 
ATOM     25  C   UNL     1      -3.016  11.213 140.041  0.00  0.00    +0.000 A 
ATOM     26  C   UNL     1      -4.287  10.962 139.609  0.00  0.00    +0.000 A 
ATOM     27  C   UNL     1      -4.497  10.826 138.048  0.00  0.00    +0.000 A 
ATOM     28  C   UNL     1      -3.315  10.803 136.997  0.00  0.00    +0.000 A 
ENDBRANCH  15  18
ENDBRANCH   1  11
BRANCH   6  29
ATOM     29  C   UNL     1      -5.677   3.708 125.944  0.00  0.00    +0.000 A 
ATOM     30  C   UNL     1      -5.374   4.096 124.643  0.00  0.00    +0.000 A 
ATOM     31  C   UNL     1      -6.056   3.504 123.597  0.00  0.00    +0.000 A 
ATOM     32  C   UNL     1      -7.026   2.564 123.888  0.00  0.00    +0.000 A 
ATOM     33  C   UNL     1      -7.239   2.149 125.205  0.00  0.00    +0.000 A 
ATOM     34  N   UNL     1      -6.570   2.721 126.243  0.00  0.00    +0.000 NA
BRANCH  33  35
ATOM     35  C   UNL     1      -8.208   1.008 125.511  0.00  0.00    +0.000 C 
BRANCH  35  36
ATOM     36  N   UNL     1      -8.110  -0.133 124.582  0.00  0.00    +0.000 N 
ATOM     37  C   UNL     1      -7.050  -1.022 124.685  0.00  0.00    +0.000 A 
ATOM     38  C   UNL     1      -6.980  -2.124 123.918  0.00  0.00    +0.000 A 
ATOM     39  C   UNL     1      -8.056  -2.401 122.984  0.00  0.00    +0.000 A 
ATOM     40  C   UNL     1      -9.095  -1.566 122.866  0.00  0.00    +0.000 A 
ATOM     41  C   UNL     1      -9.147  -0.316 123.661  0.00  0.00    +0.000 A 
ATOM     42  O   UNL     1     -10.122   0.419 123.535  0.00  0.00    +0.000 OA
BRANCH  38  43
ATOM     43  C   UNL     1      -5.821  -3.070 124.013  0.00  0.00    +0.000 C 
ATOM     44  F   UNL     1      -4.991  -2.936 122.947  0.00  0.00    +0.000 F 
ATOM     45  F   UNL     1      -5.077  -2.838 125.124  0.00  0.00    +0.000 F 
ATOM     46  F   UNL     1      -6.199  -4.372 124.056  0.00  0.00    +0.000 F 
ENDBRANCH  38  43
ENDBRANCH  35  36
ENDBRANCH  33  35
ENDBRANCH   6  29
TORSDOF 6
ENDMDL
MODEL 7
REMARK VINA RESULT:     -10.9      7.574     10.640
REMARK  Name = CHEMBL445875
REMARK  6 active torsions:
REMARK  status: ('A' for Active; 'I' for Inactive)
REMARK    1  A    between atoms: C_2  and  C_3
REMARK    2  A    between atoms: C_8  and  C_9
REMARK    3  A    between atoms: C_13  and  C_14
REMARK    4  A    between atoms: C_14  and  N_15
REMARK    5  A    between atoms: C_17  and  C_18
REMARK    6  A    between atoms: C_33  and  N_34
REMARK                            x       y       z     vdW  Elec       q    Type
REMARK                         _______ _______ _______ _____ _____    ______ ____
ROOT
ATOM      1  C   UNL     1      -7.582   4.134 132.083  0.00  0.00    +0.000 A 
ATOM      2  C   UNL     1      -8.125   4.527 130.846  0.00  0.00    +0.000 A 
ATOM      3  C   UNL     1      -8.402   3.584 129.822  0.00  0.00    +0.000 A 
ATOM      4  C   UNL     1      -8.130   2.241 130.108  0.00  0.00    +0.000 A 
ATOM      5  O   UNL     1      -8.250   1.166 129.260  0.00  0.00    +0.000 OA
ATOM      6  C   UNL     1      -7.881   0.050 129.975  0.00  0.00    +0.000 A 
ATOM      7  C   UNL     1      -7.537   0.410 131.259  0.00  0.00    +0.000 A 
ATOM      8  C   UNL     1      -7.667   1.814 131.347  0.00  0.00    +0.000 A 
ATOM      9  C   UNL     1      -7.416   2.767 132.353  0.00  0.00    +0.000 A 
ENDROOT
BRANCH   1  11
ATOM     10  O   UNL     1      -8.102   5.329 134.043  0.00  0.00    +0.000 OA
ATOM     11  C   UNL     1      -7.249   5.113 133.186  0.00  0.00    +0.000 C 
ATOM     12  N   UNL     1      -5.927   5.622 133.238  0.00  0.00    +0.000 N 
ATOM     13  C   UNL     1      -5.281   6.207 132.062  0.00  0.00    +0.000 C 
ATOM     14  C   UNL     1      -3.823   5.792 131.962  0.00  0.00    +0.000 C 
ATOM     15  C   UNL     1      -2.928   6.634 133.200  0.00  0.00    +0.000 C 
ATOM     16  C   UNL     1      -3.769   5.714 134.429  0.00  0.00    +0.000 C 
ATOM     17  C   UNL     1      -5.278   5.993 134.509  0.00  0.00    +0.000 C 
BRANCH  15  18
ATOM     18  N   UNL     1      -2.407   8.339 132.692  0.00  0.00    +0.000 N 
ATOM     19  C   UNL     1      -1.114   7.840 133.087  0.00  0.00    +0.000 C 
ATOM     20  O   UNL     1      -0.511   6.799 132.663  0.00  0.00    +0.000 OA
ATOM     21  O   UNL     1      -0.559   8.394 134.146  0.00  0.00    +0.000 OA
ATOM     22  C   UNL     1       0.201   9.310 133.452  0.00  0.00    +0.000 C 
ATOM     23  C   UNL     1      -0.804  10.337 133.675  0.00  0.00    +0.000 A 
ATOM     24  C   UNL     1      -0.607  11.366 134.661  0.00  0.00    +0.000 A 
ATOM     25  C   UNL     1      -1.185  12.620 134.633  0.00  0.00    +0.000 A 
ATOM     26  C   UNL     1      -1.752  12.873 133.417  0.00  0.00    +0.000 A 
ATOM     27  C   UNL     1      -2.107  11.622 132.519  0.00  0.00    +0.000 A 
ATOM     28  C   UNL     1      -1.995  10.123 133.010  0.00  0.00    +0.000 A 
ENDBRANCH  15  18
ENDBRANCH   1  11
BRANCH   6  29
ATOM     29  C   UNL     1      -7.855  -1.237 129.297  0.00  0.00    +0.000 A 
ATOM     30  C   UNL     1      -7.549  -2.401 129.994  0.00  0.00    +0.000 A 
ATOM     31  C   UNL     1      -7.611  -3.610 129.328  0.00  0.00    +0.000 A 
ATOM     32  C   UNL     1      -7.956  -3.611 127.991  0.00  0.00    +0.000 A 
ATOM     33  C   UNL     1      -8.333  -2.426 127.354  0.00  0.00    +0.000 A 
ATOM     34  N   UNL     1      -8.281  -1.230 128.000  0.00  0.00    +0.000 NA
BRANCH  33  35
ATOM     35  C   UNL     1      -8.852  -2.449 125.917  0.00  0.00    +0.000 C 
BRANCH  35  36
ATOM     36  N   UNL     1      -7.804  -2.267 124.894  0.00  0.00    +0.000 N 
ATOM     37  C   UNL     1      -6.704  -3.110 124.871  0.00  0.00    +0.000 A 
ATOM     38  C   UNL     1      -5.780  -3.033 123.898  0.00  0.00    +0.000 A 
ATOM     39  C   UNL     1      -5.960  -2.065 122.831  0.00  0.00    +0.000 A 
ATOM     40  C   UNL     1      -7.014  -1.242 122.822  0.00  0.00    +0.000 A 
ATOM     41  C   UNL     1      -8.002  -1.276 123.927  0.00  0.00    +0.000 A 
ATOM     42  O   UNL     1      -8.964  -0.514 123.877  0.00  0.00    +0.000 OA
BRANCH  38  43
ATOM     43  C   UNL     1      -4.577  -3.928 123.888  0.00  0.00    +0.000 C 
ATOM     44  F   UNL     1      -3.544  -3.353 123.221  0.00  0.00    +0.000 F 
ATOM     45  F   UNL     1      -4.138  -4.188 125.146  0.00  0.00    +0.000 F 
ATOM     46  F   UNL     1      -4.810  -5.126 123.296  0.00  0.00    +0.000 F 
ENDBRANCH  38  43
ENDBRANCH  35  36
ENDBRANCH  33  35
ENDBRANCH   6  29
TORSDOF 6
ENDMDL
MODEL 8
REMARK VINA RESULT:     -10.7      4.608      5.965
REMARK  Name = CHEMBL445875
REMARK  6 active torsions:
REMARK  status: ('A' for Active; 'I' for Inactive)
REMARK    1  A    between atoms: C_2  and  C_3
REMARK    2  A    between atoms: C_8  and  C_9
REMARK    3  A    between atoms: C_13  and  C_14
REMARK    4  A    between atoms: C_14  and  N_15
REMARK    5  A    between atoms: C_17  and  C_18
REMARK    6  A    between atoms: C_33  and  N_34
REMARK                            x       y       z     vdW  Elec       q    Type
REMARK                         _______ _______ _______ _____ _____    ______ ____
ROOT
ATOM      1  C   UNL     1      -6.590  -1.693 131.055  0.00  0.00    +0.000 A 
ATOM      2  C   UNL     1      -7.393  -2.847 130.982  0.00  0.00    +0.000 A 
ATOM      3  C   UNL     1      -8.023  -3.238 129.772  0.00  0.00    +0.000 A 
ATOM      4  C   UNL     1      -7.792  -2.434 128.649  0.00  0.00    +0.000 A 
ATOM      5  O   UNL     1      -8.342  -2.570 127.397  0.00  0.00    +0.000 OA
ATOM      6  C   UNL     1      -7.820  -1.563 126.620  0.00  0.00    +0.000 A 
ATOM      7  C   UNL     1      -6.947  -0.802 127.364  0.00  0.00    +0.000 A 
ATOM      8  C   UNL     1      -6.943  -1.334 128.673  0.00  0.00    +0.000 A 
ATOM      9  C   UNL     1      -6.314  -0.977 129.881  0.00  0.00    +0.000 A 
ENDROOT
BRANCH   1  11
ATOM     10  O   UNL     1      -5.587  -2.085 133.148  0.00  0.00    +0.000 OA
ATOM     11  C   UNL     1      -5.925  -1.232 132.332  0.00  0.00    +0.000 C 
ATOM     12  N   UNL     1      -5.613   0.146 132.452  0.00  0.00    +0.000 N 
ATOM     13  C   UNL     1      -6.612   1.186 132.197  0.00  0.00    +0.000 C 
ATOM     14  C   UNL     1      -6.015   2.359 131.438  0.00  0.00    +0.000 C 
ATOM     15  C   UNL     1      -4.982   3.247 132.527  0.00  0.00    +0.000 C 
ATOM     16  C   UNL     1      -3.875   1.891 132.577  0.00  0.00    +0.000 C 
ATOM     17  C   UNL     1      -4.453   0.625 133.226  0.00  0.00    +0.000 C 
BRANCH  15  18
ATOM     18  N   UNL     1      -5.902   4.476 133.566  0.00  0.00    +0.000 N 
ATOM     19  C   UNL     1      -4.647   5.179 133.482  0.00  0.00    +0.000 C 
ATOM     20  O   UNL     1      -4.012   5.529 132.432  0.00  0.00    +0.000 OA
ATOM     21  O   UNL     1      -3.962   5.313 134.599  0.00  0.00    +0.000 OA
ATOM     22  C   UNL     1      -4.441   6.564 134.917  0.00  0.00    +0.000 C 
ATOM     23  C   UNL     1      -5.425   5.978 135.812  0.00  0.00    +0.000 A 
ATOM     24  C   UNL     1      -5.244   6.010 137.239  0.00  0.00    +0.000 A 
ATOM     25  C   UNL     1      -6.259   5.965 138.175  0.00  0.00    +0.000 A 
ATOM     26  C   UNL     1      -7.477   6.163 137.589  0.00  0.00    +0.000 A 
ATOM     27  C   UNL     1      -7.577   5.886 136.036  0.00  0.00    +0.000 A 
ATOM     28  C   UNL     1      -6.411   5.250 135.176  0.00  0.00    +0.000 A 
ENDBRANCH  15  18
ENDBRANCH   1  11
BRANCH   6  29
ATOM     29  C   UNL     1      -8.282  -1.430 125.246  0.00  0.00    +0.000 A 
ATOM     30  C   UNL     1      -8.622  -2.553 124.499  0.00  0.00    +0.000 A 
ATOM     31  C   UNL     1      -9.127  -2.376 123.226  0.00  0.00    +0.000 A 
ATOM     32  C   UNL     1      -9.257  -1.090 122.739  0.00  0.00    +0.000 A 
ATOM     33  C   UNL     1      -8.979   0.009 123.556  0.00  0.00    +0.000 A 
ATOM     34  N   UNL     1      -8.485  -0.152 124.813  0.00  0.00    +0.000 NA
BRANCH  33  35
ATOM     35  C   UNL     1      -9.259   1.429 123.066  0.00  0.00    +0.000 C 
BRANCH  35  36
ATOM     36  N   UNL     1      -8.167   2.385 123.331  0.00  0.00    +0.000 N 
ATOM     37  C   UNL     1      -7.251   2.685 122.334  0.00  0.00    +0.000 A 
ATOM     38  C   UNL     1      -6.302   3.621 122.510  0.00  0.00    +0.000 A 
ATOM     39  C   UNL     1      -6.260   4.354 123.763  0.00  0.00    +0.000 A 
ATOM     40  C   UNL     1      -7.135   4.093 124.741  0.00  0.00    +0.000 A 
ATOM     41  C   UNL     1      -8.141   3.017 124.579  0.00  0.00    +0.000 A 
ATOM     42  O   UNL     1      -8.935   2.815 125.493  0.00  0.00    +0.000 OA
BRANCH  38  43
ATOM     43  C   UNL     1      -5.296   3.926 121.442  0.00  0.00    +0.000 C 
ATOM     44  F   UNL     1      -5.811   4.767 120.509  0.00  0.00    +0.000 F 
ATOM     45  F   UNL     1      -4.193   4.531 121.952  0.00  0.00    +0.000 F 
ATOM     46  F   UNL     1      -4.868   2.820 120.782  0.00  0.00    +0.000 F 
ENDBRANCH  38  43
ENDBRANCH  35  36
ENDBRANCH  33  35
ENDBRANCH   6  29
TORSDOF 6
ENDMDL
MODEL 9
REMARK VINA RESULT:     -10.6      3.519      4.276
REMARK  Name = CHEMBL445875
REMARK  6 active torsions:
REMARK  status: ('A' for Active; 'I' for Inactive)
REMARK    1  A    between atoms: C_2  and  C_3
REMARK    2  A    between atoms: C_8  and  C_9
REMARK    3  A    between atoms: C_13  and  C_14
REMARK    4  A    between atoms: C_14  and  N_15
REMARK    5  A    between atoms: C_17  and  C_18
REMARK    6  A    between atoms: C_33  and  N_34
REMARK                            x       y       z     vdW  Elec       q    Type
REMARK                         _______ _______ _______ _____ _____    ______ ____
ROOT
ATOM      1  C   UNL     1      -5.290  -2.886 130.394  0.00  0.00    +0.000 A 
ATOM      2  C   UNL     1      -6.498  -3.582 130.587  0.00  0.00    +0.000 A 
ATOM      3  C   UNL     1      -7.493  -3.638 129.576  0.00  0.00    +0.000 A 
ATOM      4  C   UNL     1      -7.207  -2.987 128.370  0.00  0.00    +0.000 A 
ATOM      5  O   UNL     1      -8.034  -2.846 127.281  0.00  0.00    +0.000 OA
ATOM      6  C   UNL     1      -7.329  -2.143 126.332  0.00  0.00    +0.000 A 
ATOM      7  C   UNL     1      -6.071  -1.846 126.808  0.00  0.00    +0.000 A 
ATOM      8  C   UNL     1      -5.993  -2.358 128.123  0.00  0.00    +0.000 A 
ATOM      9  C   UNL     1      -5.014  -2.331 129.135  0.00  0.00    +0.000 A 
ENDROOT
BRANCH   1  11
ATOM     10  O   UNL     1      -3.305  -3.602 131.437  0.00  0.00    +0.000 OA
ATOM     11  C   UNL     1      -4.220  -2.783 131.457  0.00  0.00    +0.000 C 
ATOM     12  N   UNL     1      -4.266  -1.668 132.333  0.00  0.00    +0.000 N 
ATOM     13  C   UNL     1      -5.490  -1.303 133.049  0.00  0.00    +0.000 C 
ATOM     14  C   UNL     1      -5.691   0.203 133.076  0.00  0.00    +0.000 C 
ATOM     15  C   UNL     1      -4.526   0.892 134.177  0.00  0.00    +0.000 C 
ATOM     16  C   UNL     1      -3.234   0.442 133.084  0.00  0.00    +0.000 C 
ATOM     17  C   UNL     1      -3.048  -1.073 132.912  0.00  0.00    +0.000 C 
BRANCH  15  18
ATOM     18  N   UNL     1      -5.081   0.853 135.945  0.00  0.00    +0.000 N 
ATOM     19  C   UNL     1      -4.774   2.259 135.857  0.00  0.00    +0.000 C 
ATOM     20  O   UNL     1      -5.233   3.112 135.028  0.00  0.00    +0.000 OA
ATOM     21  O   UNL     1      -3.762   2.694 136.578  0.00  0.00    +0.000 OA
ATOM     22  C   UNL     1      -4.513   3.104 137.657  0.00  0.00    +0.000 C 
ATOM     23  C   UNL     1      -4.226   1.859 138.350  0.00  0.00    +0.000 A 
ATOM     24  C   UNL     1      -3.263   1.808 139.418  0.00  0.00    +0.000 A 
ATOM     25  C   UNL     1      -3.259   0.886 140.446  0.00  0.00    +0.000 A 
ATOM     26  C   UNL     1      -4.434   0.191 140.490  0.00  0.00    +0.000 A 
ATOM     27  C   UNL     1      -5.296   0.162 139.165  0.00  0.00    +0.000 A 
ATOM     28  C   UNL     1      -4.804   0.742 137.779  0.00  0.00    +0.000 A 
ENDBRANCH  15  18
ENDBRANCH   1  11
BRANCH   6  29
ATOM     29  C   UNL     1      -7.992  -1.794 125.085  0.00  0.00    +0.000 A 
ATOM     30  C   UNL     1      -8.411  -2.785 124.202  0.00  0.00    +0.000 A 
ATOM     31  C   UNL     1      -9.103  -2.412 123.066  0.00  0.00    +0.000 A 
ATOM     32  C   UNL     1      -9.336  -1.070 122.844  0.00  0.00    +0.000 A 
ATOM     33  C   UNL     1      -8.967  -0.118 123.799  0.00  0.00    +0.000 A 
ATOM     34  N   UNL     1      -8.289  -0.472 124.923  0.00  0.00    +0.000 NA
BRANCH  33  35
ATOM     35  C   UNL     1      -9.352   1.350 123.619  0.00  0.00    +0.000 C 
BRANCH  35  36
ATOM     36  N   UNL     1      -8.211   2.283 123.672  0.00  0.00    +0.000 N 
ATOM     37  C   UNL     1      -7.451   2.514 122.536  0.00  0.00    +0.000 A 
ATOM     38  C   UNL     1      -6.465   3.428 122.523  0.00  0.00    +0.000 A 
ATOM     39  C   UNL     1      -6.217   4.212 123.720  0.00  0.00    +0.000 A 
ATOM     40  C   UNL     1      -6.938   4.017 124.830  0.00  0.00    +0.000 A 
ATOM     41  C   UNL     1      -7.982   2.966 124.872  0.00  0.00    +0.000 A 
ATOM     42  O   UNL     1      -8.632   2.825 125.903  0.00  0.00    +0.000 OA
BRANCH  38  43
ATOM     43  C   UNL     1      -5.627   3.659 121.302  0.00  0.00    +0.000 C 
ATOM     44  F   UNL     1      -6.291   4.410 120.387  0.00  0.00    +0.000 F 
ATOM     45  F   UNL     1      -4.481   4.322 121.601  0.00  0.00    +0.000 F 
ATOM     46  F   UNL     1      -5.266   2.509 120.680  0.00  0.00    +0.000 F 
ENDBRANCH  38  43
ENDBRANCH  35  36
ENDBRANCH  33  35
ENDBRANCH   6  29
TORSDOF 6
ENDMDL
