MODEL 1
REMARK VINA RESULT:     -10.8      0.000      0.000
REMARK  Name = CHEMBL30550
REMARK  7 active torsions:
REMARK  status: ('A' for Active; 'I' for Inactive)
REMARK    1  A    between atoms: C_2  and  C_3
REMARK    2  A    between atoms: C_3  and  N_4
REMARK    3  A    between atoms: C_6  and  C_7
REMARK    4  A    between atoms: N_15  and  C_16
REMARK    5  A    between atoms: C_16  and  C_17
REMARK    6  A    between atoms: C_22  and  C_23
REMARK    7  A    between atoms: C_28  and  N_29
REMARK                            x       y       z     vdW  Elec       q    Type
REMARK                         _______ _______ _______ _____ _____    ______ ____
ROOT
ATOM      1  C   UNL     1      -6.382  -2.139 126.423  0.00  0.00    +0.000 A 
ATOM      2  C   UNL     1      -7.330  -2.372 127.418  0.00  0.00    +0.000 A 
ATOM      3  C   UNL     1      -7.331  -1.166 128.174  0.00  0.00    +0.000 A 
ATOM      4  C   UNL     1      -7.617   0.203 127.892  0.00  0.00    +0.000 A 
ATOM      5  C   UNL     1      -7.113   1.261 128.717  0.00  0.00    +0.000 A 
ATOM      6  C   UNL     1      -6.351   0.999 129.863  0.00  0.00    +0.000 A 
ATOM      7  C   UNL     1      -5.847  -0.323 129.906  0.00  0.00    +0.000 A 
ATOM      8  C   UNL     1      -6.068  -1.225 128.752  0.00  0.00    +0.000 A 
ATOM      9  O   UNL     1      -5.383  -1.355 127.272  0.00  0.00    +0.000 OA
ENDROOT
BRANCH   6  10
ATOM     10  C   UNL     1      -6.259   2.115 130.959  0.00  0.00    +0.000 C 
ATOM     11  O   UNL     1      -5.206   2.178 131.604  0.00  0.00    +0.000 OA
ATOM     12  N   UNL     1      -7.273   3.096 131.180  0.00  0.00    +0.000 N 
ATOM     13  C   UNL     1      -6.943   4.540 131.166  0.00  0.00    +0.000 C 
ATOM     14  C   UNL     1      -7.571   5.373 132.284  0.00  0.00    +0.000 C 
ATOM     15  C   UNL     1      -9.287   5.431 132.019  0.00  0.00    +0.000 C 
ATOM     16  C   UNL     1      -9.370   3.721 132.390  0.00  0.00    +0.000 C 
ATOM     17  C   UNL     1      -8.692   2.804 131.358  0.00  0.00    +0.000 C 
BRANCH  15  18
ATOM     18  N   UNL     1      -9.808   6.736 130.800  0.00  0.00    +0.000 N 
ATOM     19  C   UNL     1     -11.044   6.639 131.555  0.00  0.00    +0.000 C 
ATOM     20  O   UNL     1     -11.215   6.782 132.791  0.00  0.00    +0.000 OA
ATOM     21  O   UNL     1     -12.092   6.156 130.897  0.00  0.00    +0.000 OA
ATOM     22  C   UNL     1     -12.611   7.375 130.517  0.00  0.00    +0.000 C 
ATOM     23  C   UNL     1     -11.978   7.268 129.214  0.00  0.00    +0.000 A 
ATOM     24  C   UNL     1     -12.636   6.800 128.038  0.00  0.00    +0.000 A 
ATOM     25  C   UNL     1     -12.285   7.142 126.741  0.00  0.00    +0.000 A 
ATOM     26  C   UNL     1     -11.389   8.169 126.711  0.00  0.00    +0.000 A 
ATOM     27  C   UNL     1     -10.550   8.365 128.017  0.00  0.00    +0.000 A 
ATOM     28  C   UNL     1     -10.612   7.359 129.247  0.00  0.00    +0.000 A 
ENDBRANCH  15  18
ENDBRANCH   6  10
BRANCH   1  29
ATOM     29  C   UNL     1      -6.160  -3.140 125.199  0.00  0.00    +0.000 C 
BRANCH  29  32
ATOM     30  O   UNL     1      -6.039  -2.013 121.709  0.00  0.00    +0.000 OA
ATOM     31  C   UNL     1      -6.537  -2.187 122.828  0.00  0.00    +0.000 C 
ATOM     32  N   UNL     1      -5.747  -2.771 123.835  0.00  0.00    +0.000 N 
ATOM     33  H   UNL     1      -4.816  -2.999 123.508  0.00  0.00    +0.000 HD
BRANCH  31  34
ATOM     34  C   UNL     1      -7.995  -1.724 123.109  0.00  0.00    +0.000 C 
BRANCH  34  35
ATOM     35  N   UNL     1      -8.136  -0.261 123.352  0.00  0.00    +0.000 N 
ATOM     36  C   UNL     1      -7.090   0.462 123.921  0.00  0.00    +0.000 A 
ATOM     37  C   UNL     1      -7.257   1.726 124.361  0.00  0.00    +0.000 A 
ATOM     38  C   UNL     1      -8.502   2.411 124.069  0.00  0.00    +0.000 A 
ATOM     39  C   UNL     1      -9.461   1.802 123.363  0.00  0.00    +0.000 A 
ATOM     40  C   UNL     1      -9.359   0.344 123.062  0.00  0.00    +0.000 A 
ATOM     41  O   UNL     1     -10.343  -0.246 122.624  0.00  0.00    +0.000 OA
BRANCH  37  42
ATOM     42  C   UNL     1      -6.218   2.483 125.140  0.00  0.00    +0.000 C 
ATOM     43  F   UNL     1      -6.761   3.278 126.095  0.00  0.00    +0.000 F 
ATOM     44  F   UNL     1      -5.367   1.634 125.778  0.00  0.00    +0.000 F 
ATOM     45  F   UNL     1      -5.450   3.277 124.350  0.00  0.00    +0.000 F 
ENDBRANCH  37  42
ENDBRANCH  34  35
ENDBRANCH  31  34
ENDBRANCH  29  32
ENDBRANCH   1  29
TORSDOF 7
ENDMDL
MODEL 2
REMARK VINA RESULT:     -10.6      1.512      2.201
REMARK  Name = CHEMBL30550
REMARK  7 active torsions:
REMARK  status: ('A' for Active; 'I' for Inactive)
REMARK    1  A    between atoms: C_2  and  C_3
REMARK    2  A    between atoms: C_3  and  N_4
REMARK    3  A    between atoms: C_6  and  C_7
REMARK    4  A    between atoms: N_15  and  C_16
REMARK    5  A    between atoms: C_16  and  C_17
REMARK    6  A    between atoms: C_22  and  C_23
REMARK    7  A    between atoms: C_28  and  N_29
REMARK                            x       y       z     vdW  Elec       q    Type
REMARK                         _______ _______ _______ _____ _____    ______ ____
ROOT
ATOM      1  C   UNL     1      -8.067  -2.640 127.493  0.00  0.00    +0.000 A 
ATOM      2  C   UNL     1      -6.948  -2.878 128.291  0.00  0.00    +0.000 A 
ATOM      3  C   UNL     1      -7.023  -1.865 129.287  0.00  0.00    +0.000 A 
ATOM      4  C   UNL     1      -7.964  -1.511 130.300  0.00  0.00    +0.000 A 
ATOM      5  C   UNL     1      -8.000  -0.194 130.865  0.00  0.00    +0.000 A 
ATOM      6  C   UNL     1      -7.088   0.796 130.478  0.00  0.00    +0.000 A 
ATOM      7  C   UNL     1      -6.408   0.488 129.275  0.00  0.00    +0.000 A 
ATOM      8  C   UNL     1      -6.780  -0.731 128.520  0.00  0.00    +0.000 A 
ATOM      9  O   UNL     1      -8.030  -1.114 127.536  0.00  0.00    +0.000 OA
ENDROOT
BRANCH   6  10
ATOM     10  C   UNL     1      -6.858   2.006 131.447  0.00  0.00    +0.000 C 
ATOM     11  O   UNL     1      -5.784   2.035 132.059  0.00  0.00    +0.000 OA
ATOM     12  N   UNL     1      -7.770   3.097 131.585  0.00  0.00    +0.000 N 
ATOM     13  C   UNL     1      -7.308   4.493 131.410  0.00  0.00    +0.000 C 
ATOM     14  C   UNL     1      -7.820   5.494 132.447  0.00  0.00    +0.000 C 
ATOM     15  C   UNL     1      -9.531   5.688 132.214  0.00  0.00    +0.000 C 
ATOM     16  C   UNL     1      -9.760   4.042 132.768  0.00  0.00    +0.000 C 
ATOM     17  C   UNL     1      -9.203   2.961 131.825  0.00  0.00    +0.000 C 
BRANCH  15  18
ATOM     18  N   UNL     1      -9.968   6.903 130.875  0.00  0.00    +0.000 N 
ATOM     19  C   UNL     1     -11.256   6.844 131.542  0.00  0.00    +0.000 C 
ATOM     20  O   UNL     1     -11.519   7.067 132.749  0.00  0.00    +0.000 OA
ATOM     21  O   UNL     1     -12.249   6.307 130.842  0.00  0.00    +0.000 OA
ATOM     22  C   UNL     1     -12.745   7.492 130.344  0.00  0.00    +0.000 C 
ATOM     23  C   UNL     1     -12.016   7.305 129.101  0.00  0.00    +0.000 A 
ATOM     24  C   UNL     1     -12.583   6.752 127.914  0.00  0.00    +0.000 A 
ATOM     25  C   UNL     1     -12.138   7.011 126.627  0.00  0.00    +0.000 A 
ATOM     26  C   UNL     1     -11.248   8.043 126.593  0.00  0.00    +0.000 A 
ATOM     27  C   UNL     1     -10.510   8.335 127.942  0.00  0.00    +0.000 A 
ATOM     28  C   UNL     1     -10.657   7.412 129.229  0.00  0.00    +0.000 A 
ENDBRANCH  15  18
ENDBRANCH   6  10
BRANCH   1  29
ATOM     29  C   UNL     1      -8.528  -3.646 126.341  0.00  0.00    +0.000 C 
BRANCH  29  32
ATOM     30  O   UNL     1      -9.999  -2.389 123.224  0.00  0.00    +0.000 OA
ATOM     31  C   UNL     1      -9.098  -2.627 124.037  0.00  0.00    +0.000 C 
ATOM     32  N   UNL     1      -9.419  -3.329 125.212  0.00  0.00    +0.000 N 
ATOM     33  H   UNL     1     -10.402  -3.565 125.263  0.00  0.00    +0.000 HD
BRANCH  31  34
ATOM     34  C   UNL     1      -7.638  -2.191 123.727  0.00  0.00    +0.000 C 
BRANCH  34  35
ATOM     35  N   UNL     1      -7.282  -0.837 124.236  0.00  0.00    +0.000 N 
ATOM     36  C   UNL     1      -8.092   0.259 123.944  0.00  0.00    +0.000 A 
ATOM     37  C   UNL     1      -7.691   1.523 124.189  0.00  0.00    +0.000 A 
ATOM     38  C   UNL     1      -6.469   1.738 124.942  0.00  0.00    +0.000 A 
ATOM     39  C   UNL     1      -5.760   0.697 125.394  0.00  0.00    +0.000 A 
ATOM     40  C   UNL     1      -6.090  -0.687 124.945  0.00  0.00    +0.000 A 
ATOM     41  O   UNL     1      -5.297  -1.595 125.177  0.00  0.00    +0.000 OA
BRANCH  37  42
ATOM     42  C   UNL     1      -8.444   2.741 123.733  0.00  0.00    +0.000 C 
ATOM     43  F   UNL     1      -8.926   3.473 124.768  0.00  0.00    +0.000 F 
ATOM     44  F   UNL     1      -7.646   3.570 123.009  0.00  0.00    +0.000 F 
ATOM     45  F   UNL     1      -9.501   2.433 122.937  0.00  0.00    +0.000 F 
ENDBRANCH  37  42
ENDBRANCH  34  35
ENDBRANCH  31  34
ENDBRANCH  29  32
ENDBRANCH   1  29
TORSDOF 7
ENDMDL
MODEL 3
REMARK VINA RESULT:     -10.4      4.033     10.339
REMARK  Name = CHEMBL30550
REMARK  7 active torsions:
REMARK  status: ('A' for Active; 'I' for Inactive)
REMARK    1  A    between atoms: C_2  and  C_3
REMARK    2  A    between atoms: C_3  and  N_4
REMARK    3  A    between atoms: C_6  and  C_7
REMARK    4  A    between atoms: N_15  and  C_16
REMARK    5  A    between atoms: C_16  and  C_17
REMARK    6  A    between atoms: C_22  and  C_23
REMARK    7  A    between atoms: C_28  and  N_29
REMARK                            x       y       z     vdW  Elec       q    Type
REMARK                         _______ _______ _______ _____ _____    ______ ____
ROOT
ATOM      1  C   UNL     1      -2.691   4.951 130.911  0.00  0.00    +0.000 A 
ATOM      2  C   UNL     1      -3.300   3.720 130.671  0.00  0.00    +0.000 A 
ATOM      3  C   UNL     1      -3.765   3.829 129.331  0.00  0.00    +0.000 A 
ATOM      4  C   UNL     1      -3.148   4.038 128.061  0.00  0.00    +0.000 A 
ATOM      5  C   UNL     1      -3.886   4.543 126.941  0.00  0.00    +0.000 A 
ATOM      6  C   UNL     1      -5.257   4.816 127.029  0.00  0.00    +0.000 A 
ATOM      7  C   UNL     1      -5.726   4.891 128.362  0.00  0.00    +0.000 A 
ATOM      8  C   UNL     1      -4.761   4.787 129.480  0.00  0.00    +0.000 A 
ATOM      9  O   UNL     1      -3.681   5.824 130.142  0.00  0.00    +0.000 OA
ENDROOT
BRANCH   6  10
ATOM     10  C   UNL     1      -6.083   4.881 125.699  0.00  0.00    +0.000 C 
ATOM     11  O   UNL     1      -6.081   5.959 125.092  0.00  0.00    +0.000 OA
ATOM     12  N   UNL     1      -6.747   3.755 125.121  0.00  0.00    +0.000 N 
ATOM     13  C   UNL     1      -6.486   3.363 123.717  0.00  0.00    +0.000 C 
ATOM     14  C   UNL     1      -7.721   3.004 122.890  0.00  0.00    +0.000 C 
ATOM     15  C   UNL     1      -8.385   1.528 123.520  0.00  0.00    +0.000 C 
ATOM     16  C   UNL     1      -8.837   2.390 124.976  0.00  0.00    +0.000 C 
ATOM     17  C   UNL     1      -7.654   2.864 125.838  0.00  0.00    +0.000 C 
BRANCH  15  18
ATOM     18  N   UNL     1      -7.549  -0.002 122.872  0.00  0.00    +0.000 N 
ATOM     19  C   UNL     1      -8.810  -0.599 123.271  0.00  0.00    +0.000 C 
ATOM     20  O   UNL     1      -9.971  -0.278 122.915  0.00  0.00    +0.000 OA
ATOM     21  O   UNL     1      -8.752  -1.463 124.278  0.00  0.00    +0.000 OA
ATOM     22  C   UNL     1      -8.649  -2.597 123.502  0.00  0.00    +0.000 C 
ATOM     23  C   UNL     1      -7.205  -2.604 123.657  0.00  0.00    +0.000 A 
ATOM     24  C   UNL     1      -6.505  -3.390 124.620  0.00  0.00    +0.000 A 
ATOM     25  C   UNL     1      -5.194  -3.824 124.489  0.00  0.00    +0.000 A 
ATOM     26  C   UNL     1      -4.714  -3.623 123.230  0.00  0.00    +0.000 A 
ATOM     27  C   UNL     1      -5.445  -2.513 122.404  0.00  0.00    +0.000 A 
ATOM     28  C   UNL     1      -6.569  -1.571 123.020  0.00  0.00    +0.000 A 
ENDBRANCH  15  18
ENDBRANCH   6  10
BRANCH   1  29
ATOM     29  C   UNL     1      -1.840   5.245 132.230  0.00  0.00    +0.000 C 
BRANCH  29  32
ATOM     30  O   UNL     1      -3.420   7.002 135.037  0.00  0.00    +0.000 OA
ATOM     31  C   UNL     1      -3.223   6.068 134.250  0.00  0.00    +0.000 C 
ATOM     32  N   UNL     1      -2.191   6.190 133.303  0.00  0.00    +0.000 N 
ATOM     33  H   UNL     1      -1.709   7.078 133.372  0.00  0.00    +0.000 HD
BRANCH  31  34
ATOM     34  C   UNL     1      -4.080   4.774 134.352  0.00  0.00    +0.000 C 
BRANCH  34  35
ATOM     35  N   UNL     1      -5.535   4.983 134.120  0.00  0.00    +0.000 N 
ATOM     36  C   UNL     1      -6.000   5.369 132.864  0.00  0.00    +0.000 A 
ATOM     37  C   UNL     1      -7.268   5.784 132.672  0.00  0.00    +0.000 A 
ATOM     38  C   UNL     1      -8.221   5.653 133.760  0.00  0.00    +0.000 A 
ATOM     39  C   UNL     1      -7.847   5.116 134.927  0.00  0.00    +0.000 A 
ATOM     40  C   UNL     1      -6.405   4.854 135.204  0.00  0.00    +0.000 A 
ATOM     41  O   UNL     1      -6.056   4.585 136.350  0.00  0.00    +0.000 OA
BRANCH  37  42
ATOM     42  C   UNL     1      -7.767   6.376 131.384  0.00  0.00    +0.000 C 
ATOM     43  F   UNL     1      -8.896   7.110 131.552  0.00  0.00    +0.000 F 
ATOM     44  F   UNL     1      -6.841   7.207 130.834  0.00  0.00    +0.000 F 
ATOM     45  F   UNL     1      -8.042   5.431 130.448  0.00  0.00    +0.000 F 
ENDBRANCH  37  42
ENDBRANCH  34  35
ENDBRANCH  31  34
ENDBRANCH  29  32
ENDBRANCH   1  29
TORSDOF 7
ENDMDL
MODEL 4
REMARK VINA RESULT:     -10.2      6.163      7.918
REMARK  Name = CHEMBL30550
REMARK  7 active torsions:
REMARK  status: ('A' for Active; 'I' for Inactive)
REMARK    1  A    between atoms: C_2  and  C_3
REMARK    2  A    between atoms: C_3  and  N_4
REMARK    3  A    between atoms: C_6  and  C_7
REMARK    4  A    between atoms: N_15  and  C_16
REMARK    5  A    between atoms: C_16  and  C_17
REMARK    6  A    between atoms: C_22  and  C_23
REMARK    7  A    between atoms: C_28  and  N_29
REMARK                            x       y       z     vdW  Elec       q    Type
REMARK                         _______ _______ _______ _____ _____    ______ ____
ROOT
ATOM      1  C   UNL     1      -5.261   4.761 126.344  0.00  0.00    +0.000 A 
ATOM      2  C   UNL     1      -4.082   4.016 126.346  0.00  0.00    +0.000 A 
ATOM      3  C   UNL     1      -3.758   3.900 127.727  0.00  0.00    +0.000 A 
ATOM      4  C   UNL     1      -4.396   3.333 128.870  0.00  0.00    +0.000 A 
ATOM      5  C   UNL     1      -4.056   3.744 130.201  0.00  0.00    +0.000 A 
ATOM      6  C   UNL     1      -3.053   4.691 130.443  0.00  0.00    +0.000 A 
ATOM      7  C   UNL     1      -2.692   5.428 129.289  0.00  0.00    +0.000 A 
ATOM      8  C   UNL     1      -3.441   5.219 128.028  0.00  0.00    +0.000 A 
ATOM      9  O   UNL     1      -4.907   5.707 127.489  0.00  0.00    +0.000 OA
ENDROOT
BRANCH   6  10
ATOM     10  C   UNL     1      -2.401   4.728 131.867  0.00  0.00    +0.000 C 
ATOM     11  O   UNL     1      -1.983   3.654 132.318  0.00  0.00    +0.000 OA
ATOM     12  N   UNL     1      -2.190   5.928 132.613  0.00  0.00    +0.000 N 
ATOM     13  C   UNL     1      -0.845   6.268 133.130  0.00  0.00    +0.000 C 
ATOM     14  C   UNL     1      -0.801   6.784 134.570  0.00  0.00    +0.000 C 
ATOM     15  C   UNL     1      -1.568   8.342 134.611  0.00  0.00    +0.000 C 
ATOM     16  C   UNL     1      -3.099   7.562 134.272  0.00  0.00    +0.000 C 
ATOM     17  C   UNL     1      -3.210   6.940 132.870  0.00  0.00    +0.000 C 
BRANCH  15  18
ATOM     18  N   UNL     1      -0.444   9.739 134.112  0.00  0.00    +0.000 N 
ATOM     19  C   UNL     1      -1.433  10.508 134.844  0.00  0.00    +0.000 C 
ATOM     20  O   UNL     1      -1.815  10.358 136.031  0.00  0.00    +0.000 OA
ATOM     21  O   UNL     1      -2.163  11.353 134.124  0.00  0.00    +0.000 OA
ATOM     22  C   UNL     1      -1.376  12.462 134.344  0.00  0.00    +0.000 C 
ATOM     23  C   UNL     1      -0.695  12.263 133.076  0.00  0.00    +0.000 A 
ATOM     24  C   UNL     1      -1.035  12.939 131.867  0.00  0.00    +0.000 A 
ATOM     25  C   UNL     1      -0.160  13.181 130.819  0.00  0.00    +0.000 A 
ATOM     26  C   UNL     1       1.133  12.916 131.164  0.00  0.00    +0.000 A 
ATOM     27  C   UNL     1       1.317  11.925 132.360  0.00  0.00    +0.000 A 
ATOM     28  C   UNL     1       0.105  11.152 133.041  0.00  0.00    +0.000 A 
ENDBRANCH  15  18
ENDBRANCH   6  10
BRANCH   1  29
ATOM     29  C   UNL     1      -6.127   4.992 125.023  0.00  0.00    +0.000 C 
BRANCH  29  32
ATOM     30  O   UNL     1      -6.246   2.579 122.262  0.00  0.00    +0.000 OA
ATOM     31  C   UNL     1      -6.552   3.064 123.358  0.00  0.00    +0.000 C 
ATOM     32  N   UNL     1      -5.969   4.285 123.741  0.00  0.00    +0.000 N 
ATOM     33  H   UNL     1      -5.328   4.641 123.043  0.00  0.00    +0.000 HD
BRANCH  31  34
ATOM     34  C   UNL     1      -7.596   2.346 124.261  0.00  0.00    +0.000 C 
BRANCH  34  35
ATOM     35  N   UNL     1      -7.884   0.940 123.864  0.00  0.00    +0.000 N 
ATOM     36  C   UNL     1      -6.934  -0.059 124.073  0.00  0.00    +0.000 A 
ATOM     37  C   UNL     1      -7.063  -1.286 123.529  0.00  0.00    +0.000 A 
ATOM     38  C   UNL     1      -8.307  -1.631 122.864  0.00  0.00    +0.000 A 
ATOM     39  C   UNL     1      -9.311  -0.749 122.805  0.00  0.00    +0.000 A 
ATOM     40  C   UNL     1      -9.091   0.667 123.219  0.00  0.00    +0.000 A 
ATOM     41  O   UNL     1      -9.940   1.509 122.942  0.00  0.00    +0.000 OA
BRANCH  37  42
ATOM     42  C   UNL     1      -5.989  -2.336 123.574  0.00  0.00    +0.000 C 
ATOM     43  F   UNL     1      -5.013  -2.043 124.468  0.00  0.00    +0.000 F 
ATOM     44  F   UNL     1      -6.498  -3.545 123.935  0.00  0.00    +0.000 F 
ATOM     45  F   UNL     1      -5.386  -2.517 122.370  0.00  0.00    +0.000 F 
ENDBRANCH  37  42
ENDBRANCH  34  35
ENDBRANCH  31  34
ENDBRANCH  29  32
ENDBRANCH   1  29
TORSDOF 7
ENDMDL
MODEL 5
REMARK VINA RESULT:     -10.0      3.969     10.122
REMARK  Name = CHEMBL30550
REMARK  7 active torsions:
REMARK  status: ('A' for Active; 'I' for Inactive)
REMARK    1  A    between atoms: C_2  and  C_3
REMARK    2  A    between atoms: C_3  and  N_4
REMARK    3  A    between atoms: C_6  and  C_7
REMARK    4  A    between atoms: N_15  and  C_16
REMARK    5  A    between atoms: C_16  and  C_17
REMARK    6  A    between atoms: C_22  and  C_23
REMARK    7  A    between atoms: C_28  and  N_29
REMARK                            x       y       z     vdW  Elec       q    Type
REMARK                         _______ _______ _______ _____ _____    ______ ____
ROOT
ATOM      1  C   UNL     1      -2.855   4.898 131.006  0.00  0.00    +0.000 A 
ATOM      2  C   UNL     1      -3.380   3.644 130.700  0.00  0.00    +0.000 A 
ATOM      3  C   UNL     1      -3.827   3.783 129.356  0.00  0.00    +0.000 A 
ATOM      4  C   UNL     1      -3.202   4.088 128.110  0.00  0.00    +0.000 A 
ATOM      5  C   UNL     1      -3.951   4.596 126.998  0.00  0.00    +0.000 A 
ATOM      6  C   UNL     1      -5.338   4.778 127.070  0.00  0.00    +0.000 A 
ATOM      7  C   UNL     1      -5.835   4.763 128.396  0.00  0.00    +0.000 A 
ATOM      8  C   UNL     1      -4.884   4.670 129.528  0.00  0.00    +0.000 A 
ATOM      9  O   UNL     1      -3.884   5.741 130.256  0.00  0.00    +0.000 OA
ENDROOT
BRANCH   6  10
ATOM     10  C   UNL     1      -6.143   4.851 125.727  0.00  0.00    +0.000 C 
ATOM     11  O   UNL     1      -6.130   5.932 125.126  0.00  0.00    +0.000 OA
ATOM     12  N   UNL     1      -6.800   3.730 125.134  0.00  0.00    +0.000 N 
ATOM     13  C   UNL     1      -6.517   3.344 123.733  0.00  0.00    +0.000 C 
ATOM     14  C   UNL     1      -7.740   2.992 122.884  0.00  0.00    +0.000 C 
ATOM     15  C   UNL     1      -8.418   1.514 123.496  0.00  0.00    +0.000 C 
ATOM     16  C   UNL     1      -8.891   2.370 124.950  0.00  0.00    +0.000 C 
ATOM     17  C   UNL     1      -7.720   2.837 125.832  0.00  0.00    +0.000 C 
BRANCH  15  18
ATOM     18  N   UNL     1      -7.574  -0.014 122.854  0.00  0.00    +0.000 N 
ATOM     19  C   UNL     1      -8.834  -0.615 123.253  0.00  0.00    +0.000 C 
ATOM     20  O   UNL     1      -9.995  -0.300 122.894  0.00  0.00    +0.000 OA
ATOM     21  O   UNL     1      -8.774  -1.476 124.263  0.00  0.00    +0.000 OA
ATOM     22  C   UNL     1      -8.666  -2.612 123.490  0.00  0.00    +0.000 C 
ATOM     23  C   UNL     1      -7.221  -2.613 123.647  0.00  0.00    +0.000 A 
ATOM     24  C   UNL     1      -6.520  -3.394 124.613  0.00  0.00    +0.000 A 
ATOM     25  C   UNL     1      -5.208  -3.823 124.486  0.00  0.00    +0.000 A 
ATOM     26  C   UNL     1      -4.726  -3.623 123.227  0.00  0.00    +0.000 A 
ATOM     27  C   UNL     1      -5.460  -2.519 122.397  0.00  0.00    +0.000 A 
ATOM     28  C   UNL     1      -6.589  -1.580 123.009  0.00  0.00    +0.000 A 
ENDBRANCH  15  18
ENDBRANCH   6  10
BRANCH   1  29
ATOM     29  C   UNL     1      -2.048   5.184 132.354  0.00  0.00    +0.000 C 
BRANCH  29  32
ATOM     30  O   UNL     1      -3.611   4.448 135.591  0.00  0.00    +0.000 OA
ATOM     31  C   UNL     1      -3.539   4.909 134.445  0.00  0.00    +0.000 C 
ATOM     32  N   UNL     1      -2.375   4.667 133.693  0.00  0.00    +0.000 N 
ATOM     33  H   UNL     1      -1.693   4.122 134.206  0.00  0.00    +0.000 HD
BRANCH  31  34
ATOM     34  C   UNL     1      -4.739   5.699 133.849  0.00  0.00    +0.000 C 
BRANCH  34  35
ATOM     35  N   UNL     1      -6.020   4.942 133.827  0.00  0.00    +0.000 N 
ATOM     36  C   UNL     1      -6.288   4.041 132.798  0.00  0.00    +0.000 A 
ATOM     37  C   UNL     1      -7.515   3.511 132.619  0.00  0.00    +0.000 A 
ATOM     38  C   UNL     1      -8.532   3.741 133.630  0.00  0.00    +0.000 A 
ATOM     39  C   UNL     1      -8.250   4.456 134.725  0.00  0.00    +0.000 A 
ATOM     40  C   UNL     1      -6.967   5.210 134.817  0.00  0.00    +0.000 A 
ATOM     41  O   UNL     1      -6.824   6.040 135.711  0.00  0.00    +0.000 OA
BRANCH  37  42
ATOM     42  C   UNL     1      -7.900   2.680 131.428  0.00  0.00    +0.000 C 
ATOM     43  F   UNL     1      -6.825   2.271 130.709  0.00  0.00    +0.000 F 
ATOM     44  F   UNL     1      -8.565   1.555 131.807  0.00  0.00    +0.000 F 
ATOM     45  F   UNL     1      -8.722   3.343 130.573  0.00  0.00    +0.000 F 
ENDBRANCH  37  42
ENDBRANCH  34  35
ENDBRANCH  31  34
ENDBRANCH  29  32
ENDBRANCH   1  29
TORSDOF 7
ENDMDL
MODEL 6
REMARK VINA RESULT:      -9.9      5.848     11.628
REMARK  Name = CHEMBL30550
REMARK  7 active torsions:
REMARK  status: ('A' for Active; 'I' for Inactive)
REMARK    1  A    between atoms: C_2  and  C_3
REMARK    2  A    between atoms: C_3  and  N_4
REMARK    3  A    between atoms: C_6  and  C_7
REMARK    4  A    between atoms: N_15  and  C_16
REMARK    5  A    between atoms: C_16  and  C_17
REMARK    6  A    between atoms: C_22  and  C_23
REMARK    7  A    between atoms: C_28  and  N_29
REMARK                            x       y       z     vdW  Elec       q    Type
REMARK                         _______ _______ _______ _____ _____    ______ ____
ROOT
ATOM      1  C   UNL     1      -3.090   4.651 131.242  0.00  0.00    +0.000 A 
ATOM      2  C   UNL     1      -3.539   3.395 130.836  0.00  0.00    +0.000 A 
ATOM      3  C   UNL     1      -3.933   3.598 129.484  0.00  0.00    +0.000 A 
ATOM      4  C   UNL     1      -3.270   4.009 128.289  0.00  0.00    +0.000 A 
ATOM      5  C   UNL     1      -3.993   4.550 127.176  0.00  0.00    +0.000 A 
ATOM      6  C   UNL     1      -5.389   4.663 127.194  0.00  0.00    +0.000 A 
ATOM      7  C   UNL     1      -5.942   4.542 128.491  0.00  0.00    +0.000 A 
ATOM      8  C   UNL     1      -5.039   4.422 129.659  0.00  0.00    +0.000 A 
ATOM      9  O   UNL     1      -4.126   5.490 130.497  0.00  0.00    +0.000 OA
ENDROOT
BRANCH   6  10
ATOM     10  C   UNL     1      -6.137   4.782 125.822  0.00  0.00    +0.000 C 
ATOM     11  O   UNL     1      -6.065   5.870 125.240  0.00  0.00    +0.000 OA
ATOM     12  N   UNL     1      -6.805   3.691 125.185  0.00  0.00    +0.000 N 
ATOM     13  C   UNL     1      -6.479   3.318 123.789  0.00  0.00    +0.000 C 
ATOM     14  C   UNL     1      -7.677   3.019 122.887  0.00  0.00    +0.000 C 
ATOM     15  C   UNL     1      -8.425   1.554 123.448  0.00  0.00    +0.000 C 
ATOM     16  C   UNL     1      -8.928   2.403 124.895  0.00  0.00    +0.000 C 
ATOM     17  C   UNL     1      -7.780   2.818 125.831  0.00  0.00    +0.000 C 
BRANCH  15  18
ATOM     18  N   UNL     1      -7.606   0.009 122.814  0.00  0.00    +0.000 N 
ATOM     19  C   UNL     1      -8.862  -0.575 123.247  0.00  0.00    +0.000 C 
ATOM     20  O   UNL     1     -10.028  -0.256 122.904  0.00  0.00    +0.000 OA
ATOM     21  O   UNL     1      -8.790  -1.421 124.268  0.00  0.00    +0.000 OA
ATOM     22  C   UNL     1      -8.705  -2.569 123.512  0.00  0.00    +0.000 C 
ATOM     23  C   UNL     1      -7.258  -2.579 123.642  0.00  0.00    +0.000 A 
ATOM     24  C   UNL     1      -6.545  -3.350 124.608  0.00  0.00    +0.000 A 
ATOM     25  C   UNL     1      -5.238  -3.792 124.463  0.00  0.00    +0.000 A 
ATOM     26  C   UNL     1      -4.779  -3.616 123.192  0.00  0.00    +0.000 A 
ATOM     27  C   UNL     1      -5.520  -2.519 122.358  0.00  0.00    +0.000 A 
ATOM     28  C   UNL     1      -6.629  -1.561 122.976  0.00  0.00    +0.000 A 
ENDBRANCH  15  18
ENDBRANCH   6  10
BRANCH   1  29
ATOM     29  C   UNL     1      -2.358   4.890 132.641  0.00  0.00    +0.000 C 
BRANCH  29  32
ATOM     30  O   UNL     1      -3.377   7.542 134.963  0.00  0.00    +0.000 OA
ATOM     31  C   UNL     1      -2.976   7.061 133.896  0.00  0.00    +0.000 C 
ATOM     32  N   UNL     1      -2.882   5.663 133.779  0.00  0.00    +0.000 N 
ATOM     33  H   UNL     1      -3.161   5.187 134.628  0.00  0.00    +0.000 HD
BRANCH  31  34
ATOM     34  C   UNL     1      -2.629   7.998 132.704  0.00  0.00    +0.000 C 
BRANCH  34  35
ATOM     35  N   UNL     1      -1.703   9.111 133.049  0.00  0.00    +0.000 N 
ATOM     36  C   UNL     1      -2.177  10.419 133.137  0.00  0.00    +0.000 A 
ATOM     37  C   UNL     1      -1.340  11.474 133.222  0.00  0.00    +0.000 A 
ATOM     38  C   UNL     1       0.078  11.230 133.411  0.00  0.00    +0.000 A 
ATOM     39  C   UNL     1       0.543   9.979 133.512  0.00  0.00    +0.000 A 
ATOM     40  C   UNL     1      -0.347   8.821 133.209  0.00  0.00    +0.000 A 
ATOM     41  O   UNL     1       0.147   7.706 133.077  0.00  0.00    +0.000 OA
BRANCH  37  42
ATOM     42  C   UNL     1      -1.790  12.905 133.141  0.00  0.00    +0.000 C 
ATOM     43  F   UNL     1      -1.187  13.694 134.065  0.00  0.00    +0.000 F 
ATOM     44  F   UNL     1      -1.502  13.442 131.924  0.00  0.00    +0.000 F 
ATOM     45  F   UNL     1      -3.130  13.041 133.314  0.00  0.00    +0.000 F 
ENDBRANCH  37  42
ENDBRANCH  34  35
ENDBRANCH  31  34
ENDBRANCH  29  32
ENDBRANCH   1  29
TORSDOF 7
ENDMDL
MODEL 7
REMARK VINA RESULT:      -9.8      4.585      8.571
REMARK  Name = CHEMBL30550
REMARK  7 active torsions:
REMARK  status: ('A' for Active; 'I' for Inactive)
REMARK    1  A    between atoms: C_2  and  C_3
REMARK    2  A    between atoms: C_3  and  N_4
REMARK    3  A    between atoms: C_6  and  C_7
REMARK    4  A    between atoms: N_15  and  C_16
REMARK    5  A    between atoms: C_16  and  C_17
REMARK    6  A    between atoms: C_22  and  C_23
REMARK    7  A    between atoms: C_28  and  N_29
REMARK                            x       y       z     vdW  Elec       q    Type
REMARK                         _______ _______ _______ _____ _____    ______ ____
ROOT
ATOM      1  C   UNL     1      -4.924  -0.659 133.954  0.00  0.00    +0.000 A 
ATOM      2  C   UNL     1      -3.595  -0.598 133.536  0.00  0.00    +0.000 A 
ATOM      3  C   UNL     1      -3.577   0.497 132.628  0.00  0.00    +0.000 A 
ATOM      4  C   UNL     1      -3.859   1.893 132.722  0.00  0.00    +0.000 A 
ATOM      5  C   UNL     1      -4.186   2.673 131.565  0.00  0.00    +0.000 A 
ATOM      6  C   UNL     1      -4.205   2.111 130.282  0.00  0.00    +0.000 A 
ATOM      7  C   UNL     1      -4.231   0.695 130.294  0.00  0.00    +0.000 A 
ATOM      8  C   UNL     1      -4.340  -0.020 131.586  0.00  0.00    +0.000 A 
ATOM      9  O   UNL     1      -5.576  -0.308 132.619  0.00  0.00    +0.000 OA
ENDROOT
BRANCH   6  10
ATOM     10  C   UNL     1      -4.077   3.074 129.053  0.00  0.00    +0.000 C 
ATOM     11  O   UNL     1      -3.129   3.868 129.062  0.00  0.00    +0.000 OA
ATOM     12  N   UNL     1      -4.930   3.018 127.908  0.00  0.00    +0.000 N 
ATOM     13  C   UNL     1      -4.359   2.894 126.547  0.00  0.00    +0.000 C 
ATOM     14  C   UNL     1      -4.985   3.796 125.482  0.00  0.00    +0.000 C 
ATOM     15  C   UNL     1      -6.612   3.255 125.202  0.00  0.00    +0.000 C 
ATOM     16  C   UNL     1      -7.037   3.800 126.812  0.00  0.00    +0.000 C 
ATOM     17  C   UNL     1      -6.389   3.000 127.955  0.00  0.00    +0.000 C 
BRANCH  15  18
ATOM     18  N   UNL     1      -6.729   1.829 124.013  0.00  0.00    +0.000 N 
ATOM     19  C   UNL     1      -8.116   2.258 123.974  0.00  0.00    +0.000 C 
ATOM     20  O   UNL     1      -8.572   3.393 123.692  0.00  0.00    +0.000 OA
ATOM     21  O   UNL     1      -9.003   1.407 124.477  0.00  0.00    +0.000 OA
ATOM     22  C   UNL     1      -9.327   0.799 123.285  0.00  0.00    +0.000 C 
ATOM     23  C   UNL     1      -8.405  -0.290 123.559  0.00  0.00    +0.000 A 
ATOM     24  C   UNL     1      -8.788  -1.544 124.121  0.00  0.00    +0.000 A 
ATOM     25  C   UNL     1      -8.109  -2.739 123.935  0.00  0.00    +0.000 A 
ATOM     26  C   UNL     1      -7.163  -2.640 122.958  0.00  0.00    +0.000 A 
ATOM     27  C   UNL     1      -6.656  -1.190 122.661  0.00  0.00    +0.000 A 
ATOM     28  C   UNL     1      -7.085   0.074 123.526  0.00  0.00    +0.000 A 
ENDBRANCH  15  18
ENDBRANCH   6  10
BRANCH   1  29
ATOM     29  C   UNL     1      -5.408  -1.617 135.137  0.00  0.00    +0.000 C 
BRANCH  29  32
ATOM     30  O   UNL     1      -7.888  -4.249 134.519  0.00  0.00    +0.000 OA
ATOM     31  C   UNL     1      -6.779  -3.701 134.471  0.00  0.00    +0.000 C 
ATOM     32  N   UNL     1      -6.606  -2.472 135.132  0.00  0.00    +0.000 N 
ATOM     33  H   UNL     1      -7.453  -2.158 135.588  0.00  0.00    +0.000 HD
BRANCH  31  34
ATOM     34  C   UNL     1      -5.602  -4.394 133.728  0.00  0.00    +0.000 C 
BRANCH  34  35
ATOM     35  N   UNL     1      -5.361  -3.883 132.350  0.00  0.00    +0.000 N 
ATOM     36  C   UNL     1      -6.432  -3.500 131.544  0.00  0.00    +0.000 A 
ATOM     37  C   UNL     1      -6.277  -3.249 130.229  0.00  0.00    +0.000 A 
ATOM     38  C   UNL     1      -4.935  -3.198 129.678  0.00  0.00    +0.000 A 
ATOM     39  C   UNL     1      -3.871  -3.384 130.468  0.00  0.00    +0.000 A 
ATOM     40  C   UNL     1      -4.052  -3.865 131.868  0.00  0.00    +0.000 A 
ATOM     41  O   UNL     1      -3.072  -4.252 132.498  0.00  0.00    +0.000 OA
BRANCH  37  42
ATOM     42  C   UNL     1      -7.421  -3.009 129.284  0.00  0.00    +0.000 C 
ATOM     43  F   UNL     1      -7.984  -4.163 128.845  0.00  0.00    +0.000 F 
ATOM     44  F   UNL     1      -8.411  -2.295 129.883  0.00  0.00    +0.000 F 
ATOM     45  F   UNL     1      -7.049  -2.305 128.184  0.00  0.00    +0.000 F 
ENDBRANCH  37  42
ENDBRANCH  34  35
ENDBRANCH  31  34
ENDBRANCH  29  32
ENDBRANCH   1  29
TORSDOF 7
ENDMDL
MODEL 8
REMARK VINA RESULT:      -9.6      4.291      4.986
REMARK  Name = CHEMBL30550
REMARK  7 active torsions:
REMARK  status: ('A' for Active; 'I' for Inactive)
REMARK    1  A    between atoms: C_2  and  C_3
REMARK    2  A    between atoms: C_3  and  N_4
REMARK    3  A    between atoms: C_6  and  C_7
REMARK    4  A    between atoms: N_15  and  C_16
REMARK    5  A    between atoms: C_16  and  C_17
REMARK    6  A    between atoms: C_22  and  C_23
REMARK    7  A    between atoms: C_28  and  N_29
REMARK                            x       y       z     vdW  Elec       q    Type
REMARK                         _______ _______ _______ _____ _____    ______ ____
ROOT
ATOM      1  C   UNL     1      -8.310  -3.012 127.317  0.00  0.00    +0.000 A 
ATOM      2  C   UNL     1      -8.586  -3.738 128.475  0.00  0.00    +0.000 A 
ATOM      3  C   UNL     1      -8.016  -2.948 129.513  0.00  0.00    +0.000 A 
ATOM      4  C   UNL     1      -8.226  -1.626 130.008  0.00  0.00    +0.000 A 
ATOM      5  C   UNL     1      -7.221  -0.939 130.763  0.00  0.00    +0.000 A 
ATOM      6  C   UNL     1      -6.001  -1.547 131.085  0.00  0.00    +0.000 A 
ATOM      7  C   UNL     1      -5.733  -2.704 130.314  0.00  0.00    +0.000 A 
ATOM      8  C   UNL     1      -6.663  -3.083 129.225  0.00  0.00    +0.000 A 
ATOM      9  O   UNL     1      -6.917  -2.523 127.709  0.00  0.00    +0.000 OA
ENDROOT
BRANCH   6  10
ATOM     10  C   UNL     1      -5.181  -0.965 132.287  0.00  0.00    +0.000 C 
ATOM     11  O   UNL     1      -4.690  -1.781 133.075  0.00  0.00    +0.000 OA
ATOM     12  N   UNL     1      -4.906   0.427 132.461  0.00  0.00    +0.000 N 
ATOM     13  C   UNL     1      -3.515   0.905 132.634  0.00  0.00    +0.000 C 
ATOM     14  C   UNL     1      -3.307   1.950 133.731  0.00  0.00    +0.000 C 
ATOM     15  C   UNL     1      -4.095   3.418 133.238  0.00  0.00    +0.000 C 
ATOM     16  C   UNL     1      -5.640   2.613 133.426  0.00  0.00    +0.000 C 
ATOM     17  C   UNL     1      -5.908   1.487 132.413  0.00  0.00    +0.000 C 
BRANCH  15  18
ATOM     18  N   UNL     1      -3.070   4.465 132.093  0.00  0.00    +0.000 N 
ATOM     19  C   UNL     1      -3.412   5.484 133.069  0.00  0.00    +0.000 C 
ATOM     20  O   UNL     1      -3.214   5.472 134.309  0.00  0.00    +0.000 OA
ATOM     21  O   UNL     1      -4.197   6.465 132.637  0.00  0.00    +0.000 OA
ATOM     22  C   UNL     1      -3.184   7.343 132.318  0.00  0.00    +0.000 C 
ATOM     23  C   UNL     1      -3.236   6.937 130.924  0.00  0.00    +0.000 A 
ATOM     24  C   UNL     1      -3.952   7.641 129.910  0.00  0.00    +0.000 A 
ATOM     25  C   UNL     1      -3.642   7.620 128.558  0.00  0.00    +0.000 A 
ATOM     26  C   UNL     1      -2.428   7.045 128.324  0.00  0.00    +0.000 A 
ATOM     27  C   UNL     1      -1.919   6.076 129.442  0.00  0.00    +0.000 A 
ATOM     28  C   UNL     1      -2.802   5.658 130.696  0.00  0.00    +0.000 A 
ENDBRANCH  15  18
ENDBRANCH   6  10
BRANCH   1  29
ATOM     29  C   UNL     1      -8.923  -3.400 125.895  0.00  0.00    +0.000 C 
BRANCH  29  32
ATOM     30  O   UNL     1      -7.861  -1.876 122.731  0.00  0.00    +0.000 OA
ATOM     31  C   UNL     1      -8.361  -1.909 123.862  0.00  0.00    +0.000 C 
ATOM     32  N   UNL     1      -8.323  -3.117 124.580  0.00  0.00    +0.000 N 
ATOM     33  H   UNL     1      -7.875  -3.861 124.058  0.00  0.00    +0.000 HD
BRANCH  31  34
ATOM     34  C   UNL     1      -8.972  -0.619 124.479  0.00  0.00    +0.000 C 
BRANCH  34  35
ATOM     35  N   UNL     1      -8.681   0.624 123.714  0.00  0.00    +0.000 N 
ATOM     36  C   UNL     1      -7.519   1.351 123.967  0.00  0.00    +0.000 A 
ATOM     37  C   UNL     1      -7.331   2.588 123.463  0.00  0.00    +0.000 A 
ATOM     38  C   UNL     1      -8.276   3.099 122.487  0.00  0.00    +0.000 A 
ATOM     39  C   UNL     1      -9.308   2.348 122.086  0.00  0.00    +0.000 A 
ATOM     40  C   UNL     1      -9.630   1.075 122.795  0.00  0.00    +0.000 A 
ATOM     41  O   UNL     1     -10.703   0.523 122.573  0.00  0.00    +0.000 OA
BRANCH  37  42
ATOM     42  C   UNL     1      -6.185   3.480 123.848  0.00  0.00    +0.000 C 
ATOM     43  F   UNL     1      -5.418   3.830 122.785  0.00  0.00    +0.000 F 
ATOM     44  F   UNL     1      -6.629   4.639 124.405  0.00  0.00    +0.000 F 
ATOM     45  F   UNL     1      -5.360   2.905 124.761  0.00  0.00    +0.000 F 
ENDBRANCH  37  42
ENDBRANCH  34  35
ENDBRANCH  31  34
ENDBRANCH  29  32
ENDBRANCH   1  29
TORSDOF 7
ENDMDL
MODEL 9
REMARK VINA RESULT:      -9.5      3.965      9.610
REMARK  Name = CHEMBL30550
REMARK  7 active torsions:
REMARK  status: ('A' for Active; 'I' for Inactive)
REMARK    1  A    between atoms: C_2  and  C_3
REMARK    2  A    between atoms: C_3  and  N_4
REMARK    3  A    between atoms: C_6  and  C_7
REMARK    4  A    between atoms: N_15  and  C_16
REMARK    5  A    between atoms: C_16  and  C_17
REMARK    6  A    between atoms: C_22  and  C_23
REMARK    7  A    between atoms: C_28  and  N_29
REMARK                            x       y       z     vdW  Elec       q    Type
REMARK                         _______ _______ _______ _____ _____    ______ ____
ROOT
ATOM      1  C   UNL     1      -3.424   3.765 131.557  0.00  0.00    +0.000 A 
ATOM      2  C   UNL     1      -3.038   4.962 130.955  0.00  0.00    +0.000 A 
ATOM      3  C   UNL     1      -3.958   5.112 129.880  0.00  0.00    +0.000 A 
ATOM      4  C   UNL     1      -5.375   5.240 129.772  0.00  0.00    +0.000 A 
ATOM      5  C   UNL     1      -6.067   4.933 128.555  0.00  0.00    +0.000 A 
ATOM      6  C   UNL     1      -5.381   4.531 127.402  0.00  0.00    +0.000 A 
ATOM      7  C   UNL     1      -4.050   4.125 127.659  0.00  0.00    +0.000 A 
ATOM      8  C   UNL     1      -3.565   4.062 129.057  0.00  0.00    +0.000 A 
ATOM      9  O   UNL     1      -3.784   3.002 130.284  0.00  0.00    +0.000 OA
ENDROOT
BRANCH   6  10
ATOM     10  C   UNL     1      -6.104   4.691 126.021  0.00  0.00    +0.000 C 
ATOM     11  O   UNL     1      -6.015   5.794 125.468  0.00  0.00    +0.000 OA
ATOM     12  N   UNL     1      -6.767   3.622 125.344  0.00  0.00    +0.000 N 
ATOM     13  C   UNL     1      -6.419   3.282 123.945  0.00  0.00    +0.000 C 
ATOM     14  C   UNL     1      -7.603   3.014 123.015  0.00  0.00    +0.000 C 
ATOM     15  C   UNL     1      -8.370   1.541 123.524  0.00  0.00    +0.000 C 
ATOM     16  C   UNL     1      -8.893   2.356 124.984  0.00  0.00    +0.000 C 
ATOM     17  C   UNL     1      -7.759   2.739 125.950  0.00  0.00    +0.000 C 
BRANCH  15  18
ATOM     18  N   UNL     1      -7.549   0.007 122.865  0.00  0.00    +0.000 N 
ATOM     19  C   UNL     1      -8.806  -0.584 123.284  0.00  0.00    +0.000 C 
ATOM     20  O   UNL     1      -9.971  -0.259 122.945  0.00  0.00    +0.000 OA
ATOM     21  O   UNL     1      -8.737  -1.448 124.291  0.00  0.00    +0.000 OA
ATOM     22  C   UNL     1      -8.649  -2.583 123.514  0.00  0.00    +0.000 C 
ATOM     23  C   UNL     1      -7.203  -2.595 123.648  0.00  0.00    +0.000 A 
ATOM     24  C   UNL     1      -6.492  -3.384 124.601  0.00  0.00    +0.000 A 
ATOM     25  C   UNL     1      -5.185  -3.823 124.452  0.00  0.00    +0.000 A 
ATOM     26  C   UNL     1      -4.723  -3.624 123.185  0.00  0.00    +0.000 A 
ATOM     27  C   UNL     1      -5.462  -2.512 122.369  0.00  0.00    +0.000 A 
ATOM     28  C   UNL     1      -6.573  -1.566 123.001  0.00  0.00    +0.000 A 
ENDBRANCH  15  18
ENDBRANCH   6  10
BRANCH   1  29
ATOM     29  C   UNL     1      -2.807   3.263 132.941  0.00  0.00    +0.000 C 
BRANCH  29  32
ATOM     30  O   UNL     1      -5.319   2.120 135.358  0.00  0.00    +0.000 OA
ATOM     31  C   UNL     1      -4.796   2.256 134.246  0.00  0.00    +0.000 C 
ATOM     32  N   UNL     1      -3.560   2.921 134.159  0.00  0.00    +0.000 N 
ATOM     33  H   UNL     1      -3.228   3.234 135.063  0.00  0.00    +0.000 HD
BRANCH  31  34
ATOM     34  C   UNL     1      -5.484   1.659 132.985  0.00  0.00    +0.000 C 
BRANCH  34  35
ATOM     35  N   UNL     1      -6.801   2.271 132.658  0.00  0.00    +0.000 N 
ATOM     36  C   UNL     1      -6.895   3.635 132.384  0.00  0.00    +0.000 A 
ATOM     37  C   UNL     1      -8.086   4.263 132.308  0.00  0.00    +0.000 A 
ATOM     38  C   UNL     1      -9.301   3.470 132.330  0.00  0.00    +0.000 A 
ATOM     39  C   UNL     1      -9.237   2.136 132.412  0.00  0.00    +0.000 A 
ATOM     40  C   UNL     1      -7.938   1.463 132.706  0.00  0.00    +0.000 A 
ATOM     41  O   UNL     1      -7.936   0.274 133.008  0.00  0.00    +0.000 OA
BRANCH  37  42
ATOM     42  C   UNL     1      -8.236   5.754 132.192  0.00  0.00    +0.000 C 
ATOM     43  F   UNL     1      -8.429   6.160 130.912  0.00  0.00    +0.000 F 
ATOM     44  F   UNL     1      -9.307   6.197 132.906  0.00  0.00    +0.000 F 
ATOM     45  F   UNL     1      -7.155   6.426 132.665  0.00  0.00    +0.000 F 
ENDBRANCH  37  42
ENDBRANCH  34  35
ENDBRANCH  31  34
ENDBRANCH  29  32
ENDBRANCH   1  29
TORSDOF 7
ENDMDL
