MODEL 1
REMARK VINA RESULT:      -9.8      0.000      0.000
REMARK  Name = CHEMBL371983
REMARK  14 active torsions:
REMARK  status: ('A' for Active; 'I' for Inactive)
REMARK    1  A    between atoms: CD1_1  and  CG_2
REMARK    2  A    between atoms: CG_2  and  CD2_3
REMARK    3  A    between atoms: CG_2  and  CB_4
REMARK    4  A    between atoms: CB_4  and  CA_5
REMARK    5  A    between atoms: C_9  and  C_10
REMARK    6  A    between atoms: N_21  and  C_22
REMARK    7  A    between atoms: C_22  and  C_23
REMARK    8  A    between atoms: C_22  and  C_30
REMARK    9  A    between atoms: N_25  and  C_26
REMARK   10  A    between atoms: C_26  and  C_27
REMARK   11  A    between atoms: C_26  and  C_28
REMARK   12  A    between atoms: C_26  and  C_29
REMARK   13  A    between atoms: C_34  and  N_35
REMARK   14  A    between atoms: N_38  and  C_39
REMARK                            x       y       z     vdW  Elec       q    Type
REMARK                         _______ _______ _______ _____ _____    ______ ____
ROOT
ATOM      1  CA  LEU A   2      -8.016   0.924 129.569  0.00  0.00    +0.000 C 
ATOM      2  C   LEU A   2      -7.476  -0.279 128.775  0.00  0.00    +0.000 C 
ATOM      3  O   LEU A   2      -6.945  -1.269 129.219  0.00  0.00    +0.000 OA
ATOM      4  N   UNK A   1      -7.757  -0.179 127.447  0.00  0.00    +0.000 N 
ATOM      5  C   UNK A   1      -8.500   0.932 126.889  0.00  0.00    +0.000 C 
ATOM      6  C   UNK A   1      -7.996   2.252 127.486  0.00  0.00    +0.000 C 
ATOM      7  O   UNK A   1      -8.016   3.241 126.774  0.00  0.00    +0.000 OA
ATOM      8  N   LEU A   2      -7.598   2.200 128.824  0.00  0.00    +0.000 N 
ATOM      9  H   UNK A   1      -7.464  -0.977 126.898  0.00  0.00    +0.000 HD
ENDROOT
BRANCH   5  10
ATOM     10  C   UNK A   1      -8.279   1.090 125.368  0.00  0.00    +0.000 C 
ATOM     11  C   UNK A   1      -9.280   0.292 124.534  0.00  0.00    +0.000 C 
ATOM     12  C   UNK A   1      -8.550  -1.005 124.374  0.00  0.00    +0.000 A 
ATOM     13  C   UNK A   1      -9.092  -2.244 124.105  0.00  0.00    +0.000 A 
ATOM     14  C   UNK A   1      -8.241  -3.349 124.125  0.00  0.00    +0.000 A 
ATOM     15  C   UNK A   1      -6.875  -3.205 124.421  0.00  0.00    +0.000 A 
ATOM     16  C   UNK A   1      -6.334  -1.948 124.692  0.00  0.00    +0.000 A 
ATOM     17  C   UNK A   1      -7.182  -0.856 124.645  0.00  0.00    +0.000 A 
ATOM     18  C   UNK A   1      -6.863   0.565 124.980  0.00  0.00    +0.000 C 
ENDBRANCH   5  10
BRANCH   1  19
ATOM     19  CB  LEU A   2      -7.495   0.797 130.969  0.00  0.00    +0.000 C 
BRANCH  19  21
ATOM     20  CD1 LEU A   2      -7.579   1.967 133.187  0.00  0.00    +0.000 C 
ATOM     21  CG  LEU A   2      -8.310   1.006 132.226  0.00  0.00    +0.000 C 
ATOM     22  CD2 LEU A   2      -9.647   1.656 131.865  0.00  0.00    +0.000 C 
ENDBRANCH  19  21
ENDBRANCH   1  19
BRANCH   8  23
ATOM     23  C   UNK A   0      -6.780   3.363 129.443  0.00  0.00    +0.000 C 
BRANCH  23  24
ATOM     24  C   UNK A   0      -7.606   4.431 130.218  0.00  0.00    +0.000 A 
ATOM     25  C   UNK A   0      -7.161   5.033 131.399  0.00  0.00    +0.000 A 
ATOM     26  C   UNK A   0      -7.901   5.959 132.108  0.00  0.00    +0.000 A 
ATOM     27  C   UNK A   0      -9.037   6.488 131.537  0.00  0.00    +0.000 A 
ATOM     28  C   UNK A   0      -9.518   5.977 130.335  0.00  0.00    +0.000 A 
ATOM     29  C   UNK A   0      -8.850   4.884 129.743  0.00  0.00    +0.000 A 
BRANCH  28  30
ATOM     30  N   UNK A   0     -10.597   6.528 129.689  0.00  0.00    +0.000 N 
ATOM     31  C   UNK A   0     -10.388   7.143 128.385  0.00  0.00    +0.000 C 
ATOM     32  C   UNK A   0     -11.268   8.399 128.272  0.00  0.00    +0.000 C 
ATOM     33  N   UNK A   0     -12.694   8.076 128.503  0.00  0.00    +0.000 NA
ATOM     34  C   UNK A   0     -13.524   9.257 128.322  0.00  0.00    +0.000 C 
ATOM     35  C   UNK A   0     -12.826   7.533 129.880  0.00  0.00    +0.000 C 
ATOM     36  C   UNK A   0     -11.981   6.247 130.080  0.00  0.00    +0.000 C 
ENDBRANCH  28  30
ENDBRANCH  23  24
BRANCH  23  37
ATOM     37  C   UNK A   0      -5.641   4.066 128.481  0.00  0.00    +0.000 C 
ATOM     38  O   UNK A   0      -5.720   5.220 128.068  0.00  0.00    +0.000 OA
ATOM     39  N   UNK A   0      -4.466   3.423 128.138  0.00  0.00    +0.000 N 
ATOM     40  H   UNK A   0      -3.976   2.899 128.832  0.00  0.00    +0.000 HD
BRANCH  39  41
ATOM     41  C   UNK A   0      -3.495   3.930 127.195  0.00  0.00    +0.000 C 
ATOM     42  C   UNK A   0      -4.151   3.968 125.818  0.00  0.00    +0.000 C 
ATOM     43  C   UNK A   0      -3.002   5.268 127.748  0.00  0.00    +0.000 C 
ATOM     44  C   UNK A   0      -2.307   2.943 127.135  0.00  0.00    +0.000 C 
ENDBRANCH  39  41
ENDBRANCH  23  37
ENDBRANCH   8  23
TORSDOF 8
ENDMDL
MODEL 2
REMARK VINA RESULT:      -9.2      3.114      8.361
REMARK  Name = CHEMBL371983
REMARK  14 active torsions:
REMARK  status: ('A' for Active; 'I' for Inactive)
REMARK    1  A    between atoms: CD1_1  and  CG_2
REMARK    2  A    between atoms: CG_2  and  CD2_3
REMARK    3  A    between atoms: CG_2  and  CB_4
REMARK    4  A    between atoms: CB_4  and  CA_5
REMARK    5  A    between atoms: C_9  and  C_10
REMARK    6  A    between atoms: N_21  and  C_22
REMARK    7  A    between atoms: C_22  and  C_23
REMARK    8  A    between atoms: C_22  and  C_30
REMARK    9  A    between atoms: N_25  and  C_26
REMARK   10  A    between atoms: C_26  and  C_27
REMARK   11  A    between atoms: C_26  and  C_28
REMARK   12  A    between atoms: C_26  and  C_29
REMARK   13  A    between atoms: C_34  and  N_35
REMARK   14  A    between atoms: N_38  and  C_39
REMARK                            x       y       z     vdW  Elec       q    Type
REMARK                         _______ _______ _______ _____ _____    ______ ____
ROOT
ATOM      1  CA  LEU A   2      -7.304   2.775 128.954  0.00  0.00    +0.000 C 
ATOM      2  C   LEU A   2      -8.051   3.961 128.317  0.00  0.00    +0.000 C 
ATOM      3  O   LEU A   2      -8.346   4.099 127.154  0.00  0.00    +0.000 OA
ATOM      4  N   UNK A   1      -8.472   4.857 129.251  0.00  0.00    +0.000 N 
ATOM      5  C   UNK A   1      -8.247   4.670 130.670  0.00  0.00    +0.000 C 
ATOM      6  C   UNK A   1      -6.809   4.197 130.914  0.00  0.00    +0.000 C 
ATOM      7  O   UNK A   1      -6.258   4.559 131.939  0.00  0.00    +0.000 OA
ATOM      8  N   LEU A   2      -6.275   3.348 129.941  0.00  0.00    +0.000 N 
ATOM      9  H   UNK A   1      -9.014   5.626 128.876  0.00  0.00    +0.000 HD
ENDROOT
BRANCH   5  10
ATOM     10  C   UNK A   1      -8.358   5.988 131.467  0.00  0.00    +0.000 C 
ATOM     11  C   UNK A   1      -9.579   6.027 132.387  0.00  0.00    +0.000 C 
ATOM     12  C   UNK A   1     -10.599   6.641 131.480  0.00  0.00    +0.000 A 
ATOM     13  C   UNK A   1     -11.971   6.540 131.573  0.00  0.00    +0.000 A 
ATOM     14  C   UNK A   1     -12.739   7.087 130.544  0.00  0.00    +0.000 A 
ATOM     15  C   UNK A   1     -12.132   7.711 129.441  0.00  0.00    +0.000 A 
ATOM     16  C   UNK A   1     -10.743   7.809 129.355  0.00  0.00    +0.000 A 
ATOM     17  C   UNK A   1      -9.993   7.287 130.392  0.00  0.00    +0.000 A 
ATOM     18  C   UNK A   1      -8.503   7.191 130.487  0.00  0.00    +0.000 C 
ENDBRANCH   5  10
BRANCH   1  19
ATOM     19  CB  LEU A   2      -6.734   1.959 127.833  0.00  0.00    +0.000 C 
BRANCH  19  21
ATOM     20  CD1 LEU A   2      -7.352  -0.204 128.944  0.00  0.00    +0.000 C 
ATOM     21  CG  LEU A   2      -6.986   0.484 127.612  0.00  0.00    +0.000 C 
ATOM     22  CD2 LEU A   2      -8.175   0.305 126.667  0.00  0.00    +0.000 C 
ENDBRANCH  19  21
ENDBRANCH   1  19
BRANCH   8  23
ATOM     23  C   UNK A   0      -4.752   3.063 129.900  0.00  0.00    +0.000 C 
BRANCH  23  24
ATOM     24  C   UNK A   0      -4.199   2.180 131.057  0.00  0.00    +0.000 A 
ATOM     25  C   UNK A   0      -3.535   2.707 132.170  0.00  0.00    +0.000 A 
ATOM     26  C   UNK A   0      -3.015   1.928 133.184  0.00  0.00    +0.000 A 
ATOM     27  C   UNK A   0      -3.336   0.589 133.235  0.00  0.00    +0.000 A 
ATOM     28  C   UNK A   0      -4.040   0.000 132.189  0.00  0.00    +0.000 A 
ATOM     29  C   UNK A   0      -4.373   0.784 131.064  0.00  0.00    +0.000 A 
BRANCH  28  30
ATOM     30  N   UNK A   0      -4.452  -1.309 132.234  0.00  0.00    +0.000 N 
ATOM     31  C   UNK A   0      -3.442  -2.352 132.355  0.00  0.00    +0.000 C 
ATOM     32  C   UNK A   0      -3.859  -3.560 131.499  0.00  0.00    +0.000 C 
ATOM     33  N   UNK A   0      -5.203  -4.050 131.883  0.00  0.00    +0.000 NA
ATOM     34  C   UNK A   0      -5.555  -5.236 131.118  0.00  0.00    +0.000 C 
ATOM     35  C   UNK A   0      -6.177  -2.952 131.652  0.00  0.00    +0.000 C 
ATOM     36  C   UNK A   0      -5.842  -1.692 132.493  0.00  0.00    +0.000 C 
ENDBRANCH  28  30
ENDBRANCH  23  24
BRANCH  23  37
ATOM     37  C   UNK A   0      -3.763   4.347 129.599  0.00  0.00    +0.000 C 
ATOM     38  O   UNK A   0      -2.755   4.279 128.902  0.00  0.00    +0.000 OA
ATOM     39  N   UNK A   0      -4.052   5.622 130.051  0.00  0.00    +0.000 N 
ATOM     40  H   UNK A   0      -4.990   5.958 129.994  0.00  0.00    +0.000 HD
BRANCH  39  41
ATOM     41  C   UNK A   0      -3.164   6.757 129.936  0.00  0.00    +0.000 C 
ATOM     42  C   UNK A   0      -1.891   6.440 130.714  0.00  0.00    +0.000 C 
ATOM     43  C   UNK A   0      -2.994   7.033 128.442  0.00  0.00    +0.000 C 
ATOM     44  C   UNK A   0      -3.841   7.978 130.599  0.00  0.00    +0.000 C 
ENDBRANCH  39  41
ENDBRANCH  23  37
ENDBRANCH   8  23
TORSDOF 8
ENDMDL
MODEL 3
REMARK VINA RESULT:      -9.1      3.137      6.407
REMARK  Name = CHEMBL371983
REMARK  14 active torsions:
REMARK  status: ('A' for Active; 'I' for Inactive)
REMARK    1  A    between atoms: CD1_1  and  CG_2
REMARK    2  A    between atoms: CG_2  and  CD2_3
REMARK    3  A    between atoms: CG_2  and  CB_4
REMARK    4  A    between atoms: CB_4  and  CA_5
REMARK    5  A    between atoms: C_9  and  C_10
REMARK    6  A    between atoms: N_21  and  C_22
REMARK    7  A    between atoms: C_22  and  C_23
REMARK    8  A    between atoms: C_22  and  C_30
REMARK    9  A    between atoms: N_25  and  C_26
REMARK   10  A    between atoms: C_26  and  C_27
REMARK   11  A    between atoms: C_26  and  C_28
REMARK   12  A    between atoms: C_26  and  C_29
REMARK   13  A    between atoms: C_34  and  N_35
REMARK   14  A    between atoms: N_38  and  C_39
REMARK                            x       y       z     vdW  Elec       q    Type
REMARK                         _______ _______ _______ _____ _____    ______ ____
ROOT
ATOM      1  CA  LEU A   2      -5.050   2.880 126.759  0.00  0.00    +0.000 C 
ATOM      2  C   LEU A   2      -5.951   2.669 125.529  0.00  0.00    +0.000 C 
ATOM      3  O   LEU A   2      -5.861   3.218 124.456  0.00  0.00    +0.000 OA
ATOM      4  N   UNK A   1      -6.856   1.673 125.726  0.00  0.00    +0.000 N 
ATOM      5  C   UNK A   1      -6.918   0.906 126.953  0.00  0.00    +0.000 C 
ATOM      6  C   UNK A   1      -6.800   1.842 128.162  0.00  0.00    +0.000 C 
ATOM      7  O   UNK A   1      -7.408   1.542 129.175  0.00  0.00    +0.000 OA
ATOM      8  N   LEU A   2      -5.958   2.945 127.996  0.00  0.00    +0.000 N 
ATOM      9  H   UNK A   1      -7.433   1.469 124.919  0.00  0.00    +0.000 HD
ENDROOT
BRANCH   5  10
ATOM     10  C   UNK A   1      -8.279   0.202 127.146  0.00  0.00    +0.000 C 
ATOM     11  C   UNK A   1      -8.143  -1.302 127.385  0.00  0.00    +0.000 C 
ATOM     12  C   UNK A   1      -8.218  -1.823 125.984  0.00  0.00    +0.000 A 
ATOM     13  C   UNK A   1      -7.732  -3.023 125.509  0.00  0.00    +0.000 A 
ATOM     14  C   UNK A   1      -7.794  -3.256 124.135  0.00  0.00    +0.000 A 
ATOM     15  C   UNK A   1      -8.324  -2.293 123.261  0.00  0.00    +0.000 A 
ATOM     16  C   UNK A   1      -8.814  -1.082 123.749  0.00  0.00    +0.000 A 
ATOM     17  C   UNK A   1      -8.771  -0.871 125.115  0.00  0.00    +0.000 A 
ATOM     18  C   UNK A   1      -9.149   0.368 125.862  0.00  0.00    +0.000 C 
ENDBRANCH   5  10
BRANCH   1  19
ATOM     19  CB  LEU A   2      -4.228   4.106 126.500  0.00  0.00    +0.000 C 
BRANCH  19  21
ATOM     20  CD1 LEU A   2      -2.459   5.259 127.855  0.00  0.00    +0.000 C 
ATOM     21  CG  LEU A   2      -2.739   4.226 126.743  0.00  0.00    +0.000 C 
ATOM     22  CD2 LEU A   2      -2.190   2.882 127.224  0.00  0.00    +0.000 C 
ENDBRANCH  19  21
ENDBRANCH   1  19
BRANCH   8  23
ATOM     23  C   UNK A   0      -6.001   4.122 129.005  0.00  0.00    +0.000 C 
BRANCH  23  24
ATOM     24  C   UNK A   0      -4.966   4.053 130.167  0.00  0.00    +0.000 A 
ATOM     25  C   UNK A   0      -4.554   2.853 130.753  0.00  0.00    +0.000 A 
ATOM     26  C   UNK A   0      -3.660   2.786 131.803  0.00  0.00    +0.000 A 
ATOM     27  C   UNK A   0      -2.968   3.920 132.168  0.00  0.00    +0.000 A 
ATOM     28  C   UNK A   0      -3.285   5.147 131.593  0.00  0.00    +0.000 A 
ATOM     29  C   UNK A   0      -4.352   5.213 130.672  0.00  0.00    +0.000 A 
BRANCH  28  30
ATOM     30  N   UNK A   0      -2.567   6.286 131.865  0.00  0.00    +0.000 N 
ATOM     31  C   UNK A   0      -1.115   6.234 131.764  0.00  0.00    +0.000 C 
ATOM     32  C   UNK A   0      -0.500   7.082 132.889  0.00  0.00    +0.000 C 
ATOM     33  N   UNK A   0      -1.003   8.475 132.845  0.00  0.00    +0.000 NA
ATOM     34  C   UNK A   0      -0.360   9.286 133.868  0.00  0.00    +0.000 C 
ATOM     35  C   UNK A   0      -2.476   8.439 133.037  0.00  0.00    +0.000 C 
ATOM     36  C   UNK A   0      -3.185   7.613 131.931  0.00  0.00    +0.000 C 
ENDBRANCH  28  30
ENDBRANCH  23  24
BRANCH  23  37
ATOM     37  C   UNK A   0      -7.487   4.579 129.552  0.00  0.00    +0.000 C 
ATOM     38  O   UNK A   0      -8.298   5.203 128.873  0.00  0.00    +0.000 OA
ATOM     39  N   UNK A   0      -7.958   4.215 130.799  0.00  0.00    +0.000 N 
ATOM     40  H   UNK A   0      -7.802   3.285 131.127  0.00  0.00    +0.000 HD
BRANCH  39  41
ATOM     41  C   UNK A   0      -9.190   4.692 131.386  0.00  0.00    +0.000 C 
ATOM     42  C   UNK A   0      -9.135   6.216 131.422  0.00  0.00    +0.000 C 
ATOM     43  C   UNK A   0     -10.331   4.074 130.578  0.00  0.00    +0.000 C 
ATOM     44  C   UNK A   0      -9.271   4.179 132.842  0.00  0.00    +0.000 C 
ENDBRANCH  39  41
ENDBRANCH  23  37
ENDBRANCH   8  23
TORSDOF 8
ENDMDL
MODEL 4
REMARK VINA RESULT:      -9.1      3.130      8.319
REMARK  Name = CHEMBL371983
REMARK  14 active torsions:
REMARK  status: ('A' for Active; 'I' for Inactive)
REMARK    1  A    between atoms: CD1_1  and  CG_2
REMARK    2  A    between atoms: CG_2  and  CD2_3
REMARK    3  A    between atoms: CG_2  and  CB_4
REMARK    4  A    between atoms: CB_4  and  CA_5
REMARK    5  A    between atoms: C_9  and  C_10
REMARK    6  A    between atoms: N_21  and  C_22
REMARK    7  A    between atoms: C_22  and  C_23
REMARK    8  A    between atoms: C_22  and  C_30
REMARK    9  A    between atoms: N_25  and  C_26
REMARK   10  A    between atoms: C_26  and  C_27
REMARK   11  A    between atoms: C_26  and  C_28
REMARK   12  A    between atoms: C_26  and  C_29
REMARK   13  A    between atoms: C_34  and  N_35
REMARK   14  A    between atoms: N_38  and  C_39
REMARK                            x       y       z     vdW  Elec       q    Type
REMARK                         _______ _______ _______ _____ _____    ______ ____
ROOT
ATOM      1  CA  LEU A   2      -7.169   4.166 131.546  0.00  0.00    +0.000 C 
ATOM      2  C   LEU A   2      -7.132   5.681 131.820  0.00  0.00    +0.000 C 
ATOM      3  O   LEU A   2      -7.956   6.336 132.413  0.00  0.00    +0.000 OA
ATOM      4  N   UNK A   1      -5.967   6.246 131.400  0.00  0.00    +0.000 N 
ATOM      5  C   UNK A   1      -4.901   5.475 130.794  0.00  0.00    +0.000 C 
ATOM      6  C   UNK A   1      -5.481   4.491 129.771  0.00  0.00    +0.000 C 
ATOM      7  O   UNK A   1      -4.810   4.233 128.787  0.00  0.00    +0.000 OA
ATOM      8  N   LEU A   2      -6.726   3.944 130.092  0.00  0.00    +0.000 N 
ATOM      9  H   UNK A   1      -5.884   7.232 131.609  0.00  0.00    +0.000 HD
ENDROOT
BRANCH   5  10
ATOM     10  C   UNK A   1      -3.927   6.351 129.975  0.00  0.00    +0.000 C 
ATOM     11  C   UNK A   1      -2.484   5.848 130.028  0.00  0.00    +0.000 C 
ATOM     12  C   UNK A   1      -1.963   6.601 131.211  0.00  0.00    +0.000 A 
ATOM     13  C   UNK A   1      -0.891   6.266 132.012  0.00  0.00    +0.000 A 
ATOM     14  C   UNK A   1      -0.653   7.044 133.146  0.00  0.00    +0.000 A 
ATOM     15  C   UNK A   1      -1.486   8.128 133.468  0.00  0.00    +0.000 A 
ATOM     16  C   UNK A   1      -2.567   8.461 132.652  0.00  0.00    +0.000 A 
ATOM     17  C   UNK A   1      -2.780   7.700 131.517  0.00  0.00    +0.000 A 
ATOM     18  C   UNK A   1      -3.911   7.802 130.545  0.00  0.00    +0.000 C 
ENDBRANCH   5  10
BRANCH   1  19
ATOM     19  CB  LEU A   2      -8.551   3.691 131.877  0.00  0.00    +0.000 C 
BRANCH  19  21
ATOM     20  CD1 LEU A   2      -9.689   1.461 132.031  0.00  0.00    +0.000 C 
ATOM     21  CG  LEU A   2      -8.881   2.532 132.791  0.00  0.00    +0.000 C 
ATOM     22  CD2 LEU A   2      -7.585   1.872 133.266  0.00  0.00    +0.000 C 
ENDBRANCH  19  21
ENDBRANCH   1  19
BRANCH   8  23
ATOM     23  C   UNK A   0      -7.557   3.201 129.015  0.00  0.00    +0.000 C 
BRANCH  23  24
ATOM     24  C   UNK A   0      -7.320   1.665 128.919  0.00  0.00    +0.000 A 
ATOM     25  C   UNK A   0      -6.687   0.926 129.923  0.00  0.00    +0.000 A 
ATOM     26  C   UNK A   0      -6.446  -0.431 129.832  0.00  0.00    +0.000 A 
ATOM     27  C   UNK A   0      -7.034  -1.150 128.815  0.00  0.00    +0.000 A 
ATOM     28  C   UNK A   0      -7.726  -0.491 127.804  0.00  0.00    +0.000 A 
ATOM     29  C   UNK A   0      -7.772   0.920 127.816  0.00  0.00    +0.000 A 
BRANCH  28  30
ATOM     30  N   UNK A   0      -8.396  -1.171 126.817  0.00  0.00    +0.000 N 
ATOM     31  C   UNK A   0      -8.593  -2.606 126.972  0.00  0.00    +0.000 C 
ATOM     32  C   UNK A   0      -8.441  -3.287 125.602  0.00  0.00    +0.000 C 
ATOM     33  N   UNK A   0      -9.378  -2.709 124.610  0.00  0.00    +0.000 NA
ATOM     34  C   UNK A   0      -9.277  -3.410 123.339  0.00  0.00    +0.000 C 
ATOM     35  C   UNK A   0      -9.053  -1.268 124.456  0.00  0.00    +0.000 C 
ATOM     36  C   UNK A   0      -9.197  -0.494 125.793  0.00  0.00    +0.000 C 
ENDBRANCH  28  30
ENDBRANCH  23  24
BRANCH  23  37
ATOM     37  C   UNK A   0      -7.623   3.892 127.519  0.00  0.00    +0.000 C 
ATOM     38  O   UNK A   0      -8.381   4.813 127.230  0.00  0.00    +0.000 OA
ATOM     39  N   UNK A   0      -6.759   3.532 126.502  0.00  0.00    +0.000 N 
ATOM     40  H   UNK A   0      -5.794   3.383 126.710  0.00  0.00    +0.000 HD
BRANCH  39  41
ATOM     41  C   UNK A   0      -6.852   4.001 125.138  0.00  0.00    +0.000 C 
ATOM     42  C   UNK A   0      -8.266   3.719 124.638  0.00  0.00    +0.000 C 
ATOM     43  C   UNK A   0      -6.415   5.466 125.146  0.00  0.00    +0.000 C 
ATOM     44  C   UNK A   0      -5.865   3.187 124.271  0.00  0.00    +0.000 C 
ENDBRANCH  39  41
ENDBRANCH  23  37
ENDBRANCH   8  23
TORSDOF 8
ENDMDL
MODEL 5
REMARK VINA RESULT:      -8.9      3.477      9.005
REMARK  Name = CHEMBL371983
REMARK  14 active torsions:
REMARK  status: ('A' for Active; 'I' for Inactive)
REMARK    1  A    between atoms: CD1_1  and  CG_2
REMARK    2  A    between atoms: CG_2  and  CD2_3
REMARK    3  A    between atoms: CG_2  and  CB_4
REMARK    4  A    between atoms: CB_4  and  CA_5
REMARK    5  A    between atoms: C_9  and  C_10
REMARK    6  A    between atoms: N_21  and  C_22
REMARK    7  A    between atoms: C_22  and  C_23
REMARK    8  A    between atoms: C_22  and  C_30
REMARK    9  A    between atoms: N_25  and  C_26
REMARK   10  A    between atoms: C_26  and  C_27
REMARK   11  A    between atoms: C_26  and  C_28
REMARK   12  A    between atoms: C_26  and  C_29
REMARK   13  A    between atoms: C_34  and  N_35
REMARK   14  A    between atoms: N_38  and  C_39
REMARK                            x       y       z     vdW  Elec       q    Type
REMARK                         _______ _______ _______ _____ _____    ______ ____
ROOT
ATOM      1  CA  LEU A   2      -8.020   2.832 128.809  0.00  0.00    +0.000 C 
ATOM      2  C   LEU A   2      -8.034   4.226 128.156  0.00  0.00    +0.000 C 
ATOM      3  O   LEU A   2      -7.599   4.528 127.069  0.00  0.00    +0.000 OA
ATOM      4  N   UNK A   1      -8.713   5.134 128.909  0.00  0.00    +0.000 N 
ATOM      5  C   UNK A   1      -9.355   4.785 130.160  0.00  0.00    +0.000 C 
ATOM      6  C   UNK A   1      -8.423   3.903 130.999  0.00  0.00    +0.000 C 
ATOM      7  O   UNK A   1      -8.474   4.015 132.212  0.00  0.00    +0.000 OA
ATOM      8  N   LEU A   2      -7.621   3.011 130.282  0.00  0.00    +0.000 N 
ATOM      9  H   UNK A   1      -8.789   6.051 128.487  0.00  0.00    +0.000 HD
ENDROOT
BRANCH   5  10
ATOM     10  C   UNK A   1      -9.624   6.017 131.052  0.00  0.00    +0.000 C 
ATOM     11  C   UNK A   1     -11.093   6.154 131.452  0.00  0.00    +0.000 C 
ATOM     12  C   UNK A   1     -11.614   7.008 130.339  0.00  0.00    +0.000 A 
ATOM     13  C   UNK A   1     -12.918   7.114 129.904  0.00  0.00    +0.000 A 
ATOM     14  C   UNK A   1     -13.167   7.875 128.761  0.00  0.00    +0.000 A 
ATOM     15  C   UNK A   1     -12.119   8.504 128.068  0.00  0.00    +0.000 A 
ATOM     16  C   UNK A   1     -10.803   8.392 128.515  0.00  0.00    +0.000 A 
ATOM     17  C   UNK A   1     -10.570   7.657 129.663  0.00  0.00    +0.000 A 
ATOM     18  C   UNK A   1      -9.252   7.321 130.283  0.00  0.00    +0.000 C 
ENDBRANCH   5  10
BRANCH   1  19
ATOM     19  CB  LEU A   2      -7.101   1.972 127.995  0.00  0.00    +0.000 C 
BRANCH  19  21
ATOM     20  CD1 LEU A   2      -7.666  -0.458 128.256  0.00  0.00    +0.000 C 
ATOM     21  CG  LEU A   2      -7.506   0.712 127.263  0.00  0.00    +0.000 C 
ATOM     22  CD2 LEU A   2      -8.862   0.925 126.590  0.00  0.00    +0.000 C 
ENDBRANCH  19  21
ENDBRANCH   1  19
BRANCH   8  23
ATOM     23  C   UNK A   0      -6.425   2.305 130.970  0.00  0.00    +0.000 C 
BRANCH  23  24
ATOM     24  C   UNK A   0      -6.731   0.912 131.594  0.00  0.00    +0.000 A 
ATOM     25  C   UNK A   0      -8.027   0.409 131.743  0.00  0.00    +0.000 A 
ATOM     26  C   UNK A   0      -8.308  -0.812 132.323  0.00  0.00    +0.000 A 
ATOM     27  C   UNK A   0      -7.275  -1.686 132.580  0.00  0.00    +0.000 A 
ATOM     28  C   UNK A   0      -5.956  -1.278 132.407  0.00  0.00    +0.000 A 
ATOM     29  C   UNK A   0      -5.699   0.052 132.013  0.00  0.00    +0.000 A 
BRANCH  28  30
ATOM     30  N   UNK A   0      -4.899  -2.139 132.572  0.00  0.00    +0.000 N 
ATOM     31  C   UNK A   0      -4.760  -3.254 131.644  0.00  0.00    +0.000 C 
ATOM     32  C   UNK A   0      -4.266  -4.491 132.413  0.00  0.00    +0.000 C 
ATOM     33  N   UNK A   0      -2.998  -4.208 133.125  0.00  0.00    +0.000 NA
ATOM     34  C   UNK A   0      -2.503  -5.406 133.787  0.00  0.00    +0.000 C 
ATOM     35  C   UNK A   0      -3.252  -3.119 134.103  0.00  0.00    +0.000 C 
ATOM     36  C   UNK A   0      -3.741  -1.820 133.410  0.00  0.00    +0.000 C 
ENDBRANCH  28  30
ENDBRANCH  23  24
BRANCH  23  37
ATOM     37  C   UNK A   0      -5.500   3.224 131.979  0.00  0.00    +0.000 C 
ATOM     38  O   UNK A   0      -4.539   3.888 131.601  0.00  0.00    +0.000 OA
ATOM     39  N   UNK A   0      -5.798   3.375 133.320  0.00  0.00    +0.000 N 
ATOM     40  H   UNK A   0      -6.748   3.507 133.597  0.00  0.00    +0.000 HD
BRANCH  39  41
ATOM     41  C   UNK A   0      -4.957   4.054 134.279  0.00  0.00    +0.000 C 
ATOM     42  C   UNK A   0      -3.578   3.402 134.241  0.00  0.00    +0.000 C 
ATOM     43  C   UNK A   0      -5.013   5.543 133.938  0.00  0.00    +0.000 C 
ATOM     44  C   UNK A   0      -5.551   3.840 135.690  0.00  0.00    +0.000 C 
ENDBRANCH  39  41
ENDBRANCH  23  37
ENDBRANCH   8  23
TORSDOF 8
ENDMDL
MODEL 6
REMARK VINA RESULT:      -8.9      3.109      7.326
REMARK  Name = CHEMBL371983
REMARK  14 active torsions:
REMARK  status: ('A' for Active; 'I' for Inactive)
REMARK    1  A    between atoms: CD1_1  and  CG_2
REMARK    2  A    between atoms: CG_2  and  CD2_3
REMARK    3  A    between atoms: CG_2  and  CB_4
REMARK    4  A    between atoms: CB_4  and  CA_5
REMARK    5  A    between atoms: C_9  and  C_10
REMARK    6  A    between atoms: N_21  and  C_22
REMARK    7  A    between atoms: C_22  and  C_23
REMARK    8  A    between atoms: C_22  and  C_30
REMARK    9  A    between atoms: N_25  and  C_26
REMARK   10  A    between atoms: C_26  and  C_27
REMARK   11  A    between atoms: C_26  and  C_28
REMARK   12  A    between atoms: C_26  and  C_29
REMARK   13  A    between atoms: C_34  and  N_35
REMARK   14  A    between atoms: N_38  and  C_39
REMARK                            x       y       z     vdW  Elec       q    Type
REMARK                         _______ _______ _______ _____ _____    ______ ____
ROOT
ATOM      1  CA  LEU A   2      -8.537   2.689 130.841  0.00  0.00    +0.000 C 
ATOM      2  C   LEU A   2      -8.907   3.470 129.567  0.00  0.00    +0.000 C 
ATOM      3  O   LEU A   2      -8.762   3.110 128.423  0.00  0.00    +0.000 OA
ATOM      4  N   UNK A   1      -9.547   4.636 129.853  0.00  0.00    +0.000 N 
ATOM      5  C   UNK A   1      -9.850   5.048 131.209  0.00  0.00    +0.000 C 
ATOM      6  C   UNK A   1      -8.635   4.806 132.113  0.00  0.00    +0.000 C 
ATOM      7  O   UNK A   1      -8.449   5.583 133.033  0.00  0.00    +0.000 OA
ATOM      8  N   LEU A   2      -7.872   3.674 131.815  0.00  0.00    +0.000 N 
ATOM      9  H   UNK A   1      -9.853   5.153 129.039  0.00  0.00    +0.000 HD
ENDROOT
BRANCH   5  10
ATOM     10  C   UNK A   1     -10.116   6.565 131.322  0.00  0.00    +0.000 C 
ATOM     11  C   UNK A   1     -11.605   6.904 131.400  0.00  0.00    +0.000 C 
ATOM     12  C   UNK A   1     -11.933   7.087 129.952  0.00  0.00    +0.000 A 
ATOM     13  C   UNK A   1     -13.170   6.976 129.352  0.00  0.00    +0.000 A 
ATOM     14  C   UNK A   1     -13.232   7.059 127.960  0.00  0.00    +0.000 A 
ATOM     15  C   UNK A   1     -12.069   7.238 127.193  0.00  0.00    +0.000 A 
ATOM     16  C   UNK A   1     -10.822   7.350 127.807  0.00  0.00    +0.000 A 
ATOM     17  C   UNK A   1     -10.774   7.292 129.188  0.00  0.00    +0.000 A 
ATOM     18  C   UNK A   1      -9.561   7.298 130.063  0.00  0.00    +0.000 C 
ENDBRANCH   5  10
BRANCH   1  19
ATOM     19  CB  LEU A   2      -7.685   1.531 130.418  0.00  0.00    +0.000 C 
BRANCH  19  21
ATOM     20  CD1 LEU A   2      -6.922  -0.853 130.248  0.00  0.00    +0.000 C 
ATOM     21  CG  LEU A   2      -8.139   0.089 130.362  0.00  0.00    +0.000 C 
ATOM     22  CD2 LEU A   2      -8.869  -0.267 131.657  0.00  0.00    +0.000 C 
ENDBRANCH  19  21
ENDBRANCH   1  19
BRANCH   8  23
ATOM     23  C   UNK A   0      -6.462   3.495 132.434  0.00  0.00    +0.000 C 
BRANCH  23  24
ATOM     24  C   UNK A   0      -5.268   3.924 131.531  0.00  0.00    +0.000 A 
ATOM     25  C   UNK A   0      -4.006   4.250 132.036  0.00  0.00    +0.000 A 
ATOM     26  C   UNK A   0      -2.952   4.661 131.244  0.00  0.00    +0.000 A 
ATOM     27  C   UNK A   0      -3.058   4.549 129.875  0.00  0.00    +0.000 A 
ATOM     28  C   UNK A   0      -4.268   4.180 129.297  0.00  0.00    +0.000 A 
ATOM     29  C   UNK A   0      -5.387   3.971 130.130  0.00  0.00    +0.000 A 
BRANCH  28  30
ATOM     30  N   UNK A   0      -4.397   3.975 127.945  0.00  0.00    +0.000 N 
ATOM     31  C   UNK A   0      -4.533   5.137 127.076  0.00  0.00    +0.000 C 
ATOM     32  C   UNK A   0      -5.531   4.813 125.952  0.00  0.00    +0.000 C 
ATOM     33  N   UNK A   0      -5.115   3.609 125.197  0.00  0.00    +0.000 NA
ATOM     34  C   UNK A   0      -6.027   3.355 124.092  0.00  0.00    +0.000 C 
ATOM     35  C   UNK A   0      -5.082   2.462 126.140  0.00  0.00    +0.000 C 
ATOM     36  C   UNK A   0      -4.083   2.696 127.304  0.00  0.00    +0.000 C 
ENDBRANCH  28  30
ENDBRANCH  23  24
BRANCH  23  37
ATOM     37  C   UNK A   0      -6.158   2.061 133.189  0.00  0.00    +0.000 C 
ATOM     38  O   UNK A   0      -6.847   1.614 134.101  0.00  0.00    +0.000 OA
ATOM     39  N   UNK A   0      -5.141   1.215 132.784  0.00  0.00    +0.000 N 
ATOM     40  H   UNK A   0      -4.989   1.068 131.808  0.00  0.00    +0.000 HD
BRANCH  39  41
ATOM     41  C   UNK A   0      -4.741   0.015 133.483  0.00  0.00    +0.000 C 
ATOM     42  C   UNK A   0      -3.944   0.432 134.715  0.00  0.00    +0.000 C 
ATOM     43  C   UNK A   0      -6.015  -0.790 133.739  0.00  0.00    +0.000 C 
ATOM     44  C   UNK A   0      -3.808  -0.801 132.560  0.00  0.00    +0.000 C 
ENDBRANCH  39  41
ENDBRANCH  23  37
ENDBRANCH   8  23
TORSDOF 8
ENDMDL
MODEL 7
REMARK VINA RESULT:      -8.9      2.971      7.005
REMARK  Name = CHEMBL371983
REMARK  14 active torsions:
REMARK  status: ('A' for Active; 'I' for Inactive)
REMARK    1  A    between atoms: CD1_1  and  CG_2
REMARK    2  A    between atoms: CG_2  and  CD2_3
REMARK    3  A    between atoms: CG_2  and  CB_4
REMARK    4  A    between atoms: CB_4  and  CA_5
REMARK    5  A    between atoms: C_9  and  C_10
REMARK    6  A    between atoms: N_21  and  C_22
REMARK    7  A    between atoms: C_22  and  C_23
REMARK    8  A    between atoms: C_22  and  C_30
REMARK    9  A    between atoms: N_25  and  C_26
REMARK   10  A    between atoms: C_26  and  C_27
REMARK   11  A    between atoms: C_26  and  C_28
REMARK   12  A    between atoms: C_26  and  C_29
REMARK   13  A    between atoms: C_34  and  N_35
REMARK   14  A    between atoms: N_38  and  C_39
REMARK                            x       y       z     vdW  Elec       q    Type
REMARK                         _______ _______ _______ _____ _____    ______ ____
ROOT
ATOM      1  CA  LEU A   2      -4.971   2.367 126.802  0.00  0.00    +0.000 C 
ATOM      2  C   LEU A   2      -5.862   2.393 125.547  0.00  0.00    +0.000 C 
ATOM      3  O   LEU A   2      -5.685   3.035 124.538  0.00  0.00    +0.000 OA
ATOM      4  N   UNK A   1      -6.880   1.494 125.627  0.00  0.00    +0.000 N 
ATOM      5  C   UNK A   1      -7.058   0.617 126.766  0.00  0.00    +0.000 C 
ATOM      6  C   UNK A   1      -6.861   1.402 128.068  0.00  0.00    +0.000 C 
ATOM      7  O   UNK A   1      -7.523   1.071 129.037  0.00  0.00    +0.000 OA
ATOM      8  N   LEU A   2      -5.894   2.410 128.029  0.00  0.00    +0.000 N 
ATOM      9  H   UNK A   1      -7.458   1.444 124.798  0.00  0.00    +0.000 HD
ENDROOT
BRANCH   5  10
ATOM     10  C   UNK A   1      -8.495   0.060 126.868  0.00  0.00    +0.000 C 
ATOM     11  C   UNK A   1      -8.534  -1.448 127.115  0.00  0.00    +0.000 C 
ATOM     12  C   UNK A   1      -8.572  -1.966 125.711  0.00  0.00    +0.000 A 
ATOM     13  C   UNK A   1      -8.185  -3.214 125.268  0.00  0.00    +0.000 A 
ATOM     14  C   UNK A   1      -8.181  -3.447 123.892  0.00  0.00    +0.000 A 
ATOM     15  C   UNK A   1      -8.549  -2.438 122.986  0.00  0.00    +0.000 A 
ATOM     16  C   UNK A   1      -8.939  -1.180 123.442  0.00  0.00    +0.000 A 
ATOM     17  C   UNK A   1      -8.964  -0.967 124.808  0.00  0.00    +0.000 A 
ATOM     18  C   UNK A   1      -9.257   0.309 125.531  0.00  0.00    +0.000 C 
ENDBRANCH   5  10
BRANCH   1  19
ATOM     19  CB  LEU A   2      -4.007   3.509 126.683  0.00  0.00    +0.000 C 
BRANCH  19  21
ATOM     20  CD1 LEU A   2      -1.525   3.188 126.506  0.00  0.00    +0.000 C 
ATOM     21  CG  LEU A   2      -2.691   3.621 127.420  0.00  0.00    +0.000 C 
ATOM     22  CD2 LEU A   2      -2.446   5.079 127.809  0.00  0.00    +0.000 C 
ENDBRANCH  19  21
ENDBRANCH   1  19
BRANCH   8  23
ATOM     23  C   UNK A   0      -5.824   3.473 129.156  0.00  0.00    +0.000 C 
BRANCH  23  24
ATOM     24  C   UNK A   0      -4.843   3.157 130.323  0.00  0.00    +0.000 A 
ATOM     25  C   UNK A   0      -4.106   4.140 130.989  0.00  0.00    +0.000 A 
ATOM     26  C   UNK A   0      -3.210   3.864 132.003  0.00  0.00    +0.000 A 
ATOM     27  C   UNK A   0      -3.181   2.599 132.547  0.00  0.00    +0.000 A 
ATOM     28  C   UNK A   0      -3.928   1.575 131.971  0.00  0.00    +0.000 A 
ATOM     29  C   UNK A   0      -4.670   1.846 130.802  0.00  0.00    +0.000 A 
BRANCH  28  30
ATOM     30  N   UNK A   0      -3.993   0.320 132.526  0.00  0.00    +0.000 N 
ATOM     31  C   UNK A   0      -2.967  -0.071 133.483  0.00  0.00    +0.000 C 
ATOM     32  C   UNK A   0      -2.613  -1.552 133.266  0.00  0.00    +0.000 C 
ATOM     33  N   UNK A   0      -3.816  -2.410 133.370  0.00  0.00    +0.000 NA
ATOM     34  C   UNK A   0      -3.458  -3.814 133.236  0.00  0.00    +0.000 C 
ATOM     35  C   UNK A   0      -4.770  -1.996 132.309  0.00  0.00    +0.000 C 
ATOM     36  C   UNK A   0      -5.197  -0.512 132.461  0.00  0.00    +0.000 C 
ENDBRANCH  28  30
ENDBRANCH  23  24
BRANCH  23  37
ATOM     37  C   UNK A   0      -7.260   4.054 129.721  0.00  0.00    +0.000 C 
ATOM     38  O   UNK A   0      -7.901   4.939 129.162  0.00  0.00    +0.000 OA
ATOM     39  N   UNK A   0      -7.887   3.517 130.830  0.00  0.00    +0.000 N 
ATOM     40  H   UNK A   0      -7.909   2.526 130.947  0.00  0.00    +0.000 HD
BRANCH  39  41
ATOM     41  C   UNK A   0      -9.073   4.064 131.451  0.00  0.00    +0.000 C 
ATOM     42  C   UNK A   0      -8.886   5.573 131.575  0.00  0.00    +0.000 C 
ATOM     43  C   UNK A   0     -10.263   3.595 130.615  0.00  0.00    +0.000 C 
ATOM     44  C   UNK A   0      -9.197   3.476 132.875  0.00  0.00    +0.000 C 
ENDBRANCH  39  41
ENDBRANCH  23  37
ENDBRANCH   8  23
TORSDOF 8
ENDMDL
MODEL 8
REMARK VINA RESULT:      -8.8      3.158      8.194
REMARK  Name = CHEMBL371983
REMARK  14 active torsions:
REMARK  status: ('A' for Active; 'I' for Inactive)
REMARK    1  A    between atoms: CD1_1  and  CG_2
REMARK    2  A    between atoms: CG_2  and  CD2_3
REMARK    3  A    between atoms: CG_2  and  CB_4
REMARK    4  A    between atoms: CB_4  and  CA_5
REMARK    5  A    between atoms: C_9  and  C_10
REMARK    6  A    between atoms: N_21  and  C_22
REMARK    7  A    between atoms: C_22  and  C_23
REMARK    8  A    between atoms: C_22  and  C_30
REMARK    9  A    between atoms: N_25  and  C_26
REMARK   10  A    between atoms: C_26  and  C_27
REMARK   11  A    between atoms: C_26  and  C_28
REMARK   12  A    between atoms: C_26  and  C_29
REMARK   13  A    between atoms: C_34  and  N_35
REMARK   14  A    between atoms: N_38  and  C_39
REMARK                            x       y       z     vdW  Elec       q    Type
REMARK                         _______ _______ _______ _____ _____    ______ ____
ROOT
ATOM      1  CA  LEU A   2      -5.733   2.482 130.923  0.00  0.00    +0.000 C 
ATOM      2  C   LEU A   2      -5.292   3.360 132.108  0.00  0.00    +0.000 C 
ATOM      3  O   LEU A   2      -5.429   3.121 133.284  0.00  0.00    +0.000 OA
ATOM      4  N   UNK A   1      -4.597   4.456 131.698  0.00  0.00    +0.000 N 
ATOM      5  C   UNK A   1      -4.304   4.717 130.304  0.00  0.00    +0.000 C 
ATOM      6  C   UNK A   1      -5.550   4.457 129.449  0.00  0.00    +0.000 C 
ATOM      7  O   UNK A   1      -5.716   5.151 128.461  0.00  0.00    +0.000 OA
ATOM      8  N   LEU A   2      -6.366   3.403 129.869  0.00  0.00    +0.000 N 
ATOM      9  H   UNK A   1      -4.245   5.031 132.453  0.00  0.00    +0.000 HD
ENDROOT
BRANCH   5  10
ATOM     10  C   UNK A   1      -3.959   6.199 130.038  0.00  0.00    +0.000 C 
ATOM     11  C   UNK A   1      -2.460   6.439 129.853  0.00  0.00    +0.000 C 
ATOM     12  C   UNK A   1      -2.043   6.728 131.261  0.00  0.00    +0.000 A 
ATOM     13  C   UNK A   1      -0.782   6.596 131.805  0.00  0.00    +0.000 A 
ATOM     14  C   UNK A   1      -0.637   6.798 133.178  0.00  0.00    +0.000 A 
ATOM     15  C   UNK A   1      -1.743   7.116 133.983  0.00  0.00    +0.000 A 
ATOM     16  C   UNK A   1      -3.015   7.248 133.426  0.00  0.00    +0.000 A 
ATOM     17  C   UNK A   1      -3.143   7.071 132.060  0.00  0.00    +0.000 A 
ATOM     18  C   UNK A   1      -4.401   7.073 131.251  0.00  0.00    +0.000 C 
ENDBRANCH   5  10
BRANCH   1  19
ATOM     19  CB  LEU A   2      -6.635   1.418 131.472  0.00  0.00    +0.000 C 
BRANCH  19  21
ATOM     20  CD1 LEU A   2      -6.063  -0.993 131.081  0.00  0.00    +0.000 C 
ATOM     21  CG  LEU A   2      -7.038   0.155 130.745  0.00  0.00    +0.000 C 
ATOM     22  CD2 LEU A   2      -8.429  -0.280 131.210  0.00  0.00    +0.000 C 
ENDBRANCH  19  21
ENDBRANCH   1  19
BRANCH   8  23
ATOM     23  C   UNK A   0      -7.798   3.244 129.296  0.00  0.00    +0.000 C 
BRANCH  23  24
ATOM     24  C   UNK A   0      -7.896   2.529 127.916  0.00  0.00    +0.000 A 
ATOM     25  C   UNK A   0      -8.605   1.340 127.721  0.00  0.00    +0.000 A 
ATOM     26  C   UNK A   0      -8.672   0.684 126.507  0.00  0.00    +0.000 A 
ATOM     27  C   UNK A   0      -8.208   1.317 125.376  0.00  0.00    +0.000 A 
ATOM     28  C   UNK A   0      -7.535   2.531 125.482  0.00  0.00    +0.000 A 
ATOM     29  C   UNK A   0      -7.299   3.070 126.764  0.00  0.00    +0.000 A 
BRANCH  28  30
ATOM     30  N   UNK A   0      -7.128   3.237 124.376  0.00  0.00    +0.000 N 
ATOM     31  C   UNK A   0      -7.890   3.098 123.143  0.00  0.00    +0.000 C 
ATOM     32  C   UNK A   0      -6.922   3.097 121.948  0.00  0.00    +0.000 C 
ATOM     33  N   UNK A   0      -6.082   4.318 121.939  0.00  0.00    +0.000 NA
ATOM     34  C   UNK A   0      -5.222   4.341 120.766  0.00  0.00    +0.000 C 
ATOM     35  C   UNK A   0      -5.283   4.336 123.192  0.00  0.00    +0.000 C 
ATOM     36  C   UNK A   0      -6.184   4.355 124.455  0.00  0.00    +0.000 C 
ENDBRANCH  28  30
ENDBRANCH  23  24
BRANCH  23  37
ATOM     37  C   UNK A   0      -8.775   4.570 129.356  0.00  0.00    +0.000 C 
ATOM     38  O   UNK A   0      -8.987   5.301 128.393  0.00  0.00    +0.000 OA
ATOM     39  N   UNK A   0      -9.495   4.905 130.487  0.00  0.00    +0.000 N 
ATOM     40  H   UNK A   0      -9.952   4.185 131.006  0.00  0.00    +0.000 HD
BRANCH  39  41
ATOM     41  C   UNK A   0     -10.260   6.121 130.647  0.00  0.00    +0.000 C 
ATOM     42  C   UNK A   0      -9.366   7.294 130.257  0.00  0.00    +0.000 C 
ATOM     43  C   UNK A   0     -11.541   5.945 129.831  0.00  0.00    +0.000 C 
ATOM     44  C   UNK A   0     -10.632   6.275 132.139  0.00  0.00    +0.000 C 
ENDBRANCH  39  41
ENDBRANCH  23  37
ENDBRANCH   8  23
TORSDOF 8
ENDMDL
MODEL 9
REMARK VINA RESULT:      -8.8      2.544      4.728
REMARK  Name = CHEMBL371983
REMARK  14 active torsions:
REMARK  status: ('A' for Active; 'I' for Inactive)
REMARK    1  A    between atoms: CD1_1  and  CG_2
REMARK    2  A    between atoms: CG_2  and  CD2_3
REMARK    3  A    between atoms: CG_2  and  CB_4
REMARK    4  A    between atoms: CB_4  and  CA_5
REMARK    5  A    between atoms: C_9  and  C_10
REMARK    6  A    between atoms: N_21  and  C_22
REMARK    7  A    between atoms: C_22  and  C_23
REMARK    8  A    between atoms: C_22  and  C_30
REMARK    9  A    between atoms: N_25  and  C_26
REMARK   10  A    between atoms: C_26  and  C_27
REMARK   11  A    between atoms: C_26  and  C_28
REMARK   12  A    between atoms: C_26  and  C_29
REMARK   13  A    between atoms: C_34  and  N_35
REMARK   14  A    between atoms: N_38  and  C_39
REMARK                            x       y       z     vdW  Elec       q    Type
REMARK                         _______ _______ _______ _____ _____    ______ ____
ROOT
ATOM      1  CA  LEU A   2      -5.049   1.869 130.761  0.00  0.00    +0.000 C 
ATOM      2  C   LEU A   2      -4.737   0.389 130.474  0.00  0.00    +0.000 C 
ATOM      3  O   LEU A   2      -3.747  -0.059 129.946  0.00  0.00    +0.000 OA
ATOM      4  N   UNK A   1      -5.686  -0.440 130.988  0.00  0.00    +0.000 N 
ATOM      5  C   UNK A   1      -6.827   0.049 131.735  0.00  0.00    +0.000 C 
ATOM      6  C   UNK A   1      -7.431   1.269 131.029  0.00  0.00    +0.000 C 
ATOM      7  O   UNK A   1      -8.637   1.429 131.104  0.00  0.00    +0.000 OA
ATOM      8  N   LEU A   2      -6.520   2.116 130.393  0.00  0.00    +0.000 N 
ATOM      9  H   UNK A   1      -5.489  -1.425 130.864  0.00  0.00    +0.000 HD
ENDROOT
BRANCH   5  10
ATOM     10  C   UNK A   1      -7.983  -0.974 131.789  0.00  0.00    +0.000 C 
ATOM     11  C   UNK A   1      -7.883  -1.924 132.983  0.00  0.00    +0.000 C 
ATOM     12  C   UNK A   1      -7.090  -3.046 132.389  0.00  0.00    +0.000 A 
ATOM     13  C   UNK A   1      -6.319  -3.973 133.059  0.00  0.00    +0.000 A 
ATOM     14  C   UNK A   1      -5.555  -4.861 132.300  0.00  0.00    +0.000 A 
ATOM     15  C   UNK A   1      -5.563  -4.804 130.896  0.00  0.00    +0.000 A 
ATOM     16  C   UNK A   1      -6.346  -3.864 130.226  0.00  0.00    +0.000 A 
ATOM     17  C   UNK A   1      -7.118  -3.006 130.987  0.00  0.00    +0.000 A 
ATOM     18  C   UNK A   1      -7.962  -1.867 130.511  0.00  0.00    +0.000 C 
ENDBRANCH   5  10
BRANCH   1  19
ATOM     19  CB  LEU A   2      -4.050   2.687 130.000  0.00  0.00    +0.000 C 
BRANCH  19  21
ATOM     20  CD1 LEU A   2      -3.770   5.161 129.693  0.00  0.00    +0.000 C 
ATOM     21  CG  LEU A   2      -3.358   3.927 130.522  0.00  0.00    +0.000 C 
ATOM     22  CD2 LEU A   2      -3.793   4.184 131.966  0.00  0.00    +0.000 C 
ENDBRANCH  19  21
ENDBRANCH   1  19
BRANCH   8  23
ATOM     23  C   UNK A   0      -7.016   3.187 129.388  0.00  0.00    +0.000 C 
BRANCH  23  24
ATOM     24  C   UNK A   0      -7.717   4.428 130.015  0.00  0.00    +0.000 A 
ATOM     25  C   UNK A   0      -7.134   5.210 131.016  0.00  0.00    +0.000 A 
ATOM     26  C   UNK A   0      -7.762   6.293 131.598  0.00  0.00    +0.000 A 
ATOM     27  C   UNK A   0      -8.925   6.776 131.039  0.00  0.00    +0.000 A 
ATOM     28  C   UNK A   0      -9.540   6.081 130.002  0.00  0.00    +0.000 A 
ATOM     29  C   UNK A   0      -8.981   4.859 129.572  0.00  0.00    +0.000 A 
BRANCH  28  30
ATOM     30  N   UNK A   0     -10.654   6.566 129.360  0.00  0.00    +0.000 N 
ATOM     31  C   UNK A   0     -10.478   7.252 128.087  0.00  0.00    +0.000 C 
ATOM     32  C   UNK A   0     -11.459   8.433 128.011  0.00  0.00    +0.000 C 
ATOM     33  N   UNK A   0     -12.857   7.981 128.202  0.00  0.00    +0.000 NA
ATOM     34  C   UNK A   0     -13.781   9.095 128.055  0.00  0.00    +0.000 C 
ATOM     35  C   UNK A   0     -12.962   7.370 129.552  0.00  0.00    +0.000 C 
ATOM     36  C   UNK A   0     -12.014   6.153 129.713  0.00  0.00    +0.000 C 
ENDBRANCH  28  30
ENDBRANCH  23  24
BRANCH  23  37
ATOM     37  C   UNK A   0      -7.832   2.642 128.063  0.00  0.00    +0.000 C 
ATOM     38  O   UNK A   0      -9.006   2.286 128.088  0.00  0.00    +0.000 OA
ATOM     39  N   UNK A   0      -7.265   2.628 126.802  0.00  0.00    +0.000 N 
ATOM     40  H   UNK A   0      -6.717   3.407 126.505  0.00  0.00    +0.000 HD
BRANCH  39  41
ATOM     41  C   UNK A   0      -7.877   2.042 125.631  0.00  0.00    +0.000 C 
ATOM     42  C   UNK A   0      -8.712   0.848 126.083  0.00  0.00    +0.000 C 
ATOM     43  C   UNK A   0      -8.631   3.166 124.919  0.00  0.00    +0.000 C 
ATOM     44  C   UNK A   0      -6.758   1.521 124.701  0.00  0.00    +0.000 C 
ENDBRANCH  39  41
ENDBRANCH  23  37
ENDBRANCH   8  23
TORSDOF 8
ENDMDL
