MODEL 1
REMARK VINA RESULT:     -10.1      0.000      0.000
REMARK  Name = CHEMBL2172292
REMARK  35 active torsions:
REMARK  status: ('A' for Active; 'I' for Inactive)
REMARK    1  A    between atoms: C_1  and  C_2
REMARK    2  A    between atoms: C_2  and  N_3
REMARK    3  A    between atoms: N_3  and  C_4
REMARK    4  A    between atoms: N_3  and  C_6
REMARK    5  A    between atoms: C_4  and  C_5
REMARK    6  A    between atoms: C_10  and  C_11
REMARK    7  A    between atoms: C_14  and  S_15
REMARK    8  A    between atoms: C_20  and  S_21
REMARK    9  A    between atoms: S_21  and  N_24
REMARK   10  A    between atoms: N_24  and  C_25
REMARK   11  A    between atoms: C_25  and  C_26
REMARK   12  A    between atoms: C_26  and  O_27
REMARK   13  A    between atoms: O_27  and  C_28
REMARK   14  A    between atoms: C_28  and  C_29
REMARK   15  A    between atoms: C_29  and  O_30
REMARK   16  A    between atoms: O_30  and  C_31
REMARK   17  A    between atoms: C_31  and  C_32
REMARK   18  A    between atoms: C_32  and  O_33
REMARK   19  A    between atoms: O_33  and  C_34
REMARK   20  A    between atoms: C_34  and  C_35
REMARK   21  A    between atoms: C_35  and  N_36
REMARK   22  A    between atoms: C_38  and  C_39
REMARK   23  A    between atoms: C_39  and  N_40
REMARK   24  A    between atoms: C_41  and  C_43
REMARK   25  A    between atoms: C_43  and  C_44
REMARK   26  A    between atoms: C_44  and  C_45
REMARK   27  A    between atoms: N_47  and  C_48
REMARK   28  A    between atoms: C_53  and  C_55
REMARK   29  A    between atoms: C_58  and  N_59
REMARK   30  A    between atoms: C_60  and  C_62
REMARK   31  A    between atoms: C_67  and  C_68
REMARK   32  A    between atoms: N_83  and  C_84
REMARK   33  A    between atoms: N_83  and  C_86
REMARK   34  A    between atoms: C_84  and  C_85
REMARK   35  A    between atoms: C_86  and  C_87
REMARK                            x       y       z     vdW  Elec       q    Type
REMARK                         _______ _______ _______ _____ _____    ______ ____
ROOT
ATOM      1  O   UNL     1      -3.766   3.361 127.400  0.00  0.00    +0.000 OA
ENDROOT
BRANCH   1   2
ATOM      2  C   UNL     1      -2.567   4.124 127.268  0.00  0.00    +0.000 C 
BRANCH   2   3
ATOM      3  C   UNL     1      -2.492   5.146 128.379  0.00  0.00    +0.000 C 
BRANCH   3   4
ATOM      4  O   UNL     1      -3.383   6.223 128.096  0.00  0.00    +0.000 OA
BRANCH   4   5
ATOM      5  C   UNL     1      -4.087   6.574 129.282  0.00  0.00    +0.000 C 
BRANCH   5   6
ATOM      6  C   UNL     1      -4.974   5.424 129.691  0.00  0.00    +0.000 C 
BRANCH   6   7
ATOM      7  O   UNL     1      -4.735   5.118 131.060  0.00  0.00    +0.000 OA
BRANCH   7   8
ATOM      8  C   UNL     1      -4.972   3.740 131.308  0.00  0.00    +0.000 C 
BRANCH   8   9
ATOM      9  C   UNL     1      -5.889   3.593 132.515  0.00  0.00    +0.000 C 
BRANCH   9  10
ATOM     10  N   UNL     1      -6.348   4.868 133.043  0.00  0.00    +0.000 NA
ATOM     11  H   UNL     1      -6.047   5.662 132.474  0.00  0.00    +0.000 HD
BRANCH  10  12
ATOM     12  S   UNL     1      -6.132   5.106 134.731  0.00  0.00    +0.000 S 
ATOM     13  O   UNL     1      -6.104   3.764 135.254  0.00  0.00    +0.000 OA
ATOM     14  O   UNL     1      -7.144   6.067 135.128  0.00  0.00    +0.000 OA
BRANCH  12  20
ATOM     15  C   UNL     1      -4.040   6.225 136.286  0.00  0.00    +0.000 A 
ATOM     16  C   UNL     1      -2.778   6.846 136.407  0.00  0.00    +0.000 A 
ATOM     17  C   UNL     1      -2.101   7.318 135.281  0.00  0.00    +0.000 A 
ATOM     18  C   UNL     1      -2.542   6.931 134.021  0.00  0.00    +0.000 A 
ATOM     19  C   UNL     1      -3.673   6.101 133.914  0.00  0.00    +0.000 A 
ATOM     20  C   UNL     1      -4.516   5.874 135.020  0.00  0.00    +0.000 A 
BRANCH  15  25
ATOM     21  C   UNL     1      -7.432   9.032 139.041  0.00  0.00    +0.000 A 
ATOM     22  C   UNL     1      -6.635   9.237 137.911  0.00  0.00    +0.000 A 
ATOM     23  C   UNL     1      -5.817   8.252 137.402  0.00  0.00    +0.000 A 
ATOM     24  C   UNL     1      -5.748   7.031 138.036  0.00  0.00    +0.000 A 
ATOM     25  C   UNL     1      -4.805   6.040 137.526  0.00  0.00    +0.000 A 
ATOM     26  C   UNL     1      -4.743   4.878 138.188  0.00  0.00    +0.000 A 
ATOM     27  C   UNL     1      -3.951   3.766 137.699  0.00  0.00    +0.000 A 
ATOM     28  C   UNL     1      -3.998   2.542 138.208  0.00  0.00    +0.000 A 
ATOM     29  C   UNL     1      -4.830   2.275 139.381  0.00  0.00    +0.000 A 
ATOM     30  N   UNL     1      -4.843   1.105 139.939  0.00  0.00    +0.000 N 
ATOM     31  C   UNL     1      -5.601   3.453 139.821  0.00  0.00    +0.000 A 
ATOM     32  C   UNL     1      -5.624   4.646 139.280  0.00  0.00    +0.000 A 
ATOM     33  O   UNL     1      -6.538   5.570 139.758  0.00  0.00    +0.000 OA
ATOM     34  C   UNL     1      -6.552   6.781 139.142  0.00  0.00    +0.000 A 
ATOM     35  C   UNL     1      -7.378   7.774 139.650  0.00  0.00    +0.000 A 
BRANCH  30  36
ATOM     36  C   UNL     1      -5.662   0.739 141.153  0.00  0.00    +0.000 C 
ATOM     37  C   UNL     1      -7.078   0.418 140.846  0.00  0.00    +0.000 C 
ENDBRANCH  30  36
BRANCH  30  38
ATOM     38  C   UNL     1      -3.946   0.022 139.370  0.00  0.00    +0.000 C 
ATOM     39  C   UNL     1      -2.769  -0.243 140.264  0.00  0.00    +0.000 C 
ENDBRANCH  30  38
BRANCH  21  40
ATOM     40  N   UNL     1      -8.258  10.051 139.529  0.00  0.00    +0.000 N 
BRANCH  40  42
ATOM     41  C   UNL     1      -7.403  12.422 139.730  0.00  0.00    +0.000 C 
ATOM     42  C   UNL     1      -7.622  11.083 140.374  0.00  0.00    +0.000 C 
ENDBRANCH  40  42
BRANCH  40  43
ATOM     43  C   UNL     1      -9.690   9.990 139.190  0.00  0.00    +0.000 C 
ATOM     44  C   UNL     1     -10.041   9.244 137.932  0.00  0.00    +0.000 C 
ENDBRANCH  40  43
ENDBRANCH  21  40
ENDBRANCH  15  25
BRANCH  18  45
ATOM     45  S   UNL     1      -1.652   7.557 132.509  0.00  0.00    +0.000 S 
ATOM     46  O   UNL     1      -1.318   6.321 131.807  0.00  0.00    +0.000 OA
ATOM     47  O   UNL     1      -2.664   8.388 131.866  0.00  0.00    +0.000 OA
ATOM     48  O   UNL     1      -0.516   8.280 133.074  0.00  0.00    +0.000 OA
ENDBRANCH  18  45
ENDBRANCH  12  20
ENDBRANCH  10  12
ENDBRANCH   9  10
ENDBRANCH   8   9
ENDBRANCH   7   8
ENDBRANCH   6   7
ENDBRANCH   5   6
ENDBRANCH   4   5
ENDBRANCH   3   4
ENDBRANCH   2   3
ENDBRANCH   1   2
BRANCH   1  49
ATOM     49  C   UNL     1      -4.404   3.266 126.127  0.00  0.00    +0.000 C 
BRANCH  49  50
ATOM     50  C   UNL     1      -5.269   4.482 125.892  0.00  0.00    +0.000 C 
BRANCH  50  51
ATOM     51  N   UNL     1      -6.598   4.128 125.445  0.00  0.00    +0.000 N 
ATOM     52  C   UNL     1      -6.920   3.197 124.513  0.00  0.00    +0.000 A 
ATOM     53  C   UNL     1      -8.291   3.224 124.423  0.00  0.00    +0.000 A 
ATOM     54  N   UNL     1      -8.754   4.187 125.295  0.00  0.00    +0.000 NA
ATOM     55  N   UNL     1      -7.706   4.731 125.915  0.00  0.00    +0.000 NA
BRANCH  53  56
ATOM     56  C   UNL     1      -9.176   2.384 123.551  0.00  0.00    +0.000 C 
BRANCH  56  57
ATOM     57  N   UNL     1      -8.733   0.958 123.514  0.00  0.00    +0.000 N 
ATOM     58  C   UNL     1      -9.534  -0.062 122.987  0.00  0.00    +0.000 C 
ATOM     59  O   UNL     1     -10.644   0.211 122.533  0.00  0.00    +0.000 OA
ATOM     60  H   UNL     1      -7.819   0.757 123.891  0.00  0.00    +0.000 HD
BRANCH  58  61
ATOM     61  C   UNL     1      -8.997  -1.574 122.981  0.00  0.00    +0.000 C 
BRANCH  61  62
ATOM     62  C   UNL     1      -9.131  -2.485 124.532  0.00  0.00    +0.000 C 
BRANCH  62  63
ATOM     63  C   UNL     1      -8.272  -1.844 126.161  0.00  0.00    +0.000 C 
ATOM     64  O   UNL     1      -7.663  -0.841 125.703  0.00  0.00    +0.000 OA
ATOM     65  N   UNL     1      -8.386  -2.362 127.918  0.00  0.00    +0.000 N 
ATOM     66  H   UNL     1      -8.646  -3.270 127.461  0.00  0.00    +0.000 HD
BRANCH  65  67
ATOM     67  C   UNL     1      -7.929  -2.414 129.907  0.00  0.00    +0.000 C 
ATOM     68  C   UNL     1      -6.914  -3.151 129.281  0.00  0.00    +0.000 C 
ATOM     69  C   UNL     1      -6.824  -1.914 130.236  0.00  0.00    +0.000 C 
ATOM     70  C   UNL     1      -5.891  -2.717 130.887  0.00  0.00    +0.000 C 
ATOM     71  N   UNL     1      -5.782  -1.414 131.910  0.00  0.00    +0.000 N 
ATOM     72  C   UNL     1      -6.809  -0.302 132.454  0.00  0.00    +0.000 C 
ATOM     73  O   UNL     1      -6.802   0.134 133.617  0.00  0.00    +0.000 OA
ATOM     74  C   UNL     1      -6.002  -2.447 132.669  0.00  0.00    +0.000 A 
ATOM     75  C   UNL     1      -4.504  -3.239 133.025  0.00  0.00    +0.000 A 
ATOM     76  C   UNL     1      -4.145  -4.063 134.030  0.00  0.00    +0.000 A 
ATOM     77  C   UNL     1      -5.215  -3.831 134.760  0.00  0.00    +0.000 A 
ATOM     78  C   UNL     1      -6.698  -3.229 133.790  0.00  0.00    +0.000 A 
ATOM     79  C   UNL     1      -7.525  -2.741 132.177  0.00  0.00    +0.000 A 
BRANCH  72  80
ATOM     80  C   UNL     1      -7.782   0.392 131.474  0.00  0.00    +0.000 A 
ATOM     81  C   UNL     1      -7.556   1.122 130.237  0.00  0.00    +0.000 A 
ATOM     82  C   UNL     1      -8.215   2.358 130.004  0.00  0.00    +0.000 A 
ATOM     83  C   UNL     1      -9.387   2.576 130.661  0.00  0.00    +0.000 A 
ATOM     84  C   UNL     1      -9.813   1.532 131.481  0.00  0.00    +0.000 A 
ATOM     85  C   UNL     1      -8.997   0.555 132.025  0.00  0.00    +0.000 A 
BRANCH  83  86
ATOM     86  N   UNL     1     -10.155   3.727 130.400  0.00  0.00    +0.000 N 
ATOM     87  C   UNL     1      -9.955   4.902 131.103  0.00  0.00    +0.000 C 
ATOM     88  O   UNL     1      -9.086   5.071 131.951  0.00  0.00    +0.000 OA
ATOM     89  H   UNL     1     -10.867   3.685 129.657  0.00  0.00    +0.000 HD
BRANCH  87  90
ATOM     90  C   UNL     1     -10.824   6.062 130.812  0.00  0.00    +0.000 A 
ATOM     91  C   UNL     1     -11.807   6.476 131.709  0.00  0.00    +0.000 A 
ATOM     92  C   UNL     1     -12.817   7.337 131.282  0.00  0.00    +0.000 A 
ATOM     93  C   UNL     1     -12.699   7.988 130.067  0.00  0.00    +0.000 A 
ATOM     94  C   UNL     1     -11.552   7.800 129.305  0.00  0.00    +0.000 A 
ATOM     95  C   UNL     1     -10.660   6.763 129.609  0.00  0.00    +0.000 A 
ATOM     96  C   UNL     1      -9.593   6.376 128.627  0.00  0.00    +0.000 C 
ENDBRANCH  87  90
ENDBRANCH  83  86
ENDBRANCH  72  80
ENDBRANCH  65  67
ENDBRANCH  62  63
ENDBRANCH  61  62
ENDBRANCH  58  61
ENDBRANCH  56  57
ENDBRANCH  53  56
ENDBRANCH  50  51
ENDBRANCH  49  50
ENDBRANCH   1  49
TORSDOF 30
ENDMDL
MODEL 2
REMARK VINA RESULT:      -9.6      1.918      5.359
REMARK  Name = CHEMBL2172292
REMARK  35 active torsions:
REMARK  status: ('A' for Active; 'I' for Inactive)
REMARK    1  A    between atoms: C_1  and  C_2
REMARK    2  A    between atoms: C_2  and  N_3
REMARK    3  A    between atoms: N_3  and  C_4
REMARK    4  A    between atoms: N_3  and  C_6
REMARK    5  A    between atoms: C_4  and  C_5
REMARK    6  A    between atoms: C_10  and  C_11
REMARK    7  A    between atoms: C_14  and  S_15
REMARK    8  A    between atoms: C_20  and  S_21
REMARK    9  A    between atoms: S_21  and  N_24
REMARK   10  A    between atoms: N_24  and  C_25
REMARK   11  A    between atoms: C_25  and  C_26
REMARK   12  A    between atoms: C_26  and  O_27
REMARK   13  A    between atoms: O_27  and  C_28
REMARK   14  A    between atoms: C_28  and  C_29
REMARK   15  A    between atoms: C_29  and  O_30
REMARK   16  A    between atoms: O_30  and  C_31
REMARK   17  A    between atoms: C_31  and  C_32
REMARK   18  A    between atoms: C_32  and  O_33
REMARK   19  A    between atoms: O_33  and  C_34
REMARK   20  A    between atoms: C_34  and  C_35
REMARK   21  A    between atoms: C_35  and  N_36
REMARK   22  A    between atoms: C_38  and  C_39
REMARK   23  A    between atoms: C_39  and  N_40
REMARK   24  A    between atoms: C_41  and  C_43
REMARK   25  A    between atoms: C_43  and  C_44
REMARK   26  A    between atoms: C_44  and  C_45
REMARK   27  A    between atoms: N_47  and  C_48
REMARK   28  A    between atoms: C_53  and  C_55
REMARK   29  A    between atoms: C_58  and  N_59
REMARK   30  A    between atoms: C_60  and  C_62
REMARK   31  A    between atoms: C_67  and  C_68
REMARK   32  A    between atoms: N_83  and  C_84
REMARK   33  A    between atoms: N_83  and  C_86
REMARK   34  A    between atoms: C_84  and  C_85
REMARK   35  A    between atoms: C_86  and  C_87
REMARK                            x       y       z     vdW  Elec       q    Type
REMARK                         _______ _______ _______ _____ _____    ______ ____
ROOT
ATOM      1  O   UNL     1      -5.290   5.113 126.637  0.00  0.00    +0.000 OA
ENDROOT
BRANCH   1   2
ATOM      2  C   UNL     1      -4.003   4.617 127.001  0.00  0.00    +0.000 C 
BRANCH   2   3
ATOM      3  C   UNL     1      -3.247   5.681 127.764  0.00  0.00    +0.000 C 
BRANCH   3   4
ATOM      4  O   UNL     1      -4.069   6.837 127.910  0.00  0.00    +0.000 OA
BRANCH   4   5
ATOM      5  C   UNL     1      -3.791   7.456 129.161  0.00  0.00    +0.000 C 
BRANCH   5   6
ATOM      6  C   UNL     1      -3.008   6.499 130.026  0.00  0.00    +0.000 C 
BRANCH   6   7
ATOM      7  O   UNL     1      -3.891   5.883 130.955  0.00  0.00    +0.000 OA
BRANCH   7   8
ATOM      8  C   UNL     1      -4.975   6.749 131.257  0.00  0.00    +0.000 C 
BRANCH   8   9
ATOM      9  C   UNL     1      -5.883   6.085 132.284  0.00  0.00    +0.000 C 
BRANCH   9  10
ATOM     10  N   UNL     1      -5.234   5.000 133.003  0.00  0.00    +0.000 NA
ATOM     11  H   UNL     1      -5.486   4.078 132.638  0.00  0.00    +0.000 HD
BRANCH  10  12
ATOM     12  S   UNL     1      -5.278   5.100 134.718  0.00  0.00    +0.000 S 
ATOM     13  O   UNL     1      -5.314   3.720 135.129  0.00  0.00    +0.000 OA
ATOM     14  O   UNL     1      -6.348   6.027 135.034  0.00  0.00    +0.000 OA
BRANCH  12  20
ATOM     15  C   UNL     1      -3.490   6.166 136.645  0.00  0.00    +0.000 A 
ATOM     16  C   UNL     1      -2.263   6.766 137.003  0.00  0.00    +0.000 A 
ATOM     17  C   UNL     1      -1.387   7.243 136.026  0.00  0.00    +0.000 A 
ATOM     18  C   UNL     1      -1.596   6.880 134.701  0.00  0.00    +0.000 A 
ATOM     19  C   UNL     1      -2.699   6.069 134.377  0.00  0.00    +0.000 A 
ATOM     20  C   UNL     1      -3.732   5.839 135.308  0.00  0.00    +0.000 A 
BRANCH  15  25
ATOM     21  C   UNL     1      -7.367   8.940 138.707  0.00  0.00    +0.000 A 
ATOM     22  C   UNL     1      -6.376   9.151 137.743  0.00  0.00    +0.000 A 
ATOM     23  C   UNL     1      -5.467   8.175 137.400  0.00  0.00    +0.000 A 
ATOM     24  C   UNL     1      -5.502   6.956 138.042  0.00  0.00    +0.000 A 
ATOM     25  C   UNL     1      -4.469   5.976 137.722  0.00  0.00    +0.000 A 
ATOM     26  C   UNL     1      -4.519   4.816 138.391  0.00  0.00    +0.000 A 
ATOM     27  C   UNL     1      -3.637   3.712 138.063  0.00  0.00    +0.000 A 
ATOM     28  C   UNL     1      -3.763   2.490 138.561  0.00  0.00    +0.000 A 
ATOM     29  C   UNL     1      -4.796   2.216 139.560  0.00  0.00    +0.000 A 
ATOM     30  N   UNL     1      -4.898   1.048 140.112  0.00  0.00    +0.000 N 
ATOM     31  C   UNL     1      -5.649   3.386 139.843  0.00  0.00    +0.000 A 
ATOM     32  C   UNL     1      -5.584   4.577 139.301  0.00  0.00    +0.000 A 
ATOM     33  O   UNL     1      -6.581   5.492 139.596  0.00  0.00    +0.000 OA
ATOM     34  C   UNL     1      -6.495   6.700 138.981  0.00  0.00    +0.000 A 
ATOM     35  C   UNL     1      -7.413   7.684 139.322  0.00  0.00    +0.000 A 
BRANCH  30  36
ATOM     36  C   UNL     1      -5.924   0.675 141.155  0.00  0.00    +0.000 C 
ATOM     37  C   UNL     1      -5.340   0.343 142.479  0.00  0.00    +0.000 C 
ENDBRANCH  30  36
BRANCH  30  38
ATOM     38  C   UNL     1      -3.899  -0.026 139.726  0.00  0.00    +0.000 C 
ATOM     39  C   UNL     1      -4.578  -1.208 139.097  0.00  0.00    +0.000 C 
ENDBRANCH  30  38
BRANCH  21  40
ATOM     40  N   UNL     1      -8.281   9.950 139.027  0.00  0.00    +0.000 N 
BRANCH  40  42
ATOM     41  C   UNL     1      -8.573  12.129 140.276  0.00  0.00    +0.000 C 
ATOM     42  C   UNL     1      -7.723  11.271 139.382  0.00  0.00    +0.000 C 
ENDBRANCH  40  42
BRANCH  40  43
ATOM     43  C   UNL     1      -9.713   9.603 139.019  0.00  0.00    +0.000 C 
ATOM     44  C   UNL     1     -10.276   9.153 137.699  0.00  0.00    +0.000 C 
ENDBRANCH  40  43
ENDBRANCH  21  40
ENDBRANCH  15  25
BRANCH  18  45
ATOM     45  S   UNL     1      -0.439   7.514 133.387  0.00  0.00    +0.000 S 
ATOM     46  O   UNL     1      -1.056   8.782 133.009  0.00  0.00    +0.000 OA
ATOM     47  O   UNL     1       0.827   7.625 134.104  0.00  0.00    +0.000 OA
ATOM     48  O   UNL     1      -0.492   6.467 132.371  0.00  0.00    +0.000 OA
ENDBRANCH  18  45
ENDBRANCH  12  20
ENDBRANCH  10  12
ENDBRANCH   9  10
ENDBRANCH   8   9
ENDBRANCH   7   8
ENDBRANCH   6   7
ENDBRANCH   5   6
ENDBRANCH   4   5
ENDBRANCH   3   4
ENDBRANCH   2   3
ENDBRANCH   1   2
BRANCH   1  49
ATOM     49  C   UNL     1      -5.953   4.146 125.823  0.00  0.00    +0.000 C 
BRANCH  49  50
ATOM     50  C   UNL     1      -7.033   3.452 126.619  0.00  0.00    +0.000 C 
BRANCH  50  51
ATOM     51  N   UNL     1      -7.932   4.391 127.252  0.00  0.00    +0.000 N 
ATOM     52  C   UNL     1      -8.173   4.516 128.580  0.00  0.00    +0.000 A 
ATOM     53  C   UNL     1      -9.097   5.526 128.694  0.00  0.00    +0.000 A 
ATOM     54  N   UNL     1      -9.398   5.971 127.424  0.00  0.00    +0.000 NA
ATOM     55  N   UNL     1      -8.676   5.267 126.551  0.00  0.00    +0.000 NA
BRANCH  53  56
ATOM     56  C   UNL     1      -9.705   6.086 129.946  0.00  0.00    +0.000 C 
BRANCH  56  57
ATOM     57  N   UNL     1      -9.225   5.372 131.167  0.00  0.00    +0.000 N 
ATOM     58  C   UNL     1      -9.760   5.620 132.437  0.00  0.00    +0.000 C 
ATOM     59  O   UNL     1     -10.657   6.450 132.567  0.00  0.00    +0.000 OA
ATOM     60  H   UNL     1      -8.490   4.694 131.037  0.00  0.00    +0.000 HD
BRANCH  58  61
ATOM     61  C   UNL     1      -9.196   4.818 133.708  0.00  0.00    +0.000 C 
BRANCH  61  62
ATOM     62  C   UNL     1      -8.995   3.037 133.516  0.00  0.00    +0.000 C 
BRANCH  62  63
ATOM     63  C   UNL     1      -7.326   2.268 132.865  0.00  0.00    +0.000 C 
ATOM     64  O   UNL     1      -7.244   2.847 131.748  0.00  0.00    +0.000 OA
ATOM     65  N   UNL     1      -6.077   1.164 133.632  0.00  0.00    +0.000 N 
ATOM     66  H   UNL     1      -6.916   0.881 134.195  0.00  0.00    +0.000 HD
BRANCH  65  67
ATOM     67  C   UNL     1      -4.427  -0.032 133.747  0.00  0.00    +0.000 C 
ATOM     68  C   UNL     1      -4.780   0.230 135.078  0.00  0.00    +0.000 C 
ATOM     69  C   UNL     1      -4.579  -1.133 134.335  0.00  0.00    +0.000 C 
ATOM     70  C   UNL     1      -3.792  -1.413 135.449  0.00  0.00    +0.000 C 
ATOM     71  N   UNL     1      -3.569  -2.865 134.675  0.00  0.00    +0.000 N 
ATOM     72  C   UNL     1      -3.466  -3.336 133.140  0.00  0.00    +0.000 C 
ATOM     73  O   UNL     1      -2.684  -4.212 132.738  0.00  0.00    +0.000 OA
ATOM     74  C   UNL     1      -2.379  -2.420 134.950  0.00  0.00    +0.000 A 
ATOM     75  C   UNL     1      -1.947  -2.867 136.566  0.00  0.00    +0.000 A 
ATOM     76  C   UNL     1      -0.747  -2.999 137.167  0.00  0.00    +0.000 A 
ATOM     77  C   UNL     1      -0.050  -2.939 136.053  0.00  0.00    +0.000 A 
ATOM     78  C   UNL     1      -0.918  -2.067 134.643  0.00  0.00    +0.000 A 
ATOM     79  C   UNL     1      -2.394  -1.152 133.928  0.00  0.00    +0.000 A 
BRANCH  72  80
ATOM     80  C   UNL     1      -4.475  -2.796 132.102  0.00  0.00    +0.000 A 
ATOM     81  C   UNL     1      -5.901  -3.025 131.922  0.00  0.00    +0.000 A 
ATOM     82  C   UNL     1      -6.426  -3.294 130.632  0.00  0.00    +0.000 A 
ATOM     83  C   UNL     1      -5.722  -2.839 129.561  0.00  0.00    +0.000 A 
ATOM     84  C   UNL     1      -4.559  -2.133 129.869  0.00  0.00    +0.000 A 
ATOM     85  C   UNL     1      -3.846  -2.241 131.051  0.00  0.00    +0.000 A 
BRANCH  83  86
ATOM     86  N   UNL     1      -6.232  -2.968 128.255  0.00  0.00    +0.000 N 
ATOM     87  C   UNL     1      -7.162  -2.075 127.753  0.00  0.00    +0.000 C 
ATOM     88  O   UNL     1      -7.579  -1.089 128.350  0.00  0.00    +0.000 OA
ATOM     89  H   UNL     1      -5.884  -3.737 127.665  0.00  0.00    +0.000 HD
BRANCH  87  90
ATOM     90  C   UNL     1      -7.691  -2.290 126.389  0.00  0.00    +0.000 A 
ATOM     91  C   UNL     1      -8.973  -2.795 126.179  0.00  0.00    +0.000 A 
ATOM     92  C   UNL     1      -9.323  -3.299 124.927  0.00  0.00    +0.000 A 
ATOM     93  C   UNL     1      -8.509  -3.057 123.836  0.00  0.00    +0.000 A 
ATOM     94  C   UNL     1      -7.369  -2.279 123.998  0.00  0.00    +0.000 A 
ATOM     95  C   UNL     1      -6.890  -1.982 125.282  0.00  0.00    +0.000 A 
ATOM     96  C   UNL     1      -5.516  -1.405 125.457  0.00  0.00    +0.000 C 
ENDBRANCH  87  90
ENDBRANCH  83  86
ENDBRANCH  72  80
ENDBRANCH  65  67
ENDBRANCH  62  63
ENDBRANCH  61  62
ENDBRANCH  58  61
ENDBRANCH  56  57
ENDBRANCH  53  56
ENDBRANCH  50  51
ENDBRANCH  49  50
ENDBRANCH   1  49
TORSDOF 30
ENDMDL
MODEL 3
REMARK VINA RESULT:      -9.6      3.062      6.258
REMARK  Name = CHEMBL2172292
REMARK  35 active torsions:
REMARK  status: ('A' for Active; 'I' for Inactive)
REMARK    1  A    between atoms: C_1  and  C_2
REMARK    2  A    between atoms: C_2  and  N_3
REMARK    3  A    between atoms: N_3  and  C_4
REMARK    4  A    between atoms: N_3  and  C_6
REMARK    5  A    between atoms: C_4  and  C_5
REMARK    6  A    between atoms: C_10  and  C_11
REMARK    7  A    between atoms: C_14  and  S_15
REMARK    8  A    between atoms: C_20  and  S_21
REMARK    9  A    between atoms: S_21  and  N_24
REMARK   10  A    between atoms: N_24  and  C_25
REMARK   11  A    between atoms: C_25  and  C_26
REMARK   12  A    between atoms: C_26  and  O_27
REMARK   13  A    between atoms: O_27  and  C_28
REMARK   14  A    between atoms: C_28  and  C_29
REMARK   15  A    between atoms: C_29  and  O_30
REMARK   16  A    between atoms: O_30  and  C_31
REMARK   17  A    between atoms: C_31  and  C_32
REMARK   18  A    between atoms: C_32  and  O_33
REMARK   19  A    between atoms: O_33  and  C_34
REMARK   20  A    between atoms: C_34  and  C_35
REMARK   21  A    between atoms: C_35  and  N_36
REMARK   22  A    between atoms: C_38  and  C_39
REMARK   23  A    between atoms: C_39  and  N_40
REMARK   24  A    between atoms: C_41  and  C_43
REMARK   25  A    between atoms: C_43  and  C_44
REMARK   26  A    between atoms: C_44  and  C_45
REMARK   27  A    between atoms: N_47  and  C_48
REMARK   28  A    between atoms: C_53  and  C_55
REMARK   29  A    between atoms: C_58  and  N_59
REMARK   30  A    between atoms: C_60  and  C_62
REMARK   31  A    between atoms: C_67  and  C_68
REMARK   32  A    between atoms: N_83  and  C_84
REMARK   33  A    between atoms: N_83  and  C_86
REMARK   34  A    between atoms: C_84  and  C_85
REMARK   35  A    between atoms: C_86  and  C_87
REMARK                            x       y       z     vdW  Elec       q    Type
REMARK                         _______ _______ _______ _____ _____    ______ ____
ROOT
ATOM      1  O   UNL     1      -3.384   3.017 128.773  0.00  0.00    +0.000 OA
ENDROOT
BRANCH   1   2
ATOM      2  C   UNL     1      -3.923   4.123 129.496  0.00  0.00    +0.000 C 
BRANCH   2   3
ATOM      3  C   UNL     1      -3.226   5.395 129.069  0.00  0.00    +0.000 C 
BRANCH   3   4
ATOM      4  O   UNL     1      -4.200   6.391 128.761  0.00  0.00    +0.000 OA
BRANCH   4   5
ATOM      5  C   UNL     1      -3.836   7.614 129.391  0.00  0.00    +0.000 C 
BRANCH   5   6
ATOM      6  C   UNL     1      -4.561   7.730 130.709  0.00  0.00    +0.000 C 
BRANCH   6   7
ATOM      7  O   UNL     1      -5.878   7.214 130.562  0.00  0.00    +0.000 OA
BRANCH   7   8
ATOM      8  C   UNL     1      -6.251   6.470 131.712  0.00  0.00    +0.000 C 
BRANCH   8   9
ATOM      9  C   UNL     1      -4.998   6.004 132.442  0.00  0.00    +0.000 C 
BRANCH   9  10
ATOM     10  N   UNL     1      -5.146   6.007 133.889  0.00  0.00    +0.000 NA
ATOM     11  H   UNL     1      -6.016   6.449 134.196  0.00  0.00    +0.000 HD
BRANCH  10  12
ATOM     12  S   UNL     1      -3.766   6.499 134.786  0.00  0.00    +0.000 S 
ATOM     13  O   UNL     1      -3.085   7.391 133.884  0.00  0.00    +0.000 OA
ATOM     14  O   UNL     1      -3.153   5.277 135.272  0.00  0.00    +0.000 OA
BRANCH  12  20
ATOM     15  C   UNL     1      -3.476   8.313 136.948  0.00  0.00    +0.000 A 
ATOM     16  C   UNL     1      -3.982   8.985 138.083  0.00  0.00    +0.000 A 
ATOM     17  C   UNL     1      -5.214   8.629 138.635  0.00  0.00    +0.000 A 
ATOM     18  C   UNL     1      -6.064   7.805 137.908  0.00  0.00    +0.000 A 
ATOM     19  C   UNL     1      -5.648   7.328 136.651  0.00  0.00    +0.000 A 
ATOM     20  C   UNL     1      -4.307   7.445 136.235  0.00  0.00    +0.000 A 
BRANCH  15  25
ATOM     21  C   UNL     1       1.038   6.025 138.116  0.00  0.00    +0.000 A 
ATOM     22  C   UNL     1      -0.300   5.869 138.492  0.00  0.00    +0.000 A 
ATOM     23  C   UNL     1      -1.304   6.659 137.975  0.00  0.00    +0.000 A 
ATOM     24  C   UNL     1      -0.989   7.661 137.083  0.00  0.00    +0.000 A 
ATOM     25  C   UNL     1      -2.062   8.539 136.625  0.00  0.00    +0.000 A 
ATOM     26  C   UNL     1      -1.711   9.521 135.784  0.00  0.00    +0.000 A 
ATOM     27  C   UNL     1      -2.703  10.368 135.150  0.00  0.00    +0.000 A 
ATOM     28  C   UNL     1      -2.431  11.227 134.177  0.00  0.00    +0.000 A 
ATOM     29  C   UNL     1      -1.048  11.413 133.738  0.00  0.00    +0.000 A 
ATOM     30  N   UNL     1      -0.746  12.293 132.836  0.00  0.00    +0.000 N 
ATOM     31  C   UNL     1      -0.099  10.521 134.430  0.00  0.00    +0.000 A 
ATOM     32  C   UNL     1      -0.365   9.614 135.338  0.00  0.00    +0.000 A 
ATOM     33  O   UNL     1       0.656   8.773 135.749  0.00  0.00    +0.000 OA
ATOM     34  C   UNL     1       0.325   7.823 136.662  0.00  0.00    +0.000 A 
ATOM     35  C   UNL     1       1.334   7.022 137.181  0.00  0.00    +0.000 A 
BRANCH  30  36
ATOM     36  C   UNL     1       0.650  12.561 132.327  0.00  0.00    +0.000 C 
ATOM     37  C   UNL     1       0.700  12.965 130.900  0.00  0.00    +0.000 C 
ENDBRANCH  30  36
BRANCH  30  38
ATOM     38  C   UNL     1      -1.856  13.156 132.265  0.00  0.00    +0.000 C 
ATOM     39  C   UNL     1      -2.175  14.311 133.170  0.00  0.00    +0.000 C 
ENDBRANCH  30  38
BRANCH  21  40
ATOM     40  N   UNL     1       2.033   5.201 138.654  0.00  0.00    +0.000 N 
BRANCH  40  42
ATOM     41  C   UNL     1       3.102   5.992 140.803  0.00  0.00    +0.000 C 
ATOM     42  C   UNL     1       2.099   5.103 140.127  0.00  0.00    +0.000 C 
ENDBRANCH  40  42
BRANCH  40  43
ATOM     43  C   UNL     1       2.949   4.534 137.712  0.00  0.00    +0.000 C 
ATOM     44  C   UNL     1       3.089   3.045 137.869  0.00  0.00    +0.000 C 
ENDBRANCH  40  43
ENDBRANCH  21  40
ENDBRANCH  15  25
BRANCH  18  45
ATOM     45  S   UNL     1      -7.708   7.318 138.635  0.00  0.00    +0.000 S 
ATOM     46  O   UNL     1      -7.316   6.457 139.748  0.00  0.00    +0.000 OA
ATOM     47  O   UNL     1      -8.281   8.604 139.014  0.00  0.00    +0.000 OA
ATOM     48  O   UNL     1      -8.369   6.640 137.525  0.00  0.00    +0.000 OA
ENDBRANCH  18  45
ENDBRANCH  12  20
ENDBRANCH  10  12
ENDBRANCH   9  10
ENDBRANCH   8   9
ENDBRANCH   7   8
ENDBRANCH   6   7
ENDBRANCH   5   6
ENDBRANCH   4   5
ENDBRANCH   3   4
ENDBRANCH   2   3
ENDBRANCH   1   2
BRANCH   1  49
ATOM     49  C   UNL     1      -2.773   3.493 127.574  0.00  0.00    +0.000 C 
BRANCH  49  50
ATOM     50  C   UNL     1      -3.501   2.944 126.370  0.00  0.00    +0.000 C 
BRANCH  50  51
ATOM     51  N   UNL     1      -4.698   3.695 126.067  0.00  0.00    +0.000 N 
ATOM     52  C   UNL     1      -5.946   3.197 125.892  0.00  0.00    +0.000 A 
ATOM     53  C   UNL     1      -6.743   4.283 125.618  0.00  0.00    +0.000 A 
ATOM     54  N   UNL     1      -5.943   5.406 125.621  0.00  0.00    +0.000 NA
ATOM     55  N   UNL     1      -4.694   5.031 125.899  0.00  0.00    +0.000 NA
BRANCH  53  56
ATOM     56  C   UNL     1      -8.220   4.303 125.355  0.00  0.00    +0.000 C 
BRANCH  56  57
ATOM     57  N   UNL     1      -8.774   2.928 125.173  0.00  0.00    +0.000 N 
ATOM     58  C   UNL     1      -9.058   2.397 123.910  0.00  0.00    +0.000 C 
ATOM     59  O   UNL     1      -8.847   3.073 122.905  0.00  0.00    +0.000 OA
ATOM     60  H   UNL     1      -8.938   2.390 126.011  0.00  0.00    +0.000 HD
BRANCH  58  61
ATOM     61  C   UNL     1      -9.655   0.912 123.786  0.00  0.00    +0.000 C 
BRANCH  61  62
ATOM     62  C   UNL     1      -8.578  -0.437 124.306  0.00  0.00    +0.000 C 
BRANCH  62  63
ATOM     63  C   UNL     1      -8.930  -1.444 125.939  0.00  0.00    +0.000 C 
ATOM     64  O   UNL     1      -9.816  -2.235 125.517  0.00  0.00    +0.000 OA
ATOM     65  N   UNL     1      -8.144  -1.446 127.597  0.00  0.00    +0.000 N 
ATOM     66  H   UNL     1      -7.906  -0.468 127.303  0.00  0.00    +0.000 HD
BRANCH  65  67
ATOM     67  C   UNL     1      -7.886  -1.919 129.566  0.00  0.00    +0.000 C 
ATOM     68  C   UNL     1      -6.943  -2.697 128.878  0.00  0.00    +0.000 C 
ATOM     69  C   UNL     1      -6.751  -1.678 130.051  0.00  0.00    +0.000 C 
ATOM     70  C   UNL     1      -6.017  -2.728 130.597  0.00  0.00    +0.000 C 
ATOM     71  N   UNL     1      -5.803  -1.659 131.849  0.00  0.00    +0.000 N 
ATOM     72  C   UNL     1      -6.691  -0.502 132.527  0.00  0.00    +0.000 C 
ATOM     73  O   UNL     1      -6.723  -0.283 133.749  0.00  0.00    +0.000 OA
ATOM     74  C   UNL     1      -6.248  -2.757 132.388  0.00  0.00    +0.000 A 
ATOM     75  C   UNL     1      -4.930  -3.840 132.682  0.00  0.00    +0.000 A 
ATOM     76  C   UNL     1      -4.796  -4.875 133.536  0.00  0.00    +0.000 A 
ATOM     77  C   UNL     1      -5.880  -4.596 134.229  0.00  0.00    +0.000 A 
ATOM     78  C   UNL     1      -7.157  -3.593 133.298  0.00  0.00    +0.000 A 
ATOM     79  C   UNL     1      -7.747  -2.700 131.756  0.00  0.00    +0.000 A 
BRANCH  72  80
ATOM     80  C   UNL     1      -7.450   0.505 131.635  0.00  0.00    +0.000 A 
ATOM     81  C   UNL     1      -6.992   1.446 130.625  0.00  0.00    +0.000 A 
ATOM     82  C   UNL     1      -7.481   2.778 130.611  0.00  0.00    +0.000 A 
ATOM     83  C   UNL     1      -8.698   3.004 131.177  0.00  0.00    +0.000 A 
ATOM     84  C   UNL     1      -9.334   1.875 131.692  0.00  0.00    +0.000 A 
ATOM     85  C   UNL     1      -8.702   0.706 132.081  0.00  0.00    +0.000 A 
BRANCH  83  86
ATOM     86  N   UNL     1      -9.301   4.274 131.106  0.00  0.00    +0.000 N 
ATOM     87  C   UNL     1     -10.542   4.451 130.519  0.00  0.00    +0.000 C 
ATOM     88  O   UNL     1     -11.238   3.548 130.069  0.00  0.00    +0.000 OA
ATOM     89  H   UNL     1      -8.806   5.078 131.518  0.00  0.00    +0.000 HD
BRANCH  87  90
ATOM     90  C   UNL     1     -11.102   5.817 130.437  0.00  0.00    +0.000 A 
ATOM     91  C   UNL     1     -11.997   6.293 131.394  0.00  0.00    +0.000 A 
ATOM     92  C   UNL     1     -12.759   7.429 131.125  0.00  0.00    +0.000 A 
ATOM     93  C   UNL     1     -12.442   8.231 130.044  0.00  0.00    +0.000 A 
ATOM     94  C   UNL     1     -11.340   7.909 129.260  0.00  0.00    +0.000 A 
ATOM     95  C   UNL     1     -10.729   6.653 129.377  0.00  0.00    +0.000 A 
ATOM     96  C   UNL     1      -9.743   6.197 128.341  0.00  0.00    +0.000 C 
ENDBRANCH  87  90
ENDBRANCH  83  86
ENDBRANCH  72  80
ENDBRANCH  65  67
ENDBRANCH  62  63
ENDBRANCH  61  62
ENDBRANCH  58  61
ENDBRANCH  56  57
ENDBRANCH  53  56
ENDBRANCH  50  51
ENDBRANCH  49  50
ENDBRANCH   1  49
TORSDOF 30
ENDMDL
MODEL 4
REMARK VINA RESULT:      -9.6      3.546     12.351
REMARK  Name = CHEMBL2172292
REMARK  35 active torsions:
REMARK  status: ('A' for Active; 'I' for Inactive)
REMARK    1  A    between atoms: C_1  and  C_2
REMARK    2  A    between atoms: C_2  and  N_3
REMARK    3  A    between atoms: N_3  and  C_4
REMARK    4  A    between atoms: N_3  and  C_6
REMARK    5  A    between atoms: C_4  and  C_5
REMARK    6  A    between atoms: C_10  and  C_11
REMARK    7  A    between atoms: C_14  and  S_15
REMARK    8  A    between atoms: C_20  and  S_21
REMARK    9  A    between atoms: S_21  and  N_24
REMARK   10  A    between atoms: N_24  and  C_25
REMARK   11  A    between atoms: C_25  and  C_26
REMARK   12  A    between atoms: C_26  and  O_27
REMARK   13  A    between atoms: O_27  and  C_28
REMARK   14  A    between atoms: C_28  and  C_29
REMARK   15  A    between atoms: C_29  and  O_30
REMARK   16  A    between atoms: O_30  and  C_31
REMARK   17  A    between atoms: C_31  and  C_32
REMARK   18  A    between atoms: C_32  and  O_33
REMARK   19  A    between atoms: O_33  and  C_34
REMARK   20  A    between atoms: C_34  and  C_35
REMARK   21  A    between atoms: C_35  and  N_36
REMARK   22  A    between atoms: C_38  and  C_39
REMARK   23  A    between atoms: C_39  and  N_40
REMARK   24  A    between atoms: C_41  and  C_43
REMARK   25  A    between atoms: C_43  and  C_44
REMARK   26  A    between atoms: C_44  and  C_45
REMARK   27  A    between atoms: N_47  and  C_48
REMARK   28  A    between atoms: C_53  and  C_55
REMARK   29  A    between atoms: C_58  and  N_59
REMARK   30  A    between atoms: C_60  and  C_62
REMARK   31  A    between atoms: C_67  and  C_68
REMARK   32  A    between atoms: N_83  and  C_84
REMARK   33  A    between atoms: N_83  and  C_86
REMARK   34  A    between atoms: C_84  and  C_85
REMARK   35  A    between atoms: C_86  and  C_87
REMARK                            x       y       z     vdW  Elec       q    Type
REMARK                         _______ _______ _______ _____ _____    ______ ____
ROOT
ATOM      1  O   UNL     1      -7.089  -1.454 137.463  0.00  0.00    +0.000 OA
ENDROOT
BRANCH   1   2
ATOM      2  C   UNL     1      -5.907  -0.681 137.258  0.00  0.00    +0.000 C 
BRANCH   2   3
ATOM      3  C   UNL     1      -5.641  -0.544 135.776  0.00  0.00    +0.000 C 
BRANCH   3   4
ATOM      4  O   UNL     1      -4.239  -0.406 135.555  0.00  0.00    +0.000 OA
BRANCH   4   5
ATOM      5  C   UNL     1      -3.545  -0.640 136.775  0.00  0.00    +0.000 C 
BRANCH   5   6
ATOM      6  C   UNL     1      -2.298  -1.441 136.490  0.00  0.00    +0.000 C 
BRANCH   6   7
ATOM      7  O   UNL     1      -2.556  -2.337 135.417  0.00  0.00    +0.000 OA
BRANCH   7   8
ATOM      8  C   UNL     1      -1.553  -2.217 134.418  0.00  0.00    +0.000 C 
BRANCH   8   9
ATOM      9  C   UNL     1      -2.055  -1.311 133.302  0.00  0.00    +0.000 C 
BRANCH   9  10
ATOM     10  N   UNL     1      -2.683  -2.041 132.212  0.00  0.00    +0.000 NA
ATOM     11  H   UNL     1      -2.008  -2.378 131.522  0.00  0.00    +0.000 HD
BRANCH  10  12
ATOM     12  S   UNL     1      -4.075  -1.310 131.518  0.00  0.00    +0.000 S 
ATOM     13  O   UNL     1      -3.991  -1.690 130.131  0.00  0.00    +0.000 OA
ATOM     14  O   UNL     1      -4.045   0.078 131.941  0.00  0.00    +0.000 OA
BRANCH  12  20
ATOM     15  C   UNL     1      -6.861  -1.658 131.924  0.00  0.00    +0.000 A 
ATOM     16  C   UNL     1      -7.955  -2.286 132.559  0.00  0.00    +0.000 A 
ATOM     17  C   UNL     1      -7.758  -3.138 133.647  0.00  0.00    +0.000 A 
ATOM     18  C   UNL     1      -6.472  -3.581 133.931  0.00  0.00    +0.000 A 
ATOM     19  C   UNL     1      -5.401  -3.137 133.134  0.00  0.00    +0.000 A 
ATOM     20  C   UNL     1      -5.559  -2.062 132.236  0.00  0.00    +0.000 A 
BRANCH  15  25
ATOM     21  C   UNL     1      -7.674  -1.177 126.817  0.00  0.00    +0.000 A 
ATOM     22  C   UNL     1      -7.288  -2.203 127.686  0.00  0.00    +0.000 A 
ATOM     23  C   UNL     1      -7.167  -2.007 129.044  0.00  0.00    +0.000 A 
ATOM     24  C   UNL     1      -7.400  -0.756 129.574  0.00  0.00    +0.000 A 
ATOM     25  C   UNL     1      -7.175  -0.559 131.003  0.00  0.00    +0.000 A 
ATOM     26  C   UNL     1      -7.381   0.678 131.474  0.00  0.00    +0.000 A 
ATOM     27  C   UNL     1      -7.328   0.968 132.894  0.00  0.00    +0.000 A 
ATOM     28  C   UNL     1      -7.702   2.122 133.430  0.00  0.00    +0.000 A 
ATOM     29  C   UNL     1      -8.129   3.220 132.562  0.00  0.00    +0.000 A 
ATOM     30  N   UNL     1      -8.436   4.379 133.054  0.00  0.00    +0.000 N 
ATOM     31  C   UNL     1      -8.154   2.850 131.135  0.00  0.00    +0.000 A 
ATOM     32  C   UNL     1      -7.862   1.690 130.600  0.00  0.00    +0.000 A 
ATOM     33  O   UNL     1      -8.100   1.508 129.248  0.00  0.00    +0.000 OA
ATOM     34  C   UNL     1      -7.819   0.278 128.745  0.00  0.00    +0.000 A 
ATOM     35  C   UNL     1      -7.944   0.076 127.377  0.00  0.00    +0.000 A 
BRANCH  30  36
ATOM     36  C   UNL     1      -8.879   5.570 132.239  0.00  0.00    +0.000 C 
ATOM     37  C   UNL     1      -7.761   6.308 131.599  0.00  0.00    +0.000 C 
ENDBRANCH  30  36
BRANCH  30  38
ATOM     38  C   UNL     1      -8.308   4.588 134.551  0.00  0.00    +0.000 C 
ATOM     39  C   UNL     1      -7.036   5.307 134.899  0.00  0.00    +0.000 C 
ENDBRANCH  30  38
BRANCH  21  40
ATOM     40  N   UNL     1      -7.795  -1.411 125.443  0.00  0.00    +0.000 N 
BRANCH  40  42
ATOM     41  C   UNL     1      -8.498  -3.711 124.665  0.00  0.00    +0.000 C 
ATOM     42  C   UNL     1      -7.386  -2.743 124.950  0.00  0.00    +0.000 C 
ENDBRANCH  40  42
BRANCH  40  43
ATOM     43  C   UNL     1      -8.283  -0.304 124.603  0.00  0.00    +0.000 C 
ATOM     44  C   UNL     1      -7.268   0.336 123.697  0.00  0.00    +0.000 C 
ENDBRANCH  40  43
ENDBRANCH  21  40
ENDBRANCH  15  25
BRANCH  18  45
ATOM     45  S   UNL     1      -6.195  -4.713 135.384  0.00  0.00    +0.000 S 
ATOM     46  O   UNL     1      -5.715  -5.934 134.743  0.00  0.00    +0.000 OA
ATOM     47  O   UNL     1      -5.202  -3.987 136.168  0.00  0.00    +0.000 OA
ATOM     48  O   UNL     1      -7.522  -4.805 135.985  0.00  0.00    +0.000 OA
ENDBRANCH  18  45
ENDBRANCH  12  20
ENDBRANCH  10  12
ENDBRANCH   9  10
ENDBRANCH   8   9
ENDBRANCH   7   8
ENDBRANCH   6   7
ENDBRANCH   5   6
ENDBRANCH   4   5
ENDBRANCH   3   4
ENDBRANCH   2   3
ENDBRANCH   1   2
BRANCH   1  49
ATOM     49  C   UNL     1      -7.020  -2.088 138.740  0.00  0.00    +0.000 C 
BRANCH  49  50
ATOM     50  C   UNL     1      -8.296  -1.841 139.509  0.00  0.00    +0.000 C 
BRANCH  50  51
ATOM     51  N   UNL     1      -8.283  -0.568 140.194  0.00  0.00    +0.000 N 
ATOM     52  C   UNL     1      -7.191   0.158 140.536  0.00  0.00    +0.000 A 
ATOM     53  C   UNL     1      -7.675   1.277 141.170  0.00  0.00    +0.000 A 
ATOM     54  N   UNL     1      -9.050   1.181 141.206  0.00  0.00    +0.000 NA
ATOM     55  N   UNL     1      -9.408   0.046 140.604  0.00  0.00    +0.000 NA
BRANCH  53  56
ATOM     56  C   UNL     1      -6.897   2.425 141.741  0.00  0.00    +0.000 C 
BRANCH  56  57
ATOM     57  N   UNL     1      -6.127   3.156 140.690  0.00  0.00    +0.000 N 
ATOM     58  C   UNL     1      -4.731   3.092 140.605  0.00  0.00    +0.000 C 
ATOM     59  O   UNL     1      -4.104   2.413 141.416  0.00  0.00    +0.000 OA
ATOM     60  H   UNL     1      -6.662   3.705 140.035  0.00  0.00    +0.000 HD
BRANCH  58  61
ATOM     61  C   UNL     1      -3.966   3.904 139.452  0.00  0.00    +0.000 C 
BRANCH  61  62
ATOM     62  C   UNL     1      -3.284   2.931 138.095  0.00  0.00    +0.000 C 
BRANCH  62  63
ATOM     63  C   UNL     1      -3.998   3.074 136.286  0.00  0.00    +0.000 C 
ATOM     64  O   UNL     1      -5.216   2.847 136.517  0.00  0.00    +0.000 OA
ATOM     65  N   UNL     1      -3.248   3.562 134.684  0.00  0.00    +0.000 N 
ATOM     66  H   UNL     1      -2.385   3.221 135.173  0.00  0.00    +0.000 HD
BRANCH  65  67
ATOM     67  C   UNL     1      -3.124   3.863 132.669  0.00  0.00    +0.000 C 
ATOM     68  C   UNL     1      -4.312   3.142 132.857  0.00  0.00    +0.000 C 
ATOM     69  C   UNL     1      -4.064   4.514 132.145  0.00  0.00    +0.000 C 
ATOM     70  C   UNL     1      -4.813   3.917 131.136  0.00  0.00    +0.000 C 
ATOM     71  N   UNL     1      -4.561   5.367 130.368  0.00  0.00    +0.000 N 
ATOM     72  C   UNL     1      -3.366   6.443 130.326  0.00  0.00    +0.000 C 
ATOM     73  O   UNL     1      -3.021   7.052 129.300  0.00  0.00    +0.000 OA
ATOM     74  C   UNL     1      -4.188   4.447 129.527  0.00  0.00    +0.000 A 
ATOM     75  C   UNL     1      -5.561   3.870 128.645  0.00  0.00    +0.000 A 
ATOM     76  C   UNL     1      -5.663   3.251 127.452  0.00  0.00    +0.000 A 
ATOM     77  C   UNL     1      -4.419   3.486 127.091  0.00  0.00    +0.000 A 
ATOM     78  C   UNL     1      -3.243   3.783 128.517  0.00  0.00    +0.000 A 
ATOM     79  C   UNL     1      -2.883   3.932 130.354  0.00  0.00    +0.000 A 
BRANCH  72  80
ATOM     80  C   UNL     1      -2.677   6.878 131.639  0.00  0.00    +0.000 A 
ATOM     81  C   UNL     1      -3.174   7.586 132.808  0.00  0.00    +0.000 A 
ATOM     82  C   UNL     1      -2.423   8.647 133.376  0.00  0.00    +0.000 A 
ATOM     83  C   UNL     1      -1.079   8.646 133.164  0.00  0.00    +0.000 A 
ATOM     84  C   UNL     1      -0.594   7.573 132.418  0.00  0.00    +0.000 A 
ATOM     85  C   UNL     1      -1.339   6.810 131.535  0.00  0.00    +0.000 A 
BRANCH  83  86
ATOM     86  N   UNL     1      -0.250   9.600 133.785  0.00  0.00    +0.000 N 
ATOM     87  C   UNL     1      -0.335  10.945 133.468  0.00  0.00    +0.000 C 
ATOM     88  O   UNL     1      -1.145  11.429 132.685  0.00  0.00    +0.000 OA
ATOM     89  H   UNL     1       0.417   9.281 134.502  0.00  0.00    +0.000 HD
BRANCH  87  90
ATOM     90  C   UNL     1       0.592  11.891 134.124  0.00  0.00    +0.000 A 
ATOM     91  C   UNL     1       0.222  12.593 135.270  0.00  0.00    +0.000 A 
ATOM     92  C   UNL     1       0.962  13.705 135.671  0.00  0.00    +0.000 A 
ATOM     93  C   UNL     1       2.198  13.951 135.102  0.00  0.00    +0.000 A 
ATOM     94  C   UNL     1       2.702  13.061 134.161  0.00  0.00    +0.000 A 
ATOM     95  C   UNL     1       1.869  12.092 133.584  0.00  0.00    +0.000 A 
ATOM     96  C   UNL     1       2.324  11.335 132.371  0.00  0.00    +0.000 C 
ENDBRANCH  87  90
ENDBRANCH  83  86
ENDBRANCH  72  80
ENDBRANCH  65  67
ENDBRANCH  62  63
ENDBRANCH  61  62
ENDBRANCH  58  61
ENDBRANCH  56  57
ENDBRANCH  53  56
ENDBRANCH  50  51
ENDBRANCH  49  50
ENDBRANCH   1  49
TORSDOF 30
ENDMDL
MODEL 5
REMARK VINA RESULT:      -9.5      3.002      4.941
REMARK  Name = CHEMBL2172292
REMARK  35 active torsions:
REMARK  status: ('A' for Active; 'I' for Inactive)
REMARK    1  A    between atoms: C_1  and  C_2
REMARK    2  A    between atoms: C_2  and  N_3
REMARK    3  A    between atoms: N_3  and  C_4
REMARK    4  A    between atoms: N_3  and  C_6
REMARK    5  A    between atoms: C_4  and  C_5
REMARK    6  A    between atoms: C_10  and  C_11
REMARK    7  A    between atoms: C_14  and  S_15
REMARK    8  A    between atoms: C_20  and  S_21
REMARK    9  A    between atoms: S_21  and  N_24
REMARK   10  A    between atoms: N_24  and  C_25
REMARK   11  A    between atoms: C_25  and  C_26
REMARK   12  A    between atoms: C_26  and  O_27
REMARK   13  A    between atoms: O_27  and  C_28
REMARK   14  A    between atoms: C_28  and  C_29
REMARK   15  A    between atoms: C_29  and  O_30
REMARK   16  A    between atoms: O_30  and  C_31
REMARK   17  A    between atoms: C_31  and  C_32
REMARK   18  A    between atoms: C_32  and  O_33
REMARK   19  A    between atoms: O_33  and  C_34
REMARK   20  A    between atoms: C_34  and  C_35
REMARK   21  A    between atoms: C_35  and  N_36
REMARK   22  A    between atoms: C_38  and  C_39
REMARK   23  A    between atoms: C_39  and  N_40
REMARK   24  A    between atoms: C_41  and  C_43
REMARK   25  A    between atoms: C_43  and  C_44
REMARK   26  A    between atoms: C_44  and  C_45
REMARK   27  A    between atoms: N_47  and  C_48
REMARK   28  A    between atoms: C_53  and  C_55
REMARK   29  A    between atoms: C_58  and  N_59
REMARK   30  A    between atoms: C_60  and  C_62
REMARK   31  A    between atoms: C_67  and  C_68
REMARK   32  A    between atoms: N_83  and  C_84
REMARK   33  A    between atoms: N_83  and  C_86
REMARK   34  A    between atoms: C_84  and  C_85
REMARK   35  A    between atoms: C_86  and  C_87
REMARK                            x       y       z     vdW  Elec       q    Type
REMARK                         _______ _______ _______ _____ _____    ______ ____
ROOT
ATOM      1  O   UNL     1      -3.339   3.383 128.688  0.00  0.00    +0.000 OA
ENDROOT
BRANCH   1   2
ATOM      2  C   UNL     1      -3.109   4.510 129.534  0.00  0.00    +0.000 C 
BRANCH   2   3
ATOM      3  C   UNL     1      -2.847   5.734 128.687  0.00  0.00    +0.000 C 
BRANCH   3   4
ATOM      4  O   UNL     1      -4.019   6.545 128.647  0.00  0.00    +0.000 OA
BRANCH   4   5
ATOM      5  C   UNL     1      -3.762   7.776 129.313  0.00  0.00    +0.000 C 
BRANCH   5   6
ATOM      6  C   UNL     1      -4.495   7.789 130.632  0.00  0.00    +0.000 C 
BRANCH   6   7
ATOM      7  O   UNL     1      -5.821   7.313 130.432  0.00  0.00    +0.000 OA
BRANCH   7   8
ATOM      8  C   UNL     1      -6.248   6.550 131.550  0.00  0.00    +0.000 C 
BRANCH   8   9
ATOM      9  C   UNL     1      -5.031   6.063 132.326  0.00  0.00    +0.000 C 
BRANCH   9  10
ATOM     10  N   UNL     1      -5.259   5.995 133.761  0.00  0.00    +0.000 NA
ATOM     11  H   UNL     1      -6.110   6.483 134.050  0.00  0.00    +0.000 HD
BRANCH  10  12
ATOM     12  S   UNL     1      -3.899   6.328 134.757  0.00  0.00    +0.000 S 
ATOM     13  O   UNL     1      -3.035   7.091 133.892  0.00  0.00    +0.000 OA
ATOM     14  O   UNL     1      -3.497   5.053 135.319  0.00  0.00    +0.000 OA
BRANCH  12  20
ATOM     15  C   UNL     1      -3.550   8.231 136.833  0.00  0.00    +0.000 A 
ATOM     16  C   UNL     1      -4.043   8.996 137.912  0.00  0.00    +0.000 A 
ATOM     17  C   UNL     1      -5.316   8.759 138.435  0.00  0.00    +0.000 A 
ATOM     18  C   UNL     1      -6.199   7.960 137.720  0.00  0.00    +0.000 A 
ATOM     19  C   UNL     1      -5.777   7.388 136.505  0.00  0.00    +0.000 A 
ATOM     20  C   UNL     1      -4.418   7.386 136.134  0.00  0.00    +0.000 A 
BRANCH  15  25
ATOM     21  C   UNL     1      -0.492  11.465 134.155  0.00  0.00    +0.000 A 
ATOM     22  C   UNL     1      -1.868  11.307 134.353  0.00  0.00    +0.000 A 
ATOM     23  C   UNL     1      -2.384  10.319 135.161  0.00  0.00    +0.000 A 
ATOM     24  C   UNL     1      -1.531   9.428 135.776  0.00  0.00    +0.000 A 
ATOM     25  C   UNL     1      -2.113   8.337 136.551  0.00  0.00    +0.000 A 
ATOM     26  C   UNL     1      -1.253   7.473 137.106  0.00  0.00    +0.000 A 
ATOM     27  C   UNL     1      -1.699   6.433 138.012  0.00  0.00    +0.000 A 
ATOM     28  C   UNL     1      -0.881   5.673 138.729  0.00  0.00    +0.000 A 
ATOM     29  C   UNL     1       0.566   5.812 138.569  0.00  0.00    +0.000 A 
ATOM     30  N   UNL     1       1.387   5.038 139.207  0.00  0.00    +0.000 N 
ATOM     31  C   UNL     1       0.942   6.886 137.630  0.00  0.00    +0.000 A 
ATOM     32  C   UNL     1       0.145   7.695 136.974  0.00  0.00    +0.000 A 
ATOM     33  O   UNL     1       0.708   8.739 136.259  0.00  0.00    +0.000 OA
ATOM     34  C   UNL     1      -0.157   9.575 135.628  0.00  0.00    +0.000 A 
ATOM     35  C   UNL     1       0.361  10.575 134.817  0.00  0.00    +0.000 A 
BRANCH  30  36
ATOM     36  C   UNL     1       2.891   5.101 139.099  0.00  0.00    +0.000 C 
ATOM     37  C   UNL     1       3.597   4.746 140.356  0.00  0.00    +0.000 C 
ENDBRANCH  30  36
BRANCH  30  38
ATOM     38  C   UNL     1       0.813   3.955 140.101  0.00  0.00    +0.000 C 
ATOM     39  C   UNL     1       0.706   2.643 139.377  0.00  0.00    +0.000 C 
ENDBRANCH  30  38
BRANCH  21  40
ATOM     40  N   UNL     1       0.001  12.485 133.334  0.00  0.00    +0.000 N 
BRANCH  40  42
ATOM     41  C   UNL     1       0.489  12.958 130.899  0.00  0.00    +0.000 C 
ATOM     42  C   UNL     1      -0.500  12.527 131.944  0.00  0.00    +0.000 C 
ENDBRANCH  40  42
BRANCH  40  43
ATOM     43  C   UNL     1       0.999  13.403 133.910  0.00  0.00    +0.000 C 
ATOM     44  C   UNL     1       0.625  14.052 135.213  0.00  0.00    +0.000 C 
ENDBRANCH  40  43
ENDBRANCH  21  40
ENDBRANCH  15  25
BRANCH  18  45
ATOM     45  S   UNL     1      -7.897   7.631 138.409  0.00  0.00    +0.000 S 
ATOM     46  O   UNL     1      -8.745   7.752 137.226  0.00  0.00    +0.000 OA
ATOM     47  O   UNL     1      -7.766   6.281 138.947  0.00  0.00    +0.000 OA
ATOM     48  O   UNL     1      -8.058   8.688 139.403  0.00  0.00    +0.000 OA
ENDBRANCH  18  45
ENDBRANCH  12  20
ENDBRANCH  10  12
ENDBRANCH   9  10
ENDBRANCH   8   9
ENDBRANCH   7   8
ENDBRANCH   6   7
ENDBRANCH   5   6
ENDBRANCH   4   5
ENDBRANCH   3   4
ENDBRANCH   2   3
ENDBRANCH   1   2
BRANCH   1  49
ATOM     49  C   UNL     1      -2.701   3.604 127.430  0.00  0.00    +0.000 C 
BRANCH  49  50
ATOM     50  C   UNL     1      -3.510   2.971 126.323  0.00  0.00    +0.000 C 
BRANCH  50  51
ATOM     51  N   UNL     1      -4.731   3.698 126.056  0.00  0.00    +0.000 N 
ATOM     52  C   UNL     1      -5.968   3.171 125.884  0.00  0.00    +0.000 A 
ATOM     53  C   UNL     1      -6.796   4.242 125.648  0.00  0.00    +0.000 A 
ATOM     54  N   UNL     1      -6.026   5.386 125.669  0.00  0.00    +0.000 NA
ATOM     55  N   UNL     1      -4.763   5.037 125.920  0.00  0.00    +0.000 NA
BRANCH  53  56
ATOM     56  C   UNL     1      -8.277   4.231 125.406  0.00  0.00    +0.000 C 
BRANCH  56  57
ATOM     57  N   UNL     1      -8.797   2.847 125.195  0.00  0.00    +0.000 N 
ATOM     58  C   UNL     1      -9.098   2.346 123.923  0.00  0.00    +0.000 C 
ATOM     59  O   UNL     1      -8.931   3.058 122.935  0.00  0.00    +0.000 OA
ATOM     60  H   UNL     1      -8.926   2.280 126.020  0.00  0.00    +0.000 HD
BRANCH  58  61
ATOM     61  C   UNL     1      -9.658   0.850 123.769  0.00  0.00    +0.000 C 
BRANCH  61  62
ATOM     62  C   UNL     1      -8.569  -0.480 124.314  0.00  0.00    +0.000 C 
BRANCH  62  63
ATOM     63  C   UNL     1      -8.926  -1.477 125.951  0.00  0.00    +0.000 C 
ATOM     64  O   UNL     1      -9.809  -2.272 125.530  0.00  0.00    +0.000 OA
ATOM     65  N   UNL     1      -8.149  -1.467 127.613  0.00  0.00    +0.000 N 
ATOM     66  H   UNL     1      -7.910  -0.491 127.314  0.00  0.00    +0.000 HD
BRANCH  65  67
ATOM     67  C   UNL     1      -7.899  -1.927 129.586  0.00  0.00    +0.000 C 
ATOM     68  C   UNL     1      -6.954  -2.710 128.907  0.00  0.00    +0.000 C 
ATOM     69  C   UNL     1      -6.766  -1.683 130.074  0.00  0.00    +0.000 C 
ATOM     70  C   UNL     1      -6.035  -2.730 130.630  0.00  0.00    +0.000 C 
ATOM     71  N   UNL     1      -5.826  -1.653 131.877  0.00  0.00    +0.000 N 
ATOM     72  C   UNL     1      -6.716  -0.491 132.543  0.00  0.00    +0.000 C 
ATOM     73  O   UNL     1      -6.754  -0.264 133.763  0.00  0.00    +0.000 OA
ATOM     74  C   UNL     1      -6.274  -2.746 132.420  0.00  0.00    +0.000 A 
ATOM     75  C   UNL     1      -4.958  -3.828 132.728  0.00  0.00    +0.000 A 
ATOM     76  C   UNL     1      -4.827  -4.857 133.589  0.00  0.00    +0.000 A 
ATOM     77  C   UNL     1      -5.914  -4.574 134.275  0.00  0.00    +0.000 A 
ATOM     78  C   UNL     1      -7.186  -3.576 133.332  0.00  0.00    +0.000 A 
ATOM     79  C   UNL     1      -7.770  -2.693 131.782  0.00  0.00    +0.000 A 
BRANCH  72  80
ATOM     80  C   UNL     1      -7.472   0.511 131.641  0.00  0.00    +0.000 A 
ATOM     81  C   UNL     1      -7.009   1.439 130.621  0.00  0.00    +0.000 A 
ATOM     82  C   UNL     1      -7.492   2.773 130.594  0.00  0.00    +0.000 A 
ATOM     83  C   UNL     1      -8.707   3.010 131.158  0.00  0.00    +0.000 A 
ATOM     84  C   UNL     1      -9.349   1.890 131.685  0.00  0.00    +0.000 A 
ATOM     85  C   UNL     1      -8.722   0.723 132.086  0.00  0.00    +0.000 A 
BRANCH  83  86
ATOM     86  N   UNL     1      -9.304   4.283 131.074  0.00  0.00    +0.000 N 
ATOM     87  C   UNL     1     -10.549   4.458 130.495  0.00  0.00    +0.000 C 
ATOM     88  O   UNL     1     -11.254   3.553 130.064  0.00  0.00    +0.000 OA
ATOM     89  H   UNL     1      -8.801   5.090 131.470  0.00  0.00    +0.000 HD
BRANCH  87  90
ATOM     90  C   UNL     1     -11.103   5.826 130.399  0.00  0.00    +0.000 A 
ATOM     91  C   UNL     1     -11.987   6.320 131.357  0.00  0.00    +0.000 A 
ATOM     92  C   UNL     1     -12.745   7.457 131.079  0.00  0.00    +0.000 A 
ATOM     93  C   UNL     1     -12.434   8.241 129.983  0.00  0.00    +0.000 A 
ATOM     94  C   UNL     1     -11.341   7.902 129.193  0.00  0.00    +0.000 A 
ATOM     95  C   UNL     1     -10.736   6.645 129.323  0.00  0.00    +0.000 A 
ATOM     96  C   UNL     1      -9.762   6.168 128.285  0.00  0.00    +0.000 C 
ENDBRANCH  87  90
ENDBRANCH  83  86
ENDBRANCH  72  80
ENDBRANCH  65  67
ENDBRANCH  62  63
ENDBRANCH  61  62
ENDBRANCH  58  61
ENDBRANCH  56  57
ENDBRANCH  53  56
ENDBRANCH  50  51
ENDBRANCH  49  50
ENDBRANCH   1  49
TORSDOF 30
ENDMDL
MODEL 6
REMARK VINA RESULT:      -9.3      3.291     11.412
REMARK  Name = CHEMBL2172292
REMARK  35 active torsions:
REMARK  status: ('A' for Active; 'I' for Inactive)
REMARK    1  A    between atoms: C_1  and  C_2
REMARK    2  A    between atoms: C_2  and  N_3
REMARK    3  A    between atoms: N_3  and  C_4
REMARK    4  A    between atoms: N_3  and  C_6
REMARK    5  A    between atoms: C_4  and  C_5
REMARK    6  A    between atoms: C_10  and  C_11
REMARK    7  A    between atoms: C_14  and  S_15
REMARK    8  A    between atoms: C_20  and  S_21
REMARK    9  A    between atoms: S_21  and  N_24
REMARK   10  A    between atoms: N_24  and  C_25
REMARK   11  A    between atoms: C_25  and  C_26
REMARK   12  A    between atoms: C_26  and  O_27
REMARK   13  A    between atoms: O_27  and  C_28
REMARK   14  A    between atoms: C_28  and  C_29
REMARK   15  A    between atoms: C_29  and  O_30
REMARK   16  A    between atoms: O_30  and  C_31
REMARK   17  A    between atoms: C_31  and  C_32
REMARK   18  A    between atoms: C_32  and  O_33
REMARK   19  A    between atoms: O_33  and  C_34
REMARK   20  A    between atoms: C_34  and  C_35
REMARK   21  A    between atoms: C_35  and  N_36
REMARK   22  A    between atoms: C_38  and  C_39
REMARK   23  A    between atoms: C_39  and  N_40
REMARK   24  A    between atoms: C_41  and  C_43
REMARK   25  A    between atoms: C_43  and  C_44
REMARK   26  A    between atoms: C_44  and  C_45
REMARK   27  A    between atoms: N_47  and  C_48
REMARK   28  A    between atoms: C_53  and  C_55
REMARK   29  A    between atoms: C_58  and  N_59
REMARK   30  A    between atoms: C_60  and  C_62
REMARK   31  A    between atoms: C_67  and  C_68
REMARK   32  A    between atoms: N_83  and  C_84
REMARK   33  A    between atoms: N_83  and  C_86
REMARK   34  A    between atoms: C_84  and  C_85
REMARK   35  A    between atoms: C_86  and  C_87
REMARK                            x       y       z     vdW  Elec       q    Type
REMARK                         _______ _______ _______ _____ _____    ______ ____
ROOT
ATOM      1  O   UNL     1      -5.638   4.725 123.369  0.00  0.00    +0.000 OA
ENDROOT
BRANCH   1   2
ATOM      2  C   UNL     1      -5.637   4.037 122.119  0.00  0.00    +0.000 C 
BRANCH   2   3
ATOM      3  C   UNL     1      -6.628   2.897 122.166  0.00  0.00    +0.000 C 
BRANCH   3   4
ATOM      4  O   UNL     1      -7.954   3.414 122.073  0.00  0.00    +0.000 OA
BRANCH   4   5
ATOM      5  C   UNL     1      -8.801   2.698 122.965  0.00  0.00    +0.000 C 
BRANCH   5   6
ATOM      6  C   UNL     1      -8.225   2.763 124.358  0.00  0.00    +0.000 C 
BRANCH   6   7
ATOM      7  O   UNL     1      -8.870   3.806 125.079  0.00  0.00    +0.000 OA
BRANCH   7   8
ATOM      8  C   UNL     1      -7.910   4.645 125.703  0.00  0.00    +0.000 C 
BRANCH   8   9
ATOM      9  C   UNL     1      -8.034   4.520 127.216  0.00  0.00    +0.000 C 
BRANCH   9  10
ATOM     10  N   UNL     1      -6.747   4.448 127.890  0.00  0.00    +0.000 NA
ATOM     11  H   UNL     1      -6.135   3.729 127.498  0.00  0.00    +0.000 HD
BRANCH  10  12
ATOM     12  S   UNL     1      -6.795   4.455 129.608  0.00  0.00    +0.000 S 
ATOM     13  O   UNL     1      -6.452   5.813 129.943  0.00  0.00    +0.000 OA
ATOM     14  O   UNL     1      -5.987   3.328 130.032  0.00  0.00    +0.000 OA
BRANCH  12  20
ATOM     15  C   UNL     1      -8.980   2.866 130.475  0.00  0.00    +0.000 A 
ATOM     16  C   UNL     1     -10.329   2.715 130.863  0.00  0.00    +0.000 A 
ATOM     17  C   UNL     1     -11.238   3.764 130.717  0.00  0.00    +0.000 A 
ATOM     18  C   UNL     1     -10.755   5.039 130.447  0.00  0.00    +0.000 A 
ATOM     19  C   UNL     1      -9.369   5.232 130.299  0.00  0.00    +0.000 A 
ATOM     20  C   UNL     1      -8.494   4.137 130.154  0.00  0.00    +0.000 A 
BRANCH  15  25
ATOM     21  C   UNL     1      -7.691  -0.471 126.710  0.00  0.00    +0.000 A 
ATOM     22  C   UNL     1      -8.522   0.647 126.827  0.00  0.00    +0.000 A 
ATOM     23  C   UNL     1      -8.646   1.350 128.005  0.00  0.00    +0.000 A 
ATOM     24  C   UNL     1      -7.958   0.928 129.123  0.00  0.00    +0.000 A 
ATOM     25  C   UNL     1      -8.180   1.639 130.378  0.00  0.00    +0.000 A 
ATOM     26  C   UNL     1      -7.519   1.180 131.449  0.00  0.00    +0.000 A 
ATOM     27  C   UNL     1      -7.547   1.882 132.717  0.00  0.00    +0.000 A 
ATOM     28  C   UNL     1      -6.771   1.579 133.750  0.00  0.00    +0.000 A 
ATOM     29  C   UNL     1      -5.873   0.427 133.669  0.00  0.00    +0.000 A 
ATOM     30  N   UNL     1      -5.153   0.069 134.686  0.00  0.00    +0.000 N 
ATOM     31  C   UNL     1      -5.903  -0.236 132.352  0.00  0.00    +0.000 A 
ATOM     32  C   UNL     1      -6.607   0.100 131.299  0.00  0.00    +0.000 A 
ATOM     33  O   UNL     1      -6.372  -0.567 130.108  0.00  0.00    +0.000 OA
ATOM     34  C   UNL     1      -7.097  -0.159 129.034  0.00  0.00    +0.000 A 
ATOM     35  C   UNL     1      -6.971  -0.862 127.844  0.00  0.00    +0.000 A 
BRANCH  30  36
ATOM     36  C   UNL     1      -4.206  -1.106 134.699  0.00  0.00    +0.000 C 
ATOM     37  C   UNL     1      -2.939  -0.863 133.964  0.00  0.00    +0.000 C 
ENDBRANCH  30  36
BRANCH  30  38
ATOM     38  C   UNL     1      -5.287   0.850 135.979  0.00  0.00    +0.000 C 
ATOM     39  C   UNL     1      -3.986   0.902 136.728  0.00  0.00    +0.000 C 
ENDBRANCH  30  38
BRANCH  21  40
ATOM     40  N   UNL     1      -7.582  -1.159 125.496  0.00  0.00    +0.000 N 
BRANCH  40  42
ATOM     41  C   UNL     1      -9.371  -2.942 125.586  0.00  0.00    +0.000 C 
ATOM     42  C   UNL     1      -8.828  -1.709 124.922  0.00  0.00    +0.000 C 
ENDBRANCH  40  42
BRANCH  40  43
ATOM     43  C   UNL     1      -6.237  -1.306 124.913  0.00  0.00    +0.000 C 
ATOM     44  C   UNL     1      -5.693  -2.706 124.852  0.00  0.00    +0.000 C 
ENDBRANCH  40  43
ENDBRANCH  21  40
ENDBRANCH  15  25
BRANCH  18  45
ATOM     45  S   UNL     1     -11.957   6.447 130.243  0.00  0.00    +0.000 S 
ATOM     46  O   UNL     1     -12.766   6.008 129.110  0.00  0.00    +0.000 OA
ATOM     47  O   UNL     1     -12.644   6.467 131.530  0.00  0.00    +0.000 OA
ATOM     48  O   UNL     1     -11.085   7.588 129.982  0.00  0.00    +0.000 OA
ENDBRANCH  18  45
ENDBRANCH  12  20
ENDBRANCH  10  12
ENDBRANCH   9  10
ENDBRANCH   8   9
ENDBRANCH   7   8
ENDBRANCH   6   7
ENDBRANCH   5   6
ENDBRANCH   4   5
ENDBRANCH   3   4
ENDBRANCH   2   3
ENDBRANCH   1   2
BRANCH   1  49
ATOM     49  C   UNL     1      -4.359   4.580 123.986  0.00  0.00    +0.000 C 
BRANCH  49  50
ATOM     50  C   UNL     1      -4.488   3.786 125.264  0.00  0.00    +0.000 C 
BRANCH  50  51
ATOM     51  N   UNL     1      -4.135   4.567 126.429  0.00  0.00    +0.000 N 
ATOM     52  C   UNL     1      -3.391   4.157 127.486  0.00  0.00    +0.000 A 
ATOM     53  C   UNL     1      -3.335   5.234 128.337  0.00  0.00    +0.000 A 
ATOM     54  N   UNL     1      -4.064   6.259 127.772  0.00  0.00    +0.000 NA
ATOM     55  N   UNL     1      -4.547   5.836 126.603  0.00  0.00    +0.000 NA
BRANCH  53  56
ATOM     56  C   UNL     1      -2.626   5.335 129.655  0.00  0.00    +0.000 C 
BRANCH  56  57
ATOM     57  N   UNL     1      -3.160   4.360 130.653  0.00  0.00    +0.000 N 
ATOM     58  C   UNL     1      -2.575   4.182 131.912  0.00  0.00    +0.000 C 
ATOM     59  O   UNL     1      -1.587   4.845 132.222  0.00  0.00    +0.000 OA
ATOM     60  H   UNL     1      -3.971   3.827 130.377  0.00  0.00    +0.000 HD
BRANCH  58  61
ATOM     61  C   UNL     1      -3.198   3.114 132.935  0.00  0.00    +0.000 C 
BRANCH  61  62
ATOM     62  C   UNL     1      -4.029   3.781 134.391  0.00  0.00    +0.000 C 
BRANCH  62  63
ATOM     63  C   UNL     1      -3.655   5.583 135.035  0.00  0.00    +0.000 C 
ATOM     64  O   UNL     1      -4.516   5.666 135.952  0.00  0.00    +0.000 OA
ATOM     65  N   UNL     1      -2.354   6.810 134.626  0.00  0.00    +0.000 N 
ATOM     66  H   UNL     1      -2.367   6.276 133.723  0.00  0.00    +0.000 HD
BRANCH  65  67
ATOM     67  C   UNL     1      -1.372   8.599 134.639  0.00  0.00    +0.000 C 
ATOM     68  C   UNL     1      -1.495   8.262 133.284  0.00  0.00    +0.000 C 
ATOM     69  C   UNL     1      -1.943   9.551 134.050  0.00  0.00    +0.000 C 
ATOM     70  C   UNL     1      -1.285  10.181 132.997  0.00  0.00    +0.000 C 
ATOM     71  N   UNL     1      -1.753  11.560 133.797  0.00  0.00    +0.000 N 
ATOM     72  C   UNL     1      -1.956  11.972 135.338  0.00  0.00    +0.000 C 
ATOM     73  O   UNL     1      -1.650  13.082 135.802  0.00  0.00    +0.000 OA
ATOM     74  C   UNL     1      -0.471  11.676 133.605  0.00  0.00    +0.000 A 
ATOM     75  C   UNL     1      -0.173  12.324 132.027  0.00  0.00    +0.000 A 
ATOM     76  C   UNL     1       0.889  12.977 131.514  0.00  0.00    +0.000 A 
ATOM     77  C   UNL     1       1.474  13.179 132.676  0.00  0.00    +0.000 A 
ATOM     78  C   UNL     1       0.978  11.968 134.013  0.00  0.00    +0.000 A 
ATOM     79  C   UNL     1      -0.006  10.485 134.613  0.00  0.00    +0.000 A 
BRANCH  72  80
ATOM     80  C   UNL     1      -2.699  11.015 136.297  0.00  0.00    +0.000 A 
ATOM     81  C   UNL     1      -3.854  10.151 136.106  0.00  0.00    +0.000 A 
ATOM     82  C   UNL     1      -4.895  10.123 137.069  0.00  0.00    +0.000 A 
ATOM     83  C   UNL     1      -4.579  10.479 138.344  0.00  0.00    +0.000 A 
ATOM     84  C   UNL     1      -3.242  10.814 138.554  0.00  0.00    +0.000 A 
ATOM     85  C   UNL     1      -2.361  11.246 137.578  0.00  0.00    +0.000 A 
BRANCH  83  86
ATOM     86  N   UNL     1      -5.528  10.370 139.379  0.00  0.00    +0.000 N 
ATOM     87  C   UNL     1      -6.299  11.452 139.766  0.00  0.00    +0.000 C 
ATOM     88  O   UNL     1      -6.275  12.556 139.232  0.00  0.00    +0.000 OA
ATOM     89  H   UNL     1      -5.653   9.457 139.838  0.00  0.00    +0.000 HD
BRANCH  87  90
ATOM     90  C   UNL     1      -7.247  11.286 140.888  0.00  0.00    +0.000 A 
ATOM     91  C   UNL     1      -6.900  11.642 142.190  0.00  0.00    +0.000 A 
ATOM     92  C   UNL     1      -7.660  11.176 143.262  0.00  0.00    +0.000 A 
ATOM     93  C   UNL     1      -8.893  10.594 143.031  0.00  0.00    +0.000 A 
ATOM     94  C   UNL     1      -9.374  10.517 141.729  0.00  0.00    +0.000 A 
ATOM     95  C   UNL     1      -8.521  10.757 140.642  0.00  0.00    +0.000 A 
ATOM     96  C   UNL     1      -8.952  10.390 139.253  0.00  0.00    +0.000 C 
ENDBRANCH  87  90
ENDBRANCH  83  86
ENDBRANCH  72  80
ENDBRANCH  65  67
ENDBRANCH  62  63
ENDBRANCH  61  62
ENDBRANCH  58  61
ENDBRANCH  56  57
ENDBRANCH  53  56
ENDBRANCH  50  51
ENDBRANCH  49  50
ENDBRANCH   1  49
TORSDOF 30
ENDMDL
MODEL 7
REMARK VINA RESULT:      -9.2      3.430     12.965
REMARK  Name = CHEMBL2172292
REMARK  35 active torsions:
REMARK  status: ('A' for Active; 'I' for Inactive)
REMARK    1  A    between atoms: C_1  and  C_2
REMARK    2  A    between atoms: C_2  and  N_3
REMARK    3  A    between atoms: N_3  and  C_4
REMARK    4  A    between atoms: N_3  and  C_6
REMARK    5  A    between atoms: C_4  and  C_5
REMARK    6  A    between atoms: C_10  and  C_11
REMARK    7  A    between atoms: C_14  and  S_15
REMARK    8  A    between atoms: C_20  and  S_21
REMARK    9  A    between atoms: S_21  and  N_24
REMARK   10  A    between atoms: N_24  and  C_25
REMARK   11  A    between atoms: C_25  and  C_26
REMARK   12  A    between atoms: C_26  and  O_27
REMARK   13  A    between atoms: O_27  and  C_28
REMARK   14  A    between atoms: C_28  and  C_29
REMARK   15  A    between atoms: C_29  and  O_30
REMARK   16  A    between atoms: O_30  and  C_31
REMARK   17  A    between atoms: C_31  and  C_32
REMARK   18  A    between atoms: C_32  and  O_33
REMARK   19  A    between atoms: O_33  and  C_34
REMARK   20  A    between atoms: C_34  and  C_35
REMARK   21  A    between atoms: C_35  and  N_36
REMARK   22  A    between atoms: C_38  and  C_39
REMARK   23  A    between atoms: C_39  and  N_40
REMARK   24  A    between atoms: C_41  and  C_43
REMARK   25  A    between atoms: C_43  and  C_44
REMARK   26  A    between atoms: C_44  and  C_45
REMARK   27  A    between atoms: N_47  and  C_48
REMARK   28  A    between atoms: C_53  and  C_55
REMARK   29  A    between atoms: C_58  and  N_59
REMARK   30  A    between atoms: C_60  and  C_62
REMARK   31  A    between atoms: C_67  and  C_68
REMARK   32  A    between atoms: N_83  and  C_84
REMARK   33  A    between atoms: N_83  and  C_86
REMARK   34  A    between atoms: C_84  and  C_85
REMARK   35  A    between atoms: C_86  and  C_87
REMARK                            x       y       z     vdW  Elec       q    Type
REMARK                         _______ _______ _______ _____ _____    ______ ____
ROOT
ATOM      1  O   UNL     1      -7.196  -1.400 137.834  0.00  0.00    +0.000 OA
ENDROOT
BRANCH   1   2
ATOM      2  C   UNL     1      -5.839  -1.009 137.630  0.00  0.00    +0.000 C 
BRANCH   2   3
ATOM      3  C   UNL     1      -5.643  -0.589 136.191  0.00  0.00    +0.000 C 
BRANCH   3   4
ATOM      4  O   UNL     1      -4.252  -0.404 135.933  0.00  0.00    +0.000 OA
BRANCH   4   5
ATOM      5  C   UNL     1      -3.515  -0.676 137.119  0.00  0.00    +0.000 C 
BRANCH   5   6
ATOM      6  C   UNL     1      -2.224  -1.368 136.754  0.00  0.00    +0.000 C 
BRANCH   6   7
ATOM      7  O   UNL     1      -2.500  -2.398 135.812  0.00  0.00    +0.000 OA
BRANCH   7   8
ATOM      8  C   UNL     1      -1.492  -2.438 134.813  0.00  0.00    +0.000 C 
BRANCH   8   9
ATOM      9  C   UNL     1      -1.877  -1.513 133.667  0.00  0.00    +0.000 C 
BRANCH   9  10
ATOM     10  N   UNL     1      -2.627  -2.186 132.617  0.00  0.00    +0.000 NA
ATOM     11  H   UNL     1      -2.025  -2.576 131.889  0.00  0.00    +0.000 HD
BRANCH  10  12
ATOM     12  S   UNL     1      -3.992  -1.339 132.005  0.00  0.00    +0.000 S 
ATOM     13  O   UNL     1      -3.908  -1.560 130.584  0.00  0.00    +0.000 OA
ATOM     14  O   UNL     1      -3.926  -0.011 132.585  0.00  0.00    +0.000 OA
BRANCH  12  20
ATOM     15  C   UNL     1      -6.788  -1.774 132.201  0.00  0.00    +0.000 A 
ATOM     16  C   UNL     1      -7.908  -2.424 132.765  0.00  0.00    +0.000 A 
ATOM     17  C   UNL     1      -7.770  -3.242 133.888  0.00  0.00    +0.000 A 
ATOM     18  C   UNL     1      -6.497  -3.633 134.284  0.00  0.00    +0.000 A 
ATOM     19  C   UNL     1      -5.381  -3.171 133.561  0.00  0.00    +0.000 A 
ATOM     20  C   UNL     1      -5.503  -2.124 132.625  0.00  0.00    +0.000 A 
BRANCH  15  25
ATOM     21  C   UNL     1      -7.680  -1.519 127.091  0.00  0.00    +0.000 A 
ATOM     22  C   UNL     1      -7.329  -2.516 128.006  0.00  0.00    +0.000 A 
ATOM     23  C   UNL     1      -7.171  -2.257 129.350  0.00  0.00    +0.000 A 
ATOM     24  C   UNL     1      -7.328  -0.970 129.816  0.00  0.00    +0.000 A 
ATOM     25  C   UNL     1      -7.065  -0.710 131.228  0.00  0.00    +0.000 A 
ATOM     26  C   UNL     1      -7.197   0.559 131.637  0.00  0.00    +0.000 A 
ATOM     27  C   UNL     1      -7.100   0.919 133.038  0.00  0.00    +0.000 A 
ATOM     28  C   UNL     1      -7.403   2.118 133.518  0.00  0.00    +0.000 A 
ATOM     29  C   UNL     1      -7.791   3.190 132.601  0.00  0.00    +0.000 A 
ATOM     30  N   UNL     1      -8.028   4.388 133.036  0.00  0.00    +0.000 N 
ATOM     31  C   UNL     1      -7.864   2.748 131.196  0.00  0.00    +0.000 A 
ATOM     32  C   UNL     1      -7.643   1.548 130.718  0.00  0.00    +0.000 A 
ATOM     33  O   UNL     1      -7.917   1.308 129.382  0.00  0.00    +0.000 OA
ATOM     34  C   UNL     1      -7.710   0.040 128.941  0.00  0.00    +0.000 A 
ATOM     35  C   UNL     1      -7.874  -0.226 127.588  0.00  0.00    +0.000 A 
BRANCH  30  36
ATOM     36  C   UNL     1      -8.426   5.556 132.167  0.00  0.00    +0.000 C 
ATOM     37  C   UNL     1      -9.836   5.983 132.346  0.00  0.00    +0.000 C 
ENDBRANCH  30  36
BRANCH  30  38
ATOM     38  C   UNL     1      -7.858   4.668 134.517  0.00  0.00    +0.000 C 
ATOM     39  C   UNL     1      -6.639   5.503 134.784  0.00  0.00    +0.000 C 
ENDBRANCH  30  38
BRANCH  21  40
ATOM     40  N   UNL     1      -7.841  -1.817 125.733  0.00  0.00    +0.000 N 
BRANCH  40  42
ATOM     41  C   UNL     1      -6.877  -0.113 124.134  0.00  0.00    +0.000 C 
ATOM     42  C   UNL     1      -6.737  -1.438 124.828  0.00  0.00    +0.000 C 
ENDBRANCH  40  42
BRANCH  40  43
ATOM     43  C   UNL     1      -9.106  -2.448 125.318  0.00  0.00    +0.000 C 
ATOM     44  C   UNL     1      -9.045  -3.300 124.081  0.00  0.00    +0.000 C 
ENDBRANCH  40  43
ENDBRANCH  21  40
ENDBRANCH  15  25
BRANCH  18  45
ATOM     45  S   UNL     1      -6.299  -4.718 135.784  0.00  0.00    +0.000 S 
ATOM     46  O   UNL     1      -6.214  -6.052 135.197  0.00  0.00    +0.000 OA
ATOM     47  O   UNL     1      -5.064  -4.217 136.378  0.00  0.00    +0.000 OA
ATOM     48  O   UNL     1      -7.514  -4.449 136.546  0.00  0.00    +0.000 OA
ENDBRANCH  18  45
ENDBRANCH  12  20
ENDBRANCH  10  12
ENDBRANCH   9  10
ENDBRANCH   8   9
ENDBRANCH   7   8
ENDBRANCH   6   7
ENDBRANCH   5   6
ENDBRANCH   4   5
ENDBRANCH   3   4
ENDBRANCH   2   3
ENDBRANCH   1   2
BRANCH   1  49
ATOM     49  C   UNL     1      -7.397  -1.693 139.216  0.00  0.00    +0.000 C 
BRANCH  49  50
ATOM     50  C   UNL     1      -8.698  -1.088 139.688  0.00  0.00    +0.000 C 
BRANCH  50  51
ATOM     51  N   UNL     1      -8.488   0.070 140.527  0.00  0.00    +0.000 N 
ATOM     52  C   UNL     1      -7.303   0.663 140.811  0.00  0.00    +0.000 A 
ATOM     53  C   UNL     1      -7.604   1.710 141.647  0.00  0.00    +0.000 A 
ATOM     54  N   UNL     1      -8.967   1.707 141.855  0.00  0.00    +0.000 NA
ATOM     55  N   UNL     1      -9.495   0.698 141.162  0.00  0.00    +0.000 NA
BRANCH  53  56
ATOM     56  C   UNL     1      -6.663   2.709 142.254  0.00  0.00    +0.000 C 
BRANCH  56  57
ATOM     57  N   UNL     1      -6.921   4.094 141.757  0.00  0.00    +0.000 N 
ATOM     58  C   UNL     1      -6.205   4.651 140.691  0.00  0.00    +0.000 C 
ATOM     59  O   UNL     1      -5.332   3.988 140.133  0.00  0.00    +0.000 OA
ATOM     60  H   UNL     1      -7.642   4.619 142.228  0.00  0.00    +0.000 HD
BRANCH  58  61
ATOM     61  C   UNL     1      -6.531   6.146 140.208  0.00  0.00    +0.000 C 
BRANCH  61  62
ATOM     62  C   UNL     1      -6.827   6.380 138.445  0.00  0.00    +0.000 C 
BRANCH  62  63
ATOM     63  C   UNL     1      -6.372   8.053 137.552  0.00  0.00    +0.000 C 
ATOM     64  O   UNL     1      -7.499   8.615 137.563  0.00  0.00    +0.000 OA
ATOM     65  N   UNL     1      -4.782   8.772 136.986  0.00  0.00    +0.000 N 
ATOM     66  H   UNL     1      -4.526   7.755 136.946  0.00  0.00    +0.000 HD
BRANCH  65  67
ATOM     67  C   UNL     1      -3.526  10.088 136.060  0.00  0.00    +0.000 C 
ATOM     68  C   UNL     1      -3.341  10.312 137.432  0.00  0.00    +0.000 C 
ATOM     69  C   UNL     1      -2.301   9.961 136.316  0.00  0.00    +0.000 C 
ATOM     70  C   UNL     1      -1.616  11.037 136.873  0.00  0.00    +0.000 C 
ATOM     71  N   UNL     1      -0.502  10.678 135.696  0.00  0.00    +0.000 N 
ATOM     72  C   UNL     1      -0.573  10.112 134.192  0.00  0.00    +0.000 C 
ATOM     73  O   UNL     1       0.158  10.509 133.270  0.00  0.00    +0.000 OA
ATOM     74  C   UNL     1      -0.760  11.947 135.569  0.00  0.00    +0.000 A 
ATOM     75  C   UNL     1       0.232  12.856 136.660  0.00  0.00    +0.000 A 
ATOM     76  C   UNL     1       0.627  14.145 136.646  0.00  0.00    +0.000 A 
ATOM     77  C   UNL     1       0.234  14.375 135.412  0.00  0.00    +0.000 A 
ATOM     78  C   UNL     1      -1.112  13.227 134.801  0.00  0.00    +0.000 A 
ATOM     79  C   UNL     1      -2.297  11.792 135.056  0.00  0.00    +0.000 A 
BRANCH  72  80
ATOM     80  C   UNL     1      -1.489   8.911 133.866  0.00  0.00    +0.000 A 
ATOM     81  C   UNL     1      -1.470   7.526 134.311  0.00  0.00    +0.000 A 
ATOM     82  C   UNL     1      -1.637   6.471 133.377  0.00  0.00    +0.000 A 
ATOM     83  C   UNL     1      -2.304   6.753 132.226  0.00  0.00    +0.000 A 
ATOM     84  C   UNL     1      -2.767   8.063 132.111  0.00  0.00    +0.000 A 
ATOM     85  C   UNL     1      -2.253   9.157 132.787  0.00  0.00    +0.000 A 
BRANCH  83  86
ATOM     86  N   UNL     1      -2.607   5.736 131.300  0.00  0.00    +0.000 N 
ATOM     87  C   UNL     1      -3.895   5.250 131.160  0.00  0.00    +0.000 C 
ATOM     88  O   UNL     1      -4.874   5.676 131.763  0.00  0.00    +0.000 OA
ATOM     89  H   UNL     1      -1.849   5.366 130.709  0.00  0.00    +0.000 HD
BRANCH  87  90
ATOM     90  C   UNL     1      -4.141   4.151 130.201  0.00  0.00    +0.000 A 
ATOM     91  C   UNL     1      -4.283   2.832 130.630  0.00  0.00    +0.000 A 
ATOM     92  C   UNL     1      -4.177   1.790 129.710  0.00  0.00    +0.000 A 
ATOM     93  C   UNL     1      -4.202   2.062 128.355  0.00  0.00    +0.000 A 
ATOM     94  C   UNL     1      -4.370   3.375 127.928  0.00  0.00    +0.000 A 
ATOM     95  C   UNL     1      -4.232   4.437 128.833  0.00  0.00    +0.000 A 
ATOM     96  C   UNL     1      -4.118   5.845 128.327  0.00  0.00    +0.000 C 
ENDBRANCH  87  90
ENDBRANCH  83  86
ENDBRANCH  72  80
ENDBRANCH  65  67
ENDBRANCH  62  63
ENDBRANCH  61  62
ENDBRANCH  58  61
ENDBRANCH  56  57
ENDBRANCH  53  56
ENDBRANCH  50  51
ENDBRANCH  49  50
ENDBRANCH   1  49
TORSDOF 30
ENDMDL
MODEL 8
REMARK VINA RESULT:      -9.1      2.911     12.222
REMARK  Name = CHEMBL2172292
REMARK  35 active torsions:
REMARK  status: ('A' for Active; 'I' for Inactive)
REMARK    1  A    between atoms: C_1  and  C_2
REMARK    2  A    between atoms: C_2  and  N_3
REMARK    3  A    between atoms: N_3  and  C_4
REMARK    4  A    between atoms: N_3  and  C_6
REMARK    5  A    between atoms: C_4  and  C_5
REMARK    6  A    between atoms: C_10  and  C_11
REMARK    7  A    between atoms: C_14  and  S_15
REMARK    8  A    between atoms: C_20  and  S_21
REMARK    9  A    between atoms: S_21  and  N_24
REMARK   10  A    between atoms: N_24  and  C_25
REMARK   11  A    between atoms: C_25  and  C_26
REMARK   12  A    between atoms: C_26  and  O_27
REMARK   13  A    between atoms: O_27  and  C_28
REMARK   14  A    between atoms: C_28  and  C_29
REMARK   15  A    between atoms: C_29  and  O_30
REMARK   16  A    between atoms: O_30  and  C_31
REMARK   17  A    between atoms: C_31  and  C_32
REMARK   18  A    between atoms: C_32  and  O_33
REMARK   19  A    between atoms: O_33  and  C_34
REMARK   20  A    between atoms: C_34  and  C_35
REMARK   21  A    between atoms: C_35  and  N_36
REMARK   22  A    between atoms: C_38  and  C_39
REMARK   23  A    between atoms: C_39  and  N_40
REMARK   24  A    between atoms: C_41  and  C_43
REMARK   25  A    between atoms: C_43  and  C_44
REMARK   26  A    between atoms: C_44  and  C_45
REMARK   27  A    between atoms: N_47  and  C_48
REMARK   28  A    between atoms: C_53  and  C_55
REMARK   29  A    between atoms: C_58  and  N_59
REMARK   30  A    between atoms: C_60  and  C_62
REMARK   31  A    between atoms: C_67  and  C_68
REMARK   32  A    between atoms: N_83  and  C_84
REMARK   33  A    between atoms: N_83  and  C_86
REMARK   34  A    between atoms: C_84  and  C_85
REMARK   35  A    between atoms: C_86  and  C_87
REMARK                            x       y       z     vdW  Elec       q    Type
REMARK                         _______ _______ _______ _____ _____    ______ ____
ROOT
ATOM      1  O   UNL     1      -1.740   6.457 129.966  0.00  0.00    +0.000 OA
ENDROOT
BRANCH   1   2
ATOM      2  C   UNL     1      -2.275   6.288 128.654  0.00  0.00    +0.000 C 
BRANCH   2   3
ATOM      3  C   UNL     1      -3.558   7.077 128.525  0.00  0.00    +0.000 C 
BRANCH   3   4
ATOM      4  O   UNL     1      -4.517   6.311 127.798  0.00  0.00    +0.000 OA
BRANCH   4   5
ATOM      5  C   UNL     1      -3.858   5.237 127.139  0.00  0.00    +0.000 C 
BRANCH   5   6
ATOM      6  C   UNL     1      -4.860   4.476 126.305  0.00  0.00    +0.000 C 
BRANCH   6   7
ATOM      7  O   UNL     1      -4.776   3.092 126.627  0.00  0.00    +0.000 OA
BRANCH   7   8
ATOM      8  C   UNL     1      -3.594   2.826 127.368  0.00  0.00    +0.000 C 
BRANCH   8   9
ATOM      9  C   UNL     1      -3.949   2.034 128.620  0.00  0.00    +0.000 C 
BRANCH   9  10
ATOM     10  N   UNL     1      -5.357   2.124 128.972  0.00  0.00    +0.000 NA
ATOM     11  H   UNL     1      -5.939   2.448 128.196  0.00  0.00    +0.000 HD
BRANCH  10  12
ATOM     12  S   UNL     1      -5.712   2.889 130.469  0.00  0.00    +0.000 S 
ATOM     13  O   UNL     1      -5.109   4.189 130.328  0.00  0.00    +0.000 OA
ATOM     14  O   UNL     1      -5.299   1.955 131.500  0.00  0.00    +0.000 OA
BRANCH  12  20
ATOM     15  C   UNL     1      -8.432   2.098 130.302  0.00  0.00    +0.000 A 
ATOM     16  C   UNL     1      -9.813   2.365 130.423  0.00  0.00    +0.000 A 
ATOM     17  C   UNL     1     -10.275   3.666 130.631  0.00  0.00    +0.000 A 
ATOM     18  C   UNL     1      -9.365   4.653 130.992  0.00  0.00    +0.000 A 
ATOM     19  C   UNL     1      -8.003   4.321 131.109  0.00  0.00    +0.000 A 
ATOM     20  C   UNL     1      -7.507   3.097 130.617  0.00  0.00    +0.000 A 
BRANCH  15  25
ATOM     21  C   UNL     1      -7.085  -2.475 132.365  0.00  0.00    +0.000 A 
ATOM     22  C   UNL     1      -7.354  -1.190 132.847  0.00  0.00    +0.000 A 
ATOM     23  C   UNL     1      -7.708  -0.153 132.012  0.00  0.00    +0.000 A 
ATOM     24  C   UNL     1      -7.771  -0.366 130.652  0.00  0.00    +0.000 A 
ATOM     25  C   UNL     1      -8.059   0.774 129.788  0.00  0.00    +0.000 A 
ATOM     26  C   UNL     1      -8.080   0.534 128.470  0.00  0.00    +0.000 A 
ATOM     27  C   UNL     1      -8.491   1.549 127.519  0.00  0.00    +0.000 A 
ATOM     28  C   UNL     1      -8.708   1.314 126.232  0.00  0.00    +0.000 A 
ATOM     29  C   UNL     1      -8.456  -0.019 125.684  0.00  0.00    +0.000 A 
ATOM     30  N   UNL     1      -8.595  -0.258 124.418  0.00  0.00    +0.000 N 
ATOM     31  C   UNL     1      -8.039  -0.994 126.710  0.00  0.00    +0.000 A 
ATOM     32  C   UNL     1      -7.896  -0.794 127.997  0.00  0.00    +0.000 A 
ATOM     33  O   UNL     1      -7.644  -1.887 128.810  0.00  0.00    +0.000 OA
ATOM     34  C   UNL     1      -7.543  -1.638 130.142  0.00  0.00    +0.000 A 
ATOM     35  C   UNL     1      -7.191  -2.683 130.986  0.00  0.00    +0.000 A 
BRANCH  30  36
ATOM     36  C   UNL     1      -8.351  -1.596 123.763  0.00  0.00    +0.000 C 
ATOM     37  C   UNL     1      -7.047  -1.691 123.060  0.00  0.00    +0.000 C 
ENDBRANCH  30  36
BRANCH  30  38
ATOM     38  C   UNL     1      -8.991   0.886 123.504  0.00  0.00    +0.000 C 
ATOM     39  C   UNL     1     -10.116   0.494 122.589  0.00  0.00    +0.000 C 
ENDBRANCH  30  38
BRANCH  21  40
ATOM     40  N   UNL     1      -6.735  -3.509 133.241  0.00  0.00    +0.000 N 
BRANCH  40  42
ATOM     41  C   UNL     1      -8.445  -4.275 134.938  0.00  0.00    +0.000 C 
ATOM     42  C   UNL     1      -7.251  -3.421 134.623  0.00  0.00    +0.000 C 
ENDBRANCH  40  42
BRANCH  40  43
ATOM     43  C   UNL     1      -5.859  -4.574 132.724  0.00  0.00    +0.000 C 
ATOM     44  C   UNL     1      -4.385  -4.276 132.725  0.00  0.00    +0.000 C 
ENDBRANCH  40  43
ENDBRANCH  21  40
ENDBRANCH  15  25
BRANCH  18  45
ATOM     45  S   UNL     1      -9.966   6.394 131.267  0.00  0.00    +0.000 S 
ATOM     46  O   UNL     1      -8.842   7.193 130.790  0.00  0.00    +0.000 OA
ATOM     47  O   UNL     1     -11.167   6.450 130.440  0.00  0.00    +0.000 OA
ATOM     48  O   UNL     1     -10.197   6.437 132.707  0.00  0.00    +0.000 OA
ENDBRANCH  18  45
ENDBRANCH  12  20
ENDBRANCH  10  12
ENDBRANCH   9  10
ENDBRANCH   8   9
ENDBRANCH   7   8
ENDBRANCH   6   7
ENDBRANCH   5   6
ENDBRANCH   4   5
ENDBRANCH   3   4
ENDBRANCH   2   3
ENDBRANCH   1   2
BRANCH   1  49
ATOM     49  C   UNL     1      -2.734   7.040 130.808  0.00  0.00    +0.000 C 
BRANCH  49  50
ATOM     50  C   UNL     1      -2.213   7.155 132.221  0.00  0.00    +0.000 C 
BRANCH  50  51
ATOM     51  N   UNL     1      -2.914   6.280 133.133  0.00  0.00    +0.000 N 
ATOM     52  C   UNL     1      -3.007   4.930 133.053  0.00  0.00    +0.000 A 
ATOM     53  C   UNL     1      -3.774   4.549 134.128  0.00  0.00    +0.000 A 
ATOM     54  N   UNL     1      -4.134   5.687 134.817  0.00  0.00    +0.000 NA
ATOM     55  N   UNL     1      -3.599   6.740 134.197  0.00  0.00    +0.000 NA
BRANCH  53  56
ATOM     56  C   UNL     1      -4.178   3.160 134.529  0.00  0.00    +0.000 C 
BRANCH  56  57
ATOM     57  N   UNL     1      -3.409   2.675 135.714  0.00  0.00    +0.000 N 
ATOM     58  C   UNL     1      -3.913   2.754 137.017  0.00  0.00    +0.000 C 
ATOM     59  O   UNL     1      -5.028   3.236 137.208  0.00  0.00    +0.000 OA
ATOM     60  H   UNL     1      -2.497   2.283 135.534  0.00  0.00    +0.000 HD
BRANCH  58  61
ATOM     61  C   UNL     1      -3.033   2.217 138.246  0.00  0.00    +0.000 C 
BRANCH  61  62
ATOM     62  C   UNL     1      -1.931   3.408 139.032  0.00  0.00    +0.000 C 
BRANCH  62  63
ATOM     63  C   UNL     1      -2.157   5.327 138.767  0.00  0.00    +0.000 C 
ATOM     64  O   UNL     1      -3.159   5.529 139.504  0.00  0.00    +0.000 OA
ATOM     65  N   UNL     1      -1.165   6.589 137.879  0.00  0.00    +0.000 N 
ATOM     66  H   UNL     1      -0.879   5.740 137.333  0.00  0.00    +0.000 HD
BRANCH  65  67
ATOM     67  C   UNL     1      -0.696   8.411 137.086  0.00  0.00    +0.000 C 
ATOM     68  C   UNL     1      -0.123   7.476 136.213  0.00  0.00    +0.000 C 
ATOM     69  C   UNL     1      -1.129   8.641 135.928  0.00  0.00    +0.000 C 
ATOM     70  C   UNL     1      -0.218   8.933 134.917  0.00  0.00    +0.000 C 
ATOM     71  N   UNL     1      -1.274  10.175 134.601  0.00  0.00    +0.000 N 
ATOM     72  C   UNL     1      -2.231  11.114 135.490  0.00  0.00    +0.000 C 
ATOM     73  O   UNL     1      -2.408  12.323 135.271  0.00  0.00    +0.000 OA
ATOM     74  C   UNL     1      -0.100  10.724 134.711  0.00  0.00    +0.000 A 
ATOM     75  C   UNL     1       0.730  10.637 133.194  0.00  0.00    +0.000 A 
ATOM     76  C   UNL     1       1.744  11.365 132.686  0.00  0.00    +0.000 A 
ATOM     77  C   UNL     1       1.688  12.303 133.608  0.00  0.00    +0.000 A 
ATOM     78  C   UNL     1       0.912  11.757 135.221  0.00  0.00    +0.000 A 
ATOM     79  C   UNL     1       0.102  10.454 136.304  0.00  0.00    +0.000 A 
BRANCH  72  80
ATOM     80  C   UNL     1      -3.105  10.488 136.601  0.00  0.00    +0.000 A 
ATOM     81  C   UNL     1      -4.028   9.364 136.592  0.00  0.00    +0.000 A 
ATOM     82  C   UNL     1      -5.301   9.479 137.209  0.00  0.00    +0.000 A 
ATOM     83  C   UNL     1      -5.435  10.397 138.203  0.00  0.00    +0.000 A 
ATOM     84  C   UNL     1      -4.279  11.112 138.514  0.00  0.00    +0.000 A 
ATOM     85  C   UNL     1      -3.203  11.305 137.664  0.00  0.00    +0.000 A 
BRANCH  83  86
ATOM     86  N   UNL     1      -6.632  10.494 138.938  0.00  0.00    +0.000 N 
ATOM     87  C   UNL     1      -7.026  11.687 139.520  0.00  0.00    +0.000 C 
ATOM     88  O   UNL     1      -6.425  12.750 139.413  0.00  0.00    +0.000 OA
ATOM     89  H   UNL     1      -7.227   9.658 139.023  0.00  0.00    +0.000 HD
BRANCH  87  90
ATOM     90  C   UNL     1      -8.272  11.713 140.316  0.00  0.00    +0.000 A 
ATOM     91  C   UNL     1      -9.338  12.541 139.968  0.00  0.00    +0.000 A 
ATOM     92  C   UNL     1     -10.346  12.800 140.896  0.00  0.00    +0.000 A 
ATOM     93  C   UNL     1     -10.435  12.038 142.046  0.00  0.00    +0.000 A 
ATOM     94  C   UNL     1      -9.536  10.996 142.242  0.00  0.00    +0.000 A 
ATOM     95  C   UNL     1      -8.388  10.891 141.445  0.00  0.00    +0.000 A 
ATOM     96  C   UNL     1      -7.280   9.959 141.840  0.00  0.00    +0.000 C 
ENDBRANCH  87  90
ENDBRANCH  83  86
ENDBRANCH  72  80
ENDBRANCH  65  67
ENDBRANCH  62  63
ENDBRANCH  61  62
ENDBRANCH  58  61
ENDBRANCH  56  57
ENDBRANCH  53  56
ENDBRANCH  50  51
ENDBRANCH  49  50
ENDBRANCH   1  49
TORSDOF 30
ENDMDL
MODEL 9
REMARK VINA RESULT:      -9.1      3.428      6.995
REMARK  Name = CHEMBL2172292
REMARK  35 active torsions:
REMARK  status: ('A' for Active; 'I' for Inactive)
REMARK    1  A    between atoms: C_1  and  C_2
REMARK    2  A    between atoms: C_2  and  N_3
REMARK    3  A    between atoms: N_3  and  C_4
REMARK    4  A    between atoms: N_3  and  C_6
REMARK    5  A    between atoms: C_4  and  C_5
REMARK    6  A    between atoms: C_10  and  C_11
REMARK    7  A    between atoms: C_14  and  S_15
REMARK    8  A    between atoms: C_20  and  S_21
REMARK    9  A    between atoms: S_21  and  N_24
REMARK   10  A    between atoms: N_24  and  C_25
REMARK   11  A    between atoms: C_25  and  C_26
REMARK   12  A    between atoms: C_26  and  O_27
REMARK   13  A    between atoms: O_27  and  C_28
REMARK   14  A    between atoms: C_28  and  C_29
REMARK   15  A    between atoms: C_29  and  O_30
REMARK   16  A    between atoms: O_30  and  C_31
REMARK   17  A    between atoms: C_31  and  C_32
REMARK   18  A    between atoms: C_32  and  O_33
REMARK   19  A    between atoms: O_33  and  C_34
REMARK   20  A    between atoms: C_34  and  C_35
REMARK   21  A    between atoms: C_35  and  N_36
REMARK   22  A    between atoms: C_38  and  C_39
REMARK   23  A    between atoms: C_39  and  N_40
REMARK   24  A    between atoms: C_41  and  C_43
REMARK   25  A    between atoms: C_43  and  C_44
REMARK   26  A    between atoms: C_44  and  C_45
REMARK   27  A    between atoms: N_47  and  C_48
REMARK   28  A    between atoms: C_53  and  C_55
REMARK   29  A    between atoms: C_58  and  N_59
REMARK   30  A    between atoms: C_60  and  C_62
REMARK   31  A    between atoms: C_67  and  C_68
REMARK   32  A    between atoms: N_83  and  C_84
REMARK   33  A    between atoms: N_83  and  C_86
REMARK   34  A    between atoms: C_84  and  C_85
REMARK   35  A    between atoms: C_86  and  C_87
REMARK                            x       y       z     vdW  Elec       q    Type
REMARK                         _______ _______ _______ _____ _____    ______ ____
ROOT
ATOM      1  O   UNL     1      -2.421   3.832 128.027  0.00  0.00    +0.000 OA
ENDROOT
BRANCH   1   2
ATOM      2  C   UNL     1      -2.912   4.881 128.860  0.00  0.00    +0.000 C 
BRANCH   2   3
ATOM      3  C   UNL     1      -2.903   6.184 128.093  0.00  0.00    +0.000 C 
BRANCH   3   4
ATOM      4  O   UNL     1      -4.093   6.915 128.381  0.00  0.00    +0.000 OA
BRANCH   4   5
ATOM      5  C   UNL     1      -3.784   7.985 129.267  0.00  0.00    +0.000 C 
BRANCH   5   6
ATOM      6  C   UNL     1      -4.462   7.743 130.594  0.00  0.00    +0.000 C 
BRANCH   6   7
ATOM      7  O   UNL     1      -5.811   7.353 130.362  0.00  0.00    +0.000 OA
BRANCH   7   8
ATOM      8  C   UNL     1      -6.290   6.562 131.439  0.00  0.00    +0.000 C 
BRANCH   8   9
ATOM      9  C   UNL     1      -5.110   5.989 132.212  0.00  0.00    +0.000 C 
BRANCH   9  10
ATOM     10  N   UNL     1      -5.306   6.015 133.654  0.00  0.00    +0.000 NA
ATOM     11  H   UNL     1      -6.153   6.516 133.928  0.00  0.00    +0.000 HD
BRANCH  10  12
ATOM     12  S   UNL     1      -3.926   6.422 134.594  0.00  0.00    +0.000 S 
ATOM     13  O   UNL     1      -3.187   7.307 133.731  0.00  0.00    +0.000 OA
ATOM     14  O   UNL     1      -3.378   5.162 135.059  0.00  0.00    +0.000 OA
BRANCH  12  20
ATOM     15  C   UNL     1      -3.643   8.259 136.737  0.00  0.00    +0.000 A 
ATOM     16  C   UNL     1      -4.139   8.915 137.885  0.00  0.00    +0.000 A 
ATOM     17  C   UNL     1      -5.335   8.510 138.480  0.00  0.00    +0.000 A 
ATOM     18  C   UNL     1      -6.172   7.646 137.785  0.00  0.00    +0.000 A 
ATOM     19  C   UNL     1      -5.779   7.180 136.517  0.00  0.00    +0.000 A 
ATOM     20  C   UNL     1      -4.459   7.352 136.055  0.00  0.00    +0.000 A 
BRANCH  15  25
ATOM     21  C   UNL     1      -1.181  11.882 133.944  0.00  0.00    +0.000 A 
ATOM     22  C   UNL     1      -2.511  11.556 134.228  0.00  0.00    +0.000 A 
ATOM     23  C   UNL     1      -2.850  10.499 135.044  0.00  0.00    +0.000 A 
ATOM     24  C   UNL     1      -1.857   9.708 135.579  0.00  0.00    +0.000 A 
ATOM     25  C   UNL     1      -2.251   8.543 136.365  0.00  0.00    +0.000 A 
ATOM     26  C   UNL     1      -1.258   7.781 136.842  0.00  0.00    +0.000 A 
ATOM     27  C   UNL     1      -1.514   6.680 137.750  0.00  0.00    +0.000 A 
ATOM     28  C   UNL     1      -0.565   6.013 138.394  0.00  0.00    +0.000 A 
ATOM     29  C   UNL     1       0.841   6.329 138.143  0.00  0.00    +0.000 A 
ATOM     30  N   UNL     1       1.789   5.649 138.707  0.00  0.00    +0.000 N 
ATOM     31  C   UNL     1       1.021   7.455 137.208  0.00  0.00    +0.000 A 
ATOM     32  C   UNL     1       0.091   8.172 136.625  0.00  0.00    +0.000 A 
ATOM     33  O   UNL     1       0.476   9.288 135.900  0.00  0.00    +0.000 OA
ATOM     34  C   UNL     1      -0.523  10.023 135.347  0.00  0.00    +0.000 A 
ATOM     35  C   UNL     1      -0.185  11.091 134.527  0.00  0.00    +0.000 A 
BRANCH  30  36
ATOM     36  C   UNL     1       3.264   5.896 138.504  0.00  0.00    +0.000 C 
ATOM     37  C   UNL     1       3.870   5.061 137.435  0.00  0.00    +0.000 C 
ENDBRANCH  30  36
BRANCH  30  38
ATOM     38  C   UNL     1       1.411   4.491 139.611  0.00  0.00    +0.000 C 
ATOM     39  C   UNL     1       2.266   4.454 140.845  0.00  0.00    +0.000 C 
ENDBRANCH  30  38
BRANCH  21  40
ATOM     40  N   UNL     1      -0.870  12.966 133.117  0.00  0.00    +0.000 N 
BRANCH  40  42
ATOM     41  C   UNL     1      -2.350  14.861 133.899  0.00  0.00    +0.000 C 
ATOM     42  C   UNL     1      -1.966  13.907 132.804  0.00  0.00    +0.000 C 
ENDBRANCH  40  42
BRANCH  40  43
ATOM     43  C   UNL     1       0.507  13.059 132.601  0.00  0.00    +0.000 C 
ATOM     44  C   UNL     1       0.680  12.801 131.130  0.00  0.00    +0.000 C 
ENDBRANCH  40  43
ENDBRANCH  21  40
ENDBRANCH  15  25
BRANCH  18  45
ATOM     45  S   UNL     1      -7.769   7.093 138.569  0.00  0.00    +0.000 S 
ATOM     46  O   UNL     1      -8.451   6.432 137.460  0.00  0.00    +0.000 OA
ATOM     47  O   UNL     1      -7.310   6.209 139.635  0.00  0.00    +0.000 OA
ATOM     48  O   UNL     1      -8.368   8.348 139.012  0.00  0.00    +0.000 OA
ENDBRANCH  18  45
ENDBRANCH  12  20
ENDBRANCH  10  12
ENDBRANCH   9  10
ENDBRANCH   8   9
ENDBRANCH   7   8
ENDBRANCH   6   7
ENDBRANCH   5   6
ENDBRANCH   4   5
ENDBRANCH   3   4
ENDBRANCH   2   3
ENDBRANCH   1   2
BRANCH   1  49
ATOM     49  C   UNL     1      -2.856   4.054 126.686  0.00  0.00    +0.000 C 
BRANCH  49  50
ATOM     50  C   UNL     1      -3.891   3.024 126.301  0.00  0.00    +0.000 C 
BRANCH  50  51
ATOM     51  N   UNL     1      -5.206   3.358 126.799  0.00  0.00    +0.000 N 
ATOM     52  C   UNL     1      -6.026   2.559 127.525  0.00  0.00    +0.000 A 
ATOM     53  C   UNL     1      -7.158   3.304 127.755  0.00  0.00    +0.000 A 
ATOM     54  N   UNL     1      -6.991   4.529 127.145  0.00  0.00    +0.000 NA
ATOM     55  N   UNL     1      -5.790   4.548 126.564  0.00  0.00    +0.000 NA
BRANCH  53  56
ATOM     56  C   UNL     1      -8.384   2.909 128.524  0.00  0.00    +0.000 C 
BRANCH  56  57
ATOM     57  N   UNL     1      -8.378   3.466 129.910  0.00  0.00    +0.000 N 
ATOM     58  C   UNL     1      -9.556   3.808 130.584  0.00  0.00    +0.000 C 
ATOM     59  O   UNL     1     -10.642   3.649 130.029  0.00  0.00    +0.000 OA
ATOM     60  H   UNL     1      -7.477   3.587 130.347  0.00  0.00    +0.000 HD
BRANCH  58  61
ATOM     61  C   UNL     1      -9.478   4.405 132.072  0.00  0.00    +0.000 C 
BRANCH  61  62
ATOM     62  C   UNL     1      -9.122   3.232 133.394  0.00  0.00    +0.000 C 
BRANCH  62  63
ATOM     63  C   UNL     1      -7.290   2.837 133.934  0.00  0.00    +0.000 C 
ATOM     64  O   UNL     1      -7.025   3.887 134.578  0.00  0.00    +0.000 OA
ATOM     65  N   UNL     1      -6.233   1.347 133.763  0.00  0.00    +0.000 N 
ATOM     66  H   UNL     1      -6.872   1.190 132.946  0.00  0.00    +0.000 HD
BRANCH  65  67
ATOM     67  C   UNL     1      -4.542   0.207 133.859  0.00  0.00    +0.000 C 
ATOM     68  C   UNL     1      -4.883   0.466 135.195  0.00  0.00    +0.000 C 
ATOM     69  C   UNL     1      -4.647  -0.894 134.456  0.00  0.00    +0.000 C 
ATOM     70  C   UNL     1      -3.835  -1.140 135.560  0.00  0.00    +0.000 C 
ATOM     71  N   UNL     1      -3.575  -2.589 134.790  0.00  0.00    +0.000 N 
ATOM     72  C   UNL     1      -3.479  -3.066 133.257  0.00  0.00    +0.000 C 
ATOM     73  O   UNL     1      -2.674  -3.918 132.848  0.00  0.00    +0.000 OA
ATOM     74  C   UNL     1      -2.395  -2.102 135.044  0.00  0.00    +0.000 A 
ATOM     75  C   UNL     1      -1.924  -2.523 136.656  0.00  0.00    +0.000 A 
ATOM     76  C   UNL     1      -0.711  -2.611 137.240  0.00  0.00    +0.000 A 
ATOM     77  C   UNL     1      -0.033  -2.535 136.114  0.00  0.00    +0.000 A 
ATOM     78  C   UNL     1      -0.952  -1.702 134.712  0.00  0.00    +0.000 A 
ATOM     79  C   UNL     1      -2.469  -0.842 134.016  0.00  0.00    +0.000 A 
BRANCH  72  80
ATOM     80  C   UNL     1      -4.522  -2.567 132.231  0.00  0.00    +0.000 A 
ATOM     81  C   UNL     1      -5.942  -2.840 132.080  0.00  0.00    +0.000 A 
ATOM     82  C   UNL     1      -6.482  -3.138 130.802  0.00  0.00    +0.000 A 
ATOM     83  C   UNL     1      -5.810  -2.673 129.714  0.00  0.00    +0.000 A 
ATOM     84  C   UNL     1      -4.664  -1.931 129.995  0.00  0.00    +0.000 A 
ATOM     85  C   UNL     1      -3.928  -2.004 131.165  0.00  0.00    +0.000 A 
BRANCH  83  86
ATOM     86  N   UNL     1      -6.339  -2.831 128.418  0.00  0.00    +0.000 N 
ATOM     87  C   UNL     1      -7.125  -1.852 127.836  0.00  0.00    +0.000 C 
ATOM     88  O   UNL     1      -7.385  -0.768 128.347  0.00  0.00    +0.000 OA
ATOM     89  H   UNL     1      -6.114  -3.691 127.896  0.00  0.00    +0.000 HD
BRANCH  87  90
ATOM     90  C   UNL     1      -7.686  -2.096 126.490  0.00  0.00    +0.000 A 
ATOM     91  C   UNL     1      -8.955  -2.647 126.322  0.00  0.00    +0.000 A 
ATOM     92  C   UNL     1      -9.324  -3.173 125.084  0.00  0.00    +0.000 A 
ATOM     93  C   UNL     1      -8.550  -2.912 123.967  0.00  0.00    +0.000 A 
ATOM     94  C   UNL     1      -7.433  -2.095 124.091  0.00  0.00    +0.000 A 
ATOM     95  C   UNL     1      -6.928  -1.770 125.358  0.00  0.00    +0.000 A 
ATOM     96  C   UNL     1      -5.570  -1.146 125.488  0.00  0.00    +0.000 C 
ENDBRANCH  87  90
ENDBRANCH  83  86
ENDBRANCH  72  80
ENDBRANCH  65  67
ENDBRANCH  62  63
ENDBRANCH  61  62
ENDBRANCH  58  61
ENDBRANCH  56  57
ENDBRANCH  53  56
ENDBRANCH  50  51
ENDBRANCH  49  50
ENDBRANCH   1  49
TORSDOF 30
ENDMDL
