MODEL 1
REMARK VINA RESULT:      -8.2      0.000      0.000
REMARK  Name = CHEMBL447916
REMARK  6 active torsions:
REMARK  status: ('A' for Active; 'I' for Inactive)
REMARK    1  A    between atoms: C_2  and  C_3
REMARK    2  A    between atoms: C_6  and  C_7
REMARK    3  A    between atoms: N_15  and  C_16
REMARK    4  A    between atoms: N_15  and  C_20
REMARK    5  A    between atoms: C_16  and  C_17
REMARK    6  A    between atoms: C_20  and  C_21
REMARK                            x       y       z     vdW  Elec       q    Type
REMARK                         _______ _______ _______ _____ _____    ______ ____
ROOT
ATOM      1  O   UNL     1      -9.296   1.635 125.798  0.00  0.00    +0.000 OA
ATOM      2  C   UNL     1      -8.902   0.912 124.871  0.00  0.00    +0.000 C 
ATOM      3  N   UNL     1      -8.921  -0.487 124.855  0.00  0.00    +0.000 N 
ENDROOT
BRANCH   2   4
ATOM      4  C   UNL     1      -8.372   1.697 123.763  0.00  0.00    +0.000 A 
ATOM      5  C   UNL     1      -7.053   2.154 123.836  0.00  0.00    +0.000 A 
ATOM      6  C   UNL     1      -6.572   2.988 122.843  0.00  0.00    +0.000 A 
ATOM      7  C   UNL     1      -7.428   3.341 121.805  0.00  0.00    +0.000 A 
ATOM      8  N   UNL     1      -8.726   2.952 121.746  0.00  0.00    +0.000 NA
ATOM      9  C   UNL     1      -9.175   2.169 122.744  0.00  0.00    +0.000 A 
BRANCH   7  10
ATOM     10  C   UNL     1      -6.965   4.117 120.665  0.00  0.00    +0.000 A 
ATOM     11  C   UNL     1      -7.751   4.237 119.511  0.00  0.00    +0.000 A 
ATOM     12  C   UNL     1      -7.246   4.877 118.382  0.00  0.00    +0.000 A 
ATOM     13  C   UNL     1      -5.980   5.460 118.421  0.00  0.00    +0.000 A 
ATOM     14  C   UNL     1      -5.203   5.376 119.574  0.00  0.00    +0.000 A 
ATOM     15  C   UNL     1      -5.690   4.701 120.687  0.00  0.00    +0.000 A 
ENDBRANCH   7  10
ENDBRANCH   2   4
BRANCH   3  16
ATOM     16  C   UNL     1      -9.205  -1.234 126.092  0.00  0.00    +0.000 C 
BRANCH  16  17
ATOM     17  C   UNL     1      -8.336  -2.345 126.564  0.00  0.00    +0.000 C 
ATOM     18  C   UNL     1      -8.951  -3.514 127.299  0.00  0.00    +0.000 C 
ATOM     19  C   UNL     1      -8.426  -3.689 125.901  0.00  0.00    +0.000 C 
ENDBRANCH  16  17
ENDBRANCH   3  16
BRANCH   3  20
ATOM     20  C   UNL     1      -8.412  -1.258 123.673  0.00  0.00    +0.000 C 
BRANCH  20  21
ATOM     21  C   UNL     1      -6.913  -1.270 123.319  0.00  0.00    +0.000 C 
ATOM     22  C   UNL     1      -6.435  -2.485 122.549  0.00  0.00    +0.000 C 
ATOM     23  C   UNL     1      -5.161  -2.876 123.259  0.00  0.00    +0.000 C 
ATOM     24  C   UNL     1      -5.167  -2.151 124.589  0.00  0.00    +0.000 C 
ATOM     25  O   UNL     1      -6.133  -1.108 124.509  0.00  0.00    +0.000 OA
ENDBRANCH  20  21
ENDBRANCH   3  20
TORSDOF 6
ENDMDL
MODEL 2
REMARK VINA RESULT:      -8.1      1.579      2.300
REMARK  Name = CHEMBL447916
REMARK  6 active torsions:
REMARK  status: ('A' for Active; 'I' for Inactive)
REMARK    1  A    between atoms: C_2  and  C_3
REMARK    2  A    between atoms: C_6  and  C_7
REMARK    3  A    between atoms: N_15  and  C_16
REMARK    4  A    between atoms: N_15  and  C_20
REMARK    5  A    between atoms: C_16  and  C_17
REMARK    6  A    between atoms: C_20  and  C_21
REMARK                            x       y       z     vdW  Elec       q    Type
REMARK                         _______ _______ _______ _____ _____    ______ ____
ROOT
ATOM      1  O   UNL     1      -8.978   1.783 126.942  0.00  0.00    +0.000 OA
ATOM      2  C   UNL     1      -8.138   1.150 126.286  0.00  0.00    +0.000 C 
ATOM      3  N   UNL     1      -7.551  -0.065 126.655  0.00  0.00    +0.000 N 
ENDROOT
BRANCH   2   4
ATOM      4  C   UNL     1      -7.789   1.840 125.049  0.00  0.00    +0.000 A 
ATOM      5  C   UNL     1      -8.623   1.685 123.939  0.00  0.00    +0.000 A 
ATOM      6  C   UNL     1      -8.249   2.245 122.730  0.00  0.00    +0.000 A 
ATOM      7  C   UNL     1      -7.048   2.945 122.671  0.00  0.00    +0.000 A 
ATOM      8  N   UNL     1      -6.201   3.059 123.723  0.00  0.00    +0.000 NA
ATOM      9  C   UNL     1      -6.576   2.475 124.876  0.00  0.00    +0.000 A 
BRANCH   7  10
ATOM     10  C   UNL     1      -6.642   3.661 121.472  0.00  0.00    +0.000 A 
ATOM     11  C   UNL     1      -5.369   4.241 121.379  0.00  0.00    +0.000 A 
ATOM     12  C   UNL     1      -5.037   5.028 120.279  0.00  0.00    +0.000 A 
ATOM     13  C   UNL     1      -5.947   5.184 119.235  0.00  0.00    +0.000 A 
ATOM     14  C   UNL     1      -7.203   4.584 119.301  0.00  0.00    +0.000 A 
ATOM     15  C   UNL     1      -7.551   3.833 120.417  0.00  0.00    +0.000 A 
ENDBRANCH   7  10
ENDBRANCH   2   4
BRANCH   3  16
ATOM     16  C   UNL     1      -7.724  -0.580 128.024  0.00  0.00    +0.000 C 
BRANCH  16  17
ATOM     17  C   UNL     1      -7.364  -1.974 128.398  0.00  0.00    +0.000 C 
ATOM     18  C   UNL     1      -8.096  -2.658 129.530  0.00  0.00    +0.000 C 
ATOM     19  C   UNL     1      -8.325  -3.091 128.108  0.00  0.00    +0.000 C 
ENDBRANCH  16  17
ENDBRANCH   3  16
BRANCH   3  20
ATOM     20  C   UNL     1      -6.540  -0.740 125.776  0.00  0.00    +0.000 C 
BRANCH  20  21
ATOM     21  C   UNL     1      -6.963  -1.834 124.778  0.00  0.00    +0.000 C 
ATOM     22  C   UNL     1      -6.497  -1.628 123.349  0.00  0.00    +0.000 C 
ATOM     23  C   UNL     1      -7.729  -1.924 122.529  0.00  0.00    +0.000 C 
ATOM     24  C   UNL     1      -8.903  -1.899 123.486  0.00  0.00    +0.000 C 
ATOM     25  O   UNL     1      -8.385  -1.996 124.808  0.00  0.00    +0.000 OA
ENDBRANCH  20  21
ENDBRANCH   3  20
TORSDOF 6
ENDMDL
MODEL 3
REMARK VINA RESULT:      -7.6      2.093      2.892
REMARK  Name = CHEMBL447916
REMARK  6 active torsions:
REMARK  status: ('A' for Active; 'I' for Inactive)
REMARK    1  A    between atoms: C_2  and  C_3
REMARK    2  A    between atoms: C_6  and  C_7
REMARK    3  A    between atoms: N_15  and  C_16
REMARK    4  A    between atoms: N_15  and  C_20
REMARK    5  A    between atoms: C_16  and  C_17
REMARK    6  A    between atoms: C_20  and  C_21
REMARK                            x       y       z     vdW  Elec       q    Type
REMARK                         _______ _______ _______ _____ _____    ______ ____
ROOT
ATOM      1  O   UNL     1      -8.291   2.678 127.298  0.00  0.00    +0.000 OA
ATOM      2  C   UNL     1      -8.072   1.729 126.531  0.00  0.00    +0.000 C 
ATOM      3  N   UNL     1      -7.938   0.386 126.901  0.00  0.00    +0.000 N 
ENDROOT
BRANCH   2   4
ATOM      4  C   UNL     1      -7.941   2.173 125.148  0.00  0.00    +0.000 A 
ATOM      5  C   UNL     1      -6.695   2.625 124.706  0.00  0.00    +0.000 A 
ATOM      6  C   UNL     1      -6.581   3.148 123.430  0.00  0.00    +0.000 A 
ATOM      7  C   UNL     1      -7.721   3.204 122.635  0.00  0.00    +0.000 A 
ATOM      8  N   UNL     1      -8.949   2.821 123.066  0.00  0.00    +0.000 NA
ATOM      9  C   UNL     1      -9.034   2.347 124.323  0.00  0.00    +0.000 A 
BRANCH   7  10
ATOM     10  C   UNL     1      -7.662   3.630 121.246  0.00  0.00    +0.000 A 
ATOM     11  C   UNL     1      -6.436   3.939 120.640  0.00  0.00    +0.000 A 
ATOM     12  C   UNL     1      -6.403   4.464 119.352  0.00  0.00    +0.000 A 
ATOM     13  C   UNL     1      -7.588   4.621 118.634  0.00  0.00    +0.000 A 
ATOM     14  C   UNL     1      -8.810   4.286 119.213  0.00  0.00    +0.000 A 
ATOM     15  C   UNL     1      -8.847   3.801 120.515  0.00  0.00    +0.000 A 
ENDBRANCH   7  10
ENDBRANCH   2   4
BRANCH   3  16
ATOM     16  C   UNL     1      -7.805   0.024 128.322  0.00  0.00    +0.000 C 
BRANCH  16  17
ATOM     17  C   UNL     1      -6.518   0.157 129.056  0.00  0.00    +0.000 C 
ATOM     18  C   UNL     1      -5.369  -0.769 128.726  0.00  0.00    +0.000 C 
ATOM     19  C   UNL     1      -5.307   0.683 128.340  0.00  0.00    +0.000 C 
ENDBRANCH  16  17
ENDBRANCH   3  16
BRANCH   3  20
ATOM     20  C   UNL     1      -7.672  -0.680 125.879  0.00  0.00    +0.000 C 
BRANCH  20  21
ATOM     21  C   UNL     1      -8.799  -1.612 125.395  0.00  0.00    +0.000 C 
ATOM     22  C   UNL     1      -8.477  -3.094 125.426  0.00  0.00    +0.000 C 
ATOM     23  C   UNL     1      -8.967  -3.592 124.088  0.00  0.00    +0.000 C 
ATOM     24  C   UNL     1      -9.176  -2.367 123.221  0.00  0.00    +0.000 C 
ATOM     25  O   UNL     1      -9.213  -1.231 124.078  0.00  0.00    +0.000 OA
ENDBRANCH  20  21
ENDBRANCH   3  20
TORSDOF 6
ENDMDL
MODEL 4
REMARK VINA RESULT:      -7.6      7.869      9.569
REMARK  Name = CHEMBL447916
REMARK  6 active torsions:
REMARK  status: ('A' for Active; 'I' for Inactive)
REMARK    1  A    between atoms: C_2  and  C_3
REMARK    2  A    between atoms: C_6  and  C_7
REMARK    3  A    between atoms: N_15  and  C_16
REMARK    4  A    between atoms: N_15  and  C_20
REMARK    5  A    between atoms: C_16  and  C_17
REMARK    6  A    between atoms: C_20  and  C_21
REMARK                            x       y       z     vdW  Elec       q    Type
REMARK                         _______ _______ _______ _____ _____    ______ ____
ROOT
ATOM      1  O   UNL     1      -6.044   3.731 131.712  0.00  0.00    +0.000 OA
ATOM      2  C   UNL     1      -5.834   4.552 130.807  0.00  0.00    +0.000 C 
ATOM      3  N   UNL     1      -4.589   4.862 130.250  0.00  0.00    +0.000 N 
ENDROOT
BRANCH   2   4
ATOM      4  C   UNL     1      -7.064   5.208 130.380  0.00  0.00    +0.000 A 
ATOM      5  C   UNL     1      -7.557   6.269 131.144  0.00  0.00    +0.000 A 
ATOM      6  C   UNL     1      -8.777   6.831 130.811  0.00  0.00    +0.000 A 
ATOM      7  C   UNL     1      -9.468   6.311 129.721  0.00  0.00    +0.000 A 
ATOM      8  N   UNL     1      -9.032   5.247 129.002  0.00  0.00    +0.000 NA
ATOM      9  C   UNL     1      -7.858   4.701 129.371  0.00  0.00    +0.000 A 
BRANCH   7  10
ATOM     10  C   UNL     1     -10.697   6.919 129.237  0.00  0.00    +0.000 A 
ATOM     11  C   UNL     1     -10.679   8.168 128.601  0.00  0.00    +0.000 A 
ATOM     12  C   UNL     1     -11.873   8.795 128.254  0.00  0.00    +0.000 A 
ATOM     13  C   UNL     1     -13.088   8.149 128.477  0.00  0.00    +0.000 A 
ATOM     14  C   UNL     1     -13.117   6.893 129.078  0.00  0.00    +0.000 A 
ATOM     15  C   UNL     1     -11.928   6.285 129.463  0.00  0.00    +0.000 A 
ENDBRANCH   7  10
ENDBRANCH   2   4
BRANCH   3  16
ATOM     16  C   UNL     1      -3.354   4.383 130.894  0.00  0.00    +0.000 C 
BRANCH  16  17
ATOM     17  C   UNL     1      -2.744   5.082 132.056  0.00  0.00    +0.000 C 
ATOM     18  C   UNL     1      -1.449   4.568 132.643  0.00  0.00    +0.000 C 
ATOM     19  C   UNL     1      -1.471   5.857 131.870  0.00  0.00    +0.000 C 
ENDBRANCH  16  17
ENDBRANCH   3  16
BRANCH   3  20
ATOM     20  C   UNL     1      -4.458   5.880 129.155  0.00  0.00    +0.000 C 
BRANCH  20  21
ATOM     21  C   UNL     1      -4.017   5.467 127.738  0.00  0.00    +0.000 C 
ATOM     22  C   UNL     1      -4.730   4.260 127.160  0.00  0.00    +0.000 C 
ATOM     23  C   UNL     1      -3.611   3.434 126.574  0.00  0.00    +0.000 C 
ATOM     24  C   UNL     1      -2.322   3.973 127.162  0.00  0.00    +0.000 C 
ATOM     25  O   UNL     1      -2.601   5.256 127.712  0.00  0.00    +0.000 OA
ENDBRANCH  20  21
ENDBRANCH   3  20
TORSDOF 6
ENDMDL
MODEL 5
REMARK VINA RESULT:      -7.6      2.001      7.867
REMARK  Name = CHEMBL447916
REMARK  6 active torsions:
REMARK  status: ('A' for Active; 'I' for Inactive)
REMARK    1  A    between atoms: C_2  and  C_3
REMARK    2  A    between atoms: C_6  and  C_7
REMARK    3  A    between atoms: N_15  and  C_16
REMARK    4  A    between atoms: N_15  and  C_20
REMARK    5  A    between atoms: C_16  and  C_17
REMARK    6  A    between atoms: C_20  and  C_21
REMARK                            x       y       z     vdW  Elec       q    Type
REMARK                         _______ _______ _______ _____ _____    ______ ____
ROOT
ATOM      1  O   UNL     1      -9.756   2.055 121.917  0.00  0.00    +0.000 OA
ATOM      2  C   UNL     1      -8.702   2.135 122.564  0.00  0.00    +0.000 C 
ATOM      3  N   UNL     1      -7.659   3.038 122.327  0.00  0.00    +0.000 N 
ENDROOT
BRANCH   2   4
ATOM      4  C   UNL     1      -8.644   1.139 123.627  0.00  0.00    +0.000 A 
ATOM      5  C   UNL     1      -9.326   1.393 124.820  0.00  0.00    +0.000 A 
ATOM      6  C   UNL     1      -9.193   0.507 125.875  0.00  0.00    +0.000 A 
ATOM      7  C   UNL     1      -8.378  -0.607 125.702  0.00  0.00    +0.000 A 
ATOM      8  N   UNL     1      -7.666  -0.840 124.572  0.00  0.00    +0.000 NA
ATOM      9  C   UNL     1      -7.790   0.056 123.576  0.00  0.00    +0.000 A 
BRANCH   7  10
ATOM     10  C   UNL     1      -8.278  -1.642 126.718  0.00  0.00    +0.000 A 
ATOM     11  C   UNL     1      -8.909  -2.882 126.545  0.00  0.00    +0.000 A 
ATOM     12  C   UNL     1      -8.910  -3.818 127.576  0.00  0.00    +0.000 A 
ATOM     13  C   UNL     1      -8.224  -3.550 128.760  0.00  0.00    +0.000 A 
ATOM     14  C   UNL     1      -7.565  -2.334 128.931  0.00  0.00    +0.000 A 
ATOM     15  C   UNL     1      -7.599  -1.383 127.918  0.00  0.00    +0.000 A 
ENDBRANCH   7  10
ENDBRANCH   2   4
BRANCH   3  16
ATOM     16  C   UNL     1      -7.640   3.831 121.086  0.00  0.00    +0.000 C 
BRANCH  16  17
ATOM     17  C   UNL     1      -6.484   3.811 120.150  0.00  0.00    +0.000 C 
ATOM     18  C   UNL     1      -6.388   4.853 119.059  0.00  0.00    +0.000 C 
ATOM     19  C   UNL     1      -5.446   4.894 120.230  0.00  0.00    +0.000 C 
ENDBRANCH  16  17
ENDBRANCH   3  16
BRANCH   3  20
ATOM     20  C   UNL     1      -6.424   3.040 123.179  0.00  0.00    +0.000 C 
BRANCH  20  21
ATOM     21  C   UNL     1      -6.208   4.119 124.257  0.00  0.00    +0.000 C 
ATOM     22  C   UNL     1      -5.113   3.824 125.263  0.00  0.00    +0.000 C 
ATOM     23  C   UNL     1      -5.748   4.169 126.589  0.00  0.00    +0.000 C 
ATOM     24  C   UNL     1      -7.240   4.263 126.343  0.00  0.00    +0.000 C 
ATOM     25  O   UNL     1      -7.440   4.379 124.938  0.00  0.00    +0.000 OA
ENDBRANCH  20  21
ENDBRANCH   3  20
TORSDOF 6
ENDMDL
MODEL 6
REMARK VINA RESULT:      -7.5      8.761     10.367
REMARK  Name = CHEMBL447916
REMARK  6 active torsions:
REMARK  status: ('A' for Active; 'I' for Inactive)
REMARK    1  A    between atoms: C_2  and  C_3
REMARK    2  A    between atoms: C_6  and  C_7
REMARK    3  A    between atoms: N_15  and  C_16
REMARK    4  A    between atoms: N_15  and  C_20
REMARK    5  A    between atoms: C_16  and  C_17
REMARK    6  A    between atoms: C_20  and  C_21
REMARK                            x       y       z     vdW  Elec       q    Type
REMARK                         _______ _______ _______ _____ _____    ______ ____
ROOT
ATOM      1  O   UNL     1      -6.501   6.050 134.195  0.00  0.00    +0.000 OA
ATOM      2  C   UNL     1      -6.701   5.401 133.158  0.00  0.00    +0.000 C 
ATOM      3  N   UNL     1      -6.010   4.251 132.761  0.00  0.00    +0.000 N 
ENDROOT
BRANCH   2   4
ATOM      4  C   UNL     1      -7.757   5.994 132.346  0.00  0.00    +0.000 A 
ATOM      5  C   UNL     1      -9.088   5.744 132.693  0.00  0.00    +0.000 A 
ATOM      6  C   UNL     1     -10.099   6.212 131.872  0.00  0.00    +0.000 A 
ATOM      7  C   UNL     1      -9.745   6.916 130.726  0.00  0.00    +0.000 A 
ATOM      8  N   UNL     1      -8.460   7.120 130.344  0.00  0.00    +0.000 NA
ATOM      9  C   UNL     1      -7.499   6.625 131.146  0.00  0.00    +0.000 A 
BRANCH   7  10
ATOM     10  C   UNL     1     -10.746   7.539 129.874  0.00  0.00    +0.000 A 
ATOM     11  C   UNL     1     -12.067   7.696 130.315  0.00  0.00    +0.000 A 
ATOM     12  C   UNL     1     -13.043   8.179 129.447  0.00  0.00    +0.000 A 
ATOM     13  C   UNL     1     -12.692   8.573 128.157  0.00  0.00    +0.000 A 
ATOM     14  C   UNL     1     -11.376   8.454 127.718  0.00  0.00    +0.000 A 
ATOM     15  C   UNL     1     -10.409   7.932 128.570  0.00  0.00    +0.000 A 
ENDBRANCH   7  10
ENDBRANCH   2   4
BRANCH   3  16
ATOM     16  C   UNL     1      -4.781   3.850 133.466  0.00  0.00    +0.000 C 
BRANCH  16  17
ATOM     17  C   UNL     1      -3.486   4.553 133.263  0.00  0.00    +0.000 C 
ATOM     18  C   UNL     1      -2.248   3.756 132.921  0.00  0.00    +0.000 C 
ATOM     19  C   UNL     1      -2.894   4.633 131.885  0.00  0.00    +0.000 C 
ENDBRANCH  16  17
ENDBRANCH   3  16
BRANCH   3  20
ATOM     20  C   UNL     1      -6.342   3.548 131.477  0.00  0.00    +0.000 C 
BRANCH  20  21
ATOM     21  C   UNL     1      -7.410   2.440 131.433  0.00  0.00    +0.000 C 
ATOM     22  C   UNL     1      -8.598   2.714 130.532  0.00  0.00    +0.000 C 
ATOM     23  C   UNL     1      -9.784   2.323 131.380  0.00  0.00    +0.000 C 
ATOM     24  C   UNL     1      -9.283   2.223 132.806  0.00  0.00    +0.000 C 
ATOM     25  O   UNL     1      -7.862   2.148 132.761  0.00  0.00    +0.000 OA
ENDBRANCH  20  21
ENDBRANCH   3  20
TORSDOF 6
ENDMDL
MODEL 7
REMARK VINA RESULT:      -7.5      5.208      8.591
REMARK  Name = CHEMBL447916
REMARK  6 active torsions:
REMARK  status: ('A' for Active; 'I' for Inactive)
REMARK    1  A    between atoms: C_2  and  C_3
REMARK    2  A    between atoms: C_6  and  C_7
REMARK    3  A    between atoms: N_15  and  C_16
REMARK    4  A    between atoms: N_15  and  C_20
REMARK    5  A    between atoms: C_16  and  C_17
REMARK    6  A    between atoms: C_20  and  C_21
REMARK                            x       y       z     vdW  Elec       q    Type
REMARK                         _______ _______ _______ _____ _____    ______ ____
ROOT
ATOM      1  O   UNL     1      -6.379  -4.009 131.135  0.00  0.00    +0.000 OA
ATOM      2  C   UNL     1      -6.976  -2.957 130.863  0.00  0.00    +0.000 C 
ATOM      3  N   UNL     1      -7.366  -1.973 131.777  0.00  0.00    +0.000 N 
ENDROOT
BRANCH   2   4
ATOM      4  C   UNL     1      -7.264  -2.854 129.437  0.00  0.00    +0.000 A 
ATOM      5  C   UNL     1      -8.427  -3.452 128.944  0.00  0.00    +0.000 A 
ATOM      6  C   UNL     1      -8.659  -3.454 127.580  0.00  0.00    +0.000 A 
ATOM      7  C   UNL     1      -7.716  -2.858 126.749  0.00  0.00    +0.000 A 
ATOM      8  N   UNL     1      -6.556  -2.322 127.204  0.00  0.00    +0.000 NA
ATOM      9  C   UNL     1      -6.343  -2.364 128.532  0.00  0.00    +0.000 A 
BRANCH   7  10
ATOM     10  C   UNL     1      -7.941  -2.716 125.320  0.00  0.00    +0.000 A 
ATOM     11  C   UNL     1      -6.996  -2.080 124.503  0.00  0.00    +0.000 A 
ATOM     12  C   UNL     1      -7.277  -1.840 123.161  0.00  0.00    +0.000 A 
ATOM     13  C   UNL     1      -8.474  -2.294 122.609  0.00  0.00    +0.000 A 
ATOM     14  C   UNL     1      -9.407  -2.958 123.403  0.00  0.00    +0.000 A 
ATOM     15  C   UNL     1      -9.145  -3.160 124.753  0.00  0.00    +0.000 A 
ENDBRANCH   7  10
ENDBRANCH   2   4
BRANCH   3  16
ATOM     16  C   UNL     1      -7.300  -2.244 133.223  0.00  0.00    +0.000 C 
BRANCH  16  17
ATOM     17  C   UNL     1      -8.177  -3.249 133.881  0.00  0.00    +0.000 C 
ATOM     18  C   UNL     1      -7.556  -4.416 134.615  0.00  0.00    +0.000 C 
ATOM     19  C   UNL     1      -8.234  -3.314 135.381  0.00  0.00    +0.000 C 
ENDBRANCH  16  17
ENDBRANCH   3  16
BRANCH   3  20
ATOM     20  C   UNL     1      -8.088  -0.736 131.328  0.00  0.00    +0.000 C 
BRANCH  20  21
ATOM     21  C   UNL     1      -8.752   0.207 132.348  0.00  0.00    +0.000 C 
ATOM     22  C   UNL     1      -9.792   1.153 131.779  0.00  0.00    +0.000 C 
ATOM     23  C   UNL     1      -9.446   2.481 132.408  0.00  0.00    +0.000 C 
ATOM     24  C   UNL     1      -8.047   2.341 132.973  0.00  0.00    +0.000 C 
ATOM     25  O   UNL     1      -7.748   0.951 133.049  0.00  0.00    +0.000 OA
ENDBRANCH  20  21
ENDBRANCH   3  20
TORSDOF 6
ENDMDL
MODEL 8
REMARK VINA RESULT:      -7.3      2.321      3.239
REMARK  Name = CHEMBL447916
REMARK  6 active torsions:
REMARK  status: ('A' for Active; 'I' for Inactive)
REMARK    1  A    between atoms: C_2  and  C_3
REMARK    2  A    between atoms: C_6  and  C_7
REMARK    3  A    between atoms: N_15  and  C_16
REMARK    4  A    between atoms: N_15  and  C_20
REMARK    5  A    between atoms: C_16  and  C_17
REMARK    6  A    between atoms: C_20  and  C_21
REMARK                            x       y       z     vdW  Elec       q    Type
REMARK                         _______ _______ _______ _____ _____    ______ ____
ROOT
ATOM      1  O   UNL     1      -8.190   1.022 128.552  0.00  0.00    +0.000 OA
ATOM      2  C   UNL     1      -7.599   0.315 127.723  0.00  0.00    +0.000 C 
ATOM      3  N   UNL     1      -7.038  -0.944 127.966  0.00  0.00    +0.000 N 
ENDROOT
BRANCH   2   4
ATOM      4  C   UNL     1      -7.524   0.963 126.419  0.00  0.00    +0.000 A 
ATOM      5  C   UNL     1      -6.374   1.689 126.098  0.00  0.00    +0.000 A 
ATOM      6  C   UNL     1      -6.332   2.396 124.910  0.00  0.00    +0.000 A 
ATOM      7  C   UNL     1      -7.446   2.355 124.078  0.00  0.00    +0.000 A 
ATOM      8  N   UNL     1      -8.590   1.701 124.397  0.00  0.00    +0.000 NA
ATOM      9  C   UNL     1      -8.613   1.050 125.575  0.00  0.00    +0.000 A 
BRANCH   7  10
ATOM     10  C   UNL     1      -7.438   2.974 122.762  0.00  0.00    +0.000 A 
ATOM     11  C   UNL     1      -8.633   3.190 122.062  0.00  0.00    +0.000 A 
ATOM     12  C   UNL     1      -8.603   3.668 120.754  0.00  0.00    +0.000 A 
ATOM     13  C   UNL     1      -7.385   3.998 120.162  0.00  0.00    +0.000 A 
ATOM     14  C   UNL     1      -6.193   3.820 120.860  0.00  0.00    +0.000 A 
ATOM     15  C   UNL     1      -6.219   3.303 122.150  0.00  0.00    +0.000 A 
ENDBRANCH   7  10
ENDBRANCH   2   4
BRANCH   3  16
ATOM     16  C   UNL     1      -6.897  -1.432 129.348  0.00  0.00    +0.000 C 
BRANCH  16  17
ATOM     17  C   UNL     1      -7.271  -2.817 129.741  0.00  0.00    +0.000 C 
ATOM     18  C   UNL     1      -6.187  -3.828 130.042  0.00  0.00    +0.000 C 
ATOM     19  C   UNL     1      -7.037  -3.276 131.153  0.00  0.00    +0.000 C 
ENDBRANCH  16  17
ENDBRANCH   3  16
BRANCH   3  20
ATOM     20  C   UNL     1      -6.343  -1.709 126.879  0.00  0.00    +0.000 C 
BRANCH  20  21
ATOM     21  C   UNL     1      -7.113  -2.712 125.999  0.00  0.00    +0.000 C 
ATOM     22  C   UNL     1      -7.243  -2.330 124.537  0.00  0.00    +0.000 C 
ATOM     23  C   UNL     1      -8.696  -2.601 124.227  0.00  0.00    +0.000 C 
ATOM     24  C   UNL     1      -9.404  -2.741 125.559  0.00  0.00    +0.000 C 
ATOM     25  O   UNL     1      -8.410  -2.952 126.557  0.00  0.00    +0.000 OA
ENDBRANCH  20  21
ENDBRANCH   3  20
TORSDOF 6
ENDMDL
MODEL 9
REMARK VINA RESULT:      -7.3      7.434     10.798
REMARK  Name = CHEMBL447916
REMARK  6 active torsions:
REMARK  status: ('A' for Active; 'I' for Inactive)
REMARK    1  A    between atoms: C_2  and  C_3
REMARK    2  A    between atoms: C_6  and  C_7
REMARK    3  A    between atoms: N_15  and  C_16
REMARK    4  A    between atoms: N_15  and  C_20
REMARK    5  A    between atoms: C_16  and  C_17
REMARK    6  A    between atoms: C_20  and  C_21
REMARK                            x       y       z     vdW  Elec       q    Type
REMARK                         _______ _______ _______ _____ _____    ______ ____
ROOT
ATOM      1  O   UNL     1     -11.618   3.994 130.072  0.00  0.00    +0.000 OA
ATOM      2  C   UNL     1     -10.416   4.075 130.365  0.00  0.00    +0.000 C 
ATOM      3  N   UNL     1      -9.688   5.258 130.534  0.00  0.00    +0.000 N 
ENDROOT
BRANCH   2   4
ATOM      4  C   UNL     1      -9.804   2.758 130.498  0.00  0.00    +0.000 A 
ATOM      5  C   UNL     1     -10.045   2.022 131.661  0.00  0.00    +0.000 A 
ATOM      6  C   UNL     1      -9.387   0.819 131.848  0.00  0.00    +0.000 A 
ATOM      7  C   UNL     1      -8.505   0.390 130.862  0.00  0.00    +0.000 A 
ATOM      8  N   UNL     1      -8.217   1.116 129.753  0.00  0.00    +0.000 NA
ATOM      9  C   UNL     1      -8.847   2.297 129.616  0.00  0.00    +0.000 A 
BRANCH   7  10
ATOM     10  C   UNL     1      -7.864  -0.914 130.927  0.00  0.00    +0.000 A 
ATOM     11  C   UNL     1      -7.888  -1.782 129.827  0.00  0.00    +0.000 A 
ATOM     12  C   UNL     1      -7.380  -3.074 129.942  0.00  0.00    +0.000 A 
ATOM     13  C   UNL     1      -6.785  -3.483 131.135  0.00  0.00    +0.000 A 
ATOM     14  C   UNL     1      -6.726  -2.618 132.225  0.00  0.00    +0.000 A 
ATOM     15  C   UNL     1      -7.270  -1.343 132.124  0.00  0.00    +0.000 A 
ENDBRANCH   7  10
ENDBRANCH   2   4
BRANCH   3  16
ATOM     16  C   UNL     1     -10.272   6.546 130.124  0.00  0.00    +0.000 C 
BRANCH  16  17
ATOM     17  C   UNL     1     -10.417   6.931 128.695  0.00  0.00    +0.000 C 
ATOM     18  C   UNL     1     -11.791   7.220 128.134  0.00  0.00    +0.000 C 
ATOM     19  C   UNL     1     -10.808   8.338 128.343  0.00  0.00    +0.000 C 
ENDBRANCH  16  17
ENDBRANCH   3  16
BRANCH   3  20
ATOM     20  C   UNL     1      -8.231   5.231 130.889  0.00  0.00    +0.000 C 
BRANCH  20  21
ATOM     21  C   UNL     1      -7.774   5.150 132.357  0.00  0.00    +0.000 C 
ATOM     22  C   UNL     1      -6.991   3.906 132.729  0.00  0.00    +0.000 C 
ATOM     23  C   UNL     1      -7.616   3.470 134.033  0.00  0.00    +0.000 C 
ATOM     24  C   UNL     1      -8.932   4.213 134.151  0.00  0.00    +0.000 C 
ATOM     25  O   UNL     1      -8.903   5.294 133.226  0.00  0.00    +0.000 OA
ENDBRANCH  20  21
ENDBRANCH   3  20
TORSDOF 6
ENDMDL
