MODEL 1
REMARK VINA RESULT:      -9.6      0.000      0.000
REMARK  Name = CHEMBL3813894
REMARK  24 active torsions:
REMARK  status: ('A' for Active; 'I' for Inactive)
REMARK    1  A    between atoms: C_1  and  C_2
REMARK    2  A    between atoms: C_2  and  C_3
REMARK    3  A    between atoms: C_3  and  C_4
REMARK    4  A    between atoms: C_3  and  C_5
REMARK    5  A    between atoms: C_9  and  C_10
REMARK    6  A    between atoms: C_10  and  C_11
REMARK    7  A    between atoms: C_14  and  O_15
REMARK    8  A    between atoms: C_21  and  N_22
REMARK    9  A    between atoms: C_27  and  C_28
REMARK   10  A    between atoms: C_34  and  C_35
REMARK   11  A    between atoms: N_37  and  C_38
REMARK   12  A    between atoms: C_38  and  C_39
REMARK   13  A    between atoms: C_38  and  C_43
REMARK   14  A    between atoms: C_39  and  C_40
REMARK   15  A    between atoms: C_40  and  C_41
REMARK   16  A    between atoms: C_40  and  C_42
REMARK   17  A    between atoms: N_45  and  C_46
REMARK   18  A    between atoms: C_46  and  C_47
REMARK   19  A    between atoms: N_50  and  C_51
REMARK   20  A    between atoms: C_54  and  C_55
REMARK   21  A    between atoms: C_55  and  C_56
REMARK   22  A    between atoms: C_62  and  C_63
REMARK   23  A    between atoms: C_63  and  C_64
REMARK   24  A    between atoms: C_64  and  C_65
REMARK                            x       y       z     vdW  Elec       q    Type
REMARK                         _______ _______ _______ _____ _____    ______ ____
ROOT
ATOM      1  C   UNL     1      -4.085   1.964 132.704  0.00  0.00    +0.000 C 
ATOM      2  N   UNL     1      -3.107   4.347 134.069  0.00  0.00    +0.000 N 
ATOM      3  C   UNL     1      -2.296   6.713 135.333  0.00  0.00    +0.000 C 
ATOM      4  O   UNL     1      -1.319   7.909 136.465  0.00  0.00    +0.000 OA
ATOM      5  C   UNL     1      -2.315   9.364 136.370  0.00  0.00    +0.000 C 
ATOM      6  N   UNL     1      -2.613  10.933 135.803  0.00  0.00    +0.000 N 
ATOM      7  C   UNL     1      -2.478   9.773 135.157  0.00  0.00    +0.000 C 
ATOM      8  O   UNL     1      -2.484   9.570 133.985  0.00  0.00    +0.000 OA
ATOM      9  C   UNL     1      -2.728   8.264 135.758  0.00  0.00    +0.000 C 
ATOM     10  C   UNL     1      -3.572   7.305 136.185  0.00  0.00    +0.000 C 
ATOM     11  S   UNL     1      -3.495   7.039 134.029  0.00  0.00    +0.000 S 
ATOM     12  S   UNL     1      -4.789   5.537 134.151  0.00  0.00    +0.000 S 
ATOM     13  C   UNL     1      -4.635   4.784 132.473  0.00  0.00    +0.000 C 
ATOM     14  C   UNL     1      -5.682   3.754 132.334  0.00  0.00    +0.000 C 
ATOM     15  N   UNL     1      -5.400   2.870 133.380  0.00  0.00    +0.000 N 
ATOM     16  C   UNL     1      -5.179   2.823 134.722  0.00  0.00    +0.000 C 
ATOM     17  C   UNL     1      -5.742   1.644 133.590  0.00  0.00    +0.000 C 
ATOM     18  O   UNL     1      -5.620   1.736 132.383  0.00  0.00    +0.000 OA
ATOM     19  C   UNL     1      -4.745   0.256 133.819  0.00  0.00    +0.000 C 
ATOM     20  N   UNL     1      -5.996  -0.911 133.780  0.00  0.00    +0.000 N 
ATOM     21  C   UNL     1      -5.808  -2.102 132.623  0.00  0.00    +0.000 C 
ATOM     22  O   UNL     1      -7.192  -3.145 132.289  0.00  0.00    +0.000 OA
ATOM     23  C   UNL     1      -4.974  -0.865 130.703  0.00  0.00    +0.000 C 
ATOM     24  N   UNL     1      -4.163  -2.127 130.318  0.00  0.00    +0.000 N 
ATOM     25  C   UNL     1      -4.354  -0.357 131.201  0.00  0.00    +0.000 C 
ATOM     26  O   UNL     1      -4.488  -2.188 130.595  0.00  0.00    +0.000 OA
ATOM     27  H   UNL     1      -2.400   5.713 134.935  0.00  0.00    +0.000 HD
ATOM     28  H   UNL     1      -2.887  11.791 135.258  0.00  0.00    +0.000 HD
ATOM     29  H   UNL     1      -6.249  -1.378 134.434  0.00  0.00    +0.000 HD
ATOM     30  H   UNL     1      -3.258  -2.314 130.317  0.00  0.00    +0.000 HD
ENDROOT
BRANCH  14  31
ATOM     31  C   UNL     1      -5.730   3.229 130.861  0.00  0.00    +0.000 C 
ATOM     32  O   UNL     1      -4.808   2.680 130.284  0.00  0.00    +0.000 OA
ATOM     33  N   UNL     1      -6.919   3.392 130.140  0.00  0.00    +0.000 N 
ATOM     34  C   UNL     1      -7.740   4.592 130.031  0.00  0.00    +0.000 C 
ATOM     35  C   UNL     1      -9.132   4.036 130.141  0.00  0.00    +0.000 C 
ATOM     36  C   UNL     1      -9.078   2.788 129.262  0.00  0.00    +0.000 C 
ATOM     37  C   UNL     1      -7.663   2.291 129.440  0.00  0.00    +0.000 C 
BRANCH  37  38
ATOM     38  C   UNL     1      -7.386   2.202 127.970  0.00  0.00    +0.000 C 
ATOM     39  O   UNL     1      -8.609   2.243 127.150  0.00  0.00    +0.000 OA
ATOM     40  N   UNL     1      -6.177   2.731 127.357  0.00  0.00    +0.000 N 
ATOM     41  H   UNL     1      -5.352   2.686 127.907  0.00  0.00    +0.000 HD
BRANCH  40  42
ATOM     42  C   UNL     1      -6.034   3.070 125.903  0.00  0.00    +0.000 C 
BRANCH  42  43
ATOM     43  C   UNL     1      -6.476   1.859 125.046  0.00  0.00    +0.000 C 
ATOM     44  O   UNL     1      -5.855   0.791 125.150  0.00  0.00    +0.000 OA
ATOM     45  N   UNL     1      -7.587   2.000 124.173  0.00  0.00    +0.000 N 
ATOM     46  H   UNL     1      -8.089   2.869 124.089  0.00  0.00    +0.000 HD
BRANCH  45  47
ATOM     47  C   UNL     1      -8.040   0.879 123.342  0.00  0.00    +0.000 C 
BRANCH  47  48
ATOM     48  C   UNL     1      -9.535   0.573 123.548  0.00  0.00    +0.000 C 
ATOM     49  N   UNL     1     -10.221   1.264 124.578  0.00  0.00    +0.000 N 
ATOM     50  O   UNL     1     -10.103  -0.256 122.829  0.00  0.00    +0.000 OA
ATOM     51  H   UNL     1      -9.791   1.944 125.178  0.00  0.00    +0.000 HD
ATOM     52  H   UNL     1     -11.209   1.091 124.744  0.00  0.00    +0.000 HD
ENDBRANCH  47  48
ENDBRANCH  45  47
ENDBRANCH  42  43
BRANCH  42  53
ATOM     53  C   UNL     1      -4.632   3.456 125.562  0.00  0.00    +0.000 C 
BRANCH  53  54
ATOM     54  C   UNL     1      -3.754   3.542 126.786  0.00  0.00    +0.000 C 
ATOM     55  C   UNL     1      -2.424   3.061 126.584  0.00  0.00    +0.000 C 
ATOM     56  C   UNL     1      -3.563   4.872 127.286  0.00  0.00    +0.000 C 
ENDBRANCH  53  54
ENDBRANCH  42  53
ENDBRANCH  40  42
ENDBRANCH  37  38
ENDBRANCH  14  31
BRANCH   9  57
ATOM     57  N   UNL     1      -2.116   8.607 137.854  0.00  0.00    +0.000 NA
ATOM     58  H   UNL     1      -2.624   9.324 138.077  0.00  0.00    +0.000 HD
ATOM     59  H   UNL     1      -1.461   9.636 137.888  0.00  0.00    +0.000 HD
ENDBRANCH   9  57
BRANCH   1  60
ATOM     60  C   UNL     1      -5.837  -0.175 131.956  0.00  0.00    +0.000 C 
ATOM     61  C   UNL     1      -7.799  -1.606 131.192  0.00  0.00    +0.000 C 
BRANCH  60  63
ATOM     62  C   UNL     1      -5.830   0.014 130.971  0.00  0.00    +0.000 C 
ATOM     63  C   UNL     1      -6.774  -1.757 131.531  0.00  0.00    +0.000 C 
ENDBRANCH  60  63
ENDBRANCH   1  60
BRANCH  19  64
ATOM     64  C   UNL     1      -3.174  -0.381 133.246  0.00  0.00    +0.000 C 
BRANCH  64  65
ATOM     65  C   UNL     1      -2.583  -1.230 134.271  0.00  0.00    +0.000 C 
ATOM     66  N   UNL     1      -1.467  -0.943 135.053  0.00  0.00    +0.000 N 
ATOM     67  O   UNL     1      -3.205  -2.175 134.691  0.00  0.00    +0.000 OA
ATOM     68  H   UNL     1      -0.740   0.056 134.975  0.00  0.00    +0.000 HD
ATOM     69  H   UNL     1      -0.790  -1.462 135.489  0.00  0.00    +0.000 HD
ENDBRANCH  64  65
ENDBRANCH  19  64
BRANCH   5  70
ATOM     70  C   UNL     1      -3.553  10.366 137.968  0.00  0.00    +0.000 C 
BRANCH  70  71
ATOM     71  C   UNL     1      -5.105  10.523 138.203  0.00  0.00    +0.000 A 
ATOM     72  C   UNL     1      -6.063   9.606 137.801  0.00  0.00    +0.000 A 
ATOM     73  C   UNL     1      -7.390   9.734 138.192  0.00  0.00    +0.000 A 
ATOM     74  C   UNL     1      -7.750  10.795 139.002  0.00  0.00    +0.000 A 
ATOM     75  C   UNL     1      -6.808  11.729 139.373  0.00  0.00    +0.000 A 
ATOM     76  C   UNL     1      -5.502  11.589 138.979  0.00  0.00    +0.000 A 
BRANCH  74  77
ATOM     77  O   UNL     1      -9.010  11.001 139.461  0.00  0.00    +0.000 OA
ATOM     78  H   UNL     1      -9.201  11.863 139.851  0.00  0.00    +0.000 HD
ENDBRANCH  74  77
ENDBRANCH  70  71
ENDBRANCH   5  70
BRANCH  23  79
ATOM     79  C   UNL     1      -6.050  -0.548 129.662  0.00  0.00    +0.000 C 
BRANCH  79  80
ATOM     80  C   UNL     1      -5.751  -0.671 128.117  0.00  0.00    +0.000 C 
BRANCH  80  81
ATOM     81  C   UNL     1      -6.967  -1.478 127.652  0.00  0.00    +0.000 C 
ATOM     82  N   UNL     1      -7.992  -0.944 126.801  0.00  0.00    +0.000 N 
ATOM     83  O   UNL     1      -7.035  -2.658 128.042  0.00  0.00    +0.000 OA
ATOM     84  H   UNL     1      -8.004   0.043 126.462  0.00  0.00    +0.000 HD
ATOM     85  H   UNL     1      -8.708  -1.481 126.365  0.00  0.00    +0.000 HD
ENDBRANCH  80  81
ENDBRANCH  79  80
ENDBRANCH  23  79
TORSDOF 19
ENDMDL
MODEL 2
REMARK VINA RESULT:      -9.5      2.316      3.265
REMARK  Name = CHEMBL3813894
REMARK  24 active torsions:
REMARK  status: ('A' for Active; 'I' for Inactive)
REMARK    1  A    between atoms: C_1  and  C_2
REMARK    2  A    between atoms: C_2  and  C_3
REMARK    3  A    between atoms: C_3  and  C_4
REMARK    4  A    between atoms: C_3  and  C_5
REMARK    5  A    between atoms: C_9  and  C_10
REMARK    6  A    between atoms: C_10  and  C_11
REMARK    7  A    between atoms: C_14  and  O_15
REMARK    8  A    between atoms: C_21  and  N_22
REMARK    9  A    between atoms: C_27  and  C_28
REMARK   10  A    between atoms: C_34  and  C_35
REMARK   11  A    between atoms: N_37  and  C_38
REMARK   12  A    between atoms: C_38  and  C_39
REMARK   13  A    between atoms: C_38  and  C_43
REMARK   14  A    between atoms: C_39  and  C_40
REMARK   15  A    between atoms: C_40  and  C_41
REMARK   16  A    between atoms: C_40  and  C_42
REMARK   17  A    between atoms: N_45  and  C_46
REMARK   18  A    between atoms: C_46  and  C_47
REMARK   19  A    between atoms: N_50  and  C_51
REMARK   20  A    between atoms: C_54  and  C_55
REMARK   21  A    between atoms: C_55  and  C_56
REMARK   22  A    between atoms: C_62  and  C_63
REMARK   23  A    between atoms: C_63  and  C_64
REMARK   24  A    between atoms: C_64  and  C_65
REMARK                            x       y       z     vdW  Elec       q    Type
REMARK                         _______ _______ _______ _____ _____    ______ ____
ROOT
ATOM      1  C   UNL     1      -4.800   0.833 131.575  0.00  0.00    +0.000 C 
ATOM      2  N   UNL     1      -4.193   2.784 133.655  0.00  0.00    +0.000 N 
ATOM      3  C   UNL     1      -3.734   4.743 135.606  0.00  0.00    +0.000 C 
ATOM      4  O   UNL     1      -3.016   5.614 137.154  0.00  0.00    +0.000 OA
ATOM      5  C   UNL     1      -4.077   7.019 137.280  0.00  0.00    +0.000 C 
ATOM      6  N   UNL     1      -4.386   8.676 137.101  0.00  0.00    +0.000 N 
ATOM      7  C   UNL     1      -4.081   7.735 136.206  0.00  0.00    +0.000 C 
ATOM      8  O   UNL     1      -3.898   7.852 135.037  0.00  0.00    +0.000 OA
ATOM      9  C   UNL     1      -4.323   6.114 136.344  0.00  0.00    +0.000 C 
ATOM     10  C   UNL     1      -5.158   5.059 136.363  0.00  0.00    +0.000 C 
ATOM     11  S   UNL     1      -4.741   5.381 134.255  0.00  0.00    +0.000 S 
ATOM     12  S   UNL     1      -5.941   3.874 133.769  0.00  0.00    +0.000 S 
ATOM     13  C   UNL     1      -5.488   3.600 132.001  0.00  0.00    +0.000 C 
ATOM     14  C   UNL     1      -6.434   2.623 131.431  0.00  0.00    +0.000 C 
ATOM     15  N   UNL     1      -6.258   1.498 132.242  0.00  0.00    +0.000 N 
ATOM     16  C   UNL     1      -6.239   1.099 133.542  0.00  0.00    +0.000 C 
ATOM     17  C   UNL     1      -6.549   0.253 132.067  0.00  0.00    +0.000 C 
ATOM     18  O   UNL     1      -6.252   0.668 130.962  0.00  0.00    +0.000 OA
ATOM     19  C   UNL     1      -5.512  -1.124 132.084  0.00  0.00    +0.000 C 
ATOM     20  N   UNL     1      -6.665  -2.264 131.540  0.00  0.00    +0.000 N 
ATOM     21  C   UNL     1      -6.229  -3.098 130.159  0.00  0.00    +0.000 C 
ATOM     22  O   UNL     1      -7.479  -4.043 129.344  0.00  0.00    +0.000 OA
ATOM     23  C   UNL     1      -5.195  -1.375 128.789  0.00  0.00    +0.000 C 
ATOM     24  N   UNL     1      -4.257  -2.471 128.226  0.00  0.00    +0.000 N 
ATOM     25  C   UNL     1      -4.692  -1.006 129.497  0.00  0.00    +0.000 C 
ATOM     26  O   UNL     1      -4.616  -2.611 128.421  0.00  0.00    +0.000 OA
ATOM     27  H   UNL     1      -3.713   3.884 134.949  0.00  0.00    +0.000 HD
ATOM     28  H   UNL     1      -4.628   9.643 136.762  0.00  0.00    +0.000 HD
ATOM     29  H   UNL     1      -6.984  -2.895 132.000  0.00  0.00    +0.000 HD
ATOM     30  H   UNL     1      -3.353  -2.632 128.323  0.00  0.00    +0.000 HD
ENDROOT
BRANCH  14  31
ATOM     31  C   UNL     1      -6.226   2.510 129.884  0.00  0.00    +0.000 C 
ATOM     32  O   UNL     1      -6.949   1.892 129.124  0.00  0.00    +0.000 OA
ATOM     33  N   UNL     1      -5.129   3.170 129.316  0.00  0.00    +0.000 N 
ATOM     34  C   UNL     1      -3.748   3.170 129.781  0.00  0.00    +0.000 C 
ATOM     35  C   UNL     1      -3.352   4.609 129.603  0.00  0.00    +0.000 C 
ATOM     36  C   UNL     1      -3.939   4.965 128.237  0.00  0.00    +0.000 C 
ATOM     37  C   UNL     1      -5.203   4.141 128.172  0.00  0.00    +0.000 C 
BRANCH  37  38
ATOM     38  C   UNL     1      -4.880   3.540 126.837  0.00  0.00    +0.000 C 
ATOM     39  O   UNL     1      -4.220   2.228 126.940  0.00  0.00    +0.000 OA
ATOM     40  N   UNL     1      -5.690   3.765 125.650  0.00  0.00    +0.000 N 
ATOM     41  H   UNL     1      -6.120   4.657 125.575  0.00  0.00    +0.000 HD
BRANCH  40  42
ATOM     42  C   UNL     1      -5.695   2.882 124.438  0.00  0.00    +0.000 C 
BRANCH  42  43
ATOM     43  C   UNL     1      -5.752   3.757 123.162  0.00  0.00    +0.000 C 
ATOM     44  O   UNL     1      -5.441   4.954 123.241  0.00  0.00    +0.000 OA
ATOM     45  N   UNL     1      -6.146   3.164 121.934  0.00  0.00    +0.000 N 
ATOM     46  H   UNL     1      -6.401   2.191 121.873  0.00  0.00    +0.000 HD
BRANCH  45  47
ATOM     47  C   UNL     1      -6.215   3.956 120.701  0.00  0.00    +0.000 C 
BRANCH  47  48
ATOM     48  C   UNL     1      -7.651   4.048 120.153  0.00  0.00    +0.000 C 
ATOM     49  N   UNL     1      -8.723   3.785 121.042  0.00  0.00    +0.000 N 
ATOM     50  O   UNL     1      -7.845   4.342 118.969  0.00  0.00    +0.000 OA
ATOM     51  H   UNL     1      -8.601   3.545 122.010  0.00  0.00    +0.000 HD
ATOM     52  H   UNL     1      -9.685   3.837 120.720  0.00  0.00    +0.000 HD
ENDBRANCH  47  48
ENDBRANCH  45  47
ENDBRANCH  42  43
BRANCH  42  53
ATOM     53  C   UNL     1      -6.842   1.925 124.456  0.00  0.00    +0.000 C 
BRANCH  53  54
ATOM     54  C   UNL     1      -8.045   2.497 125.165  0.00  0.00    +0.000 C 
ATOM     55  C   UNL     1      -9.189   2.667 124.325  0.00  0.00    +0.000 C 
ATOM     56  C   UNL     1      -8.533   1.692 126.247  0.00  0.00    +0.000 C 
ENDBRANCH  53  54
ENDBRANCH  42  53
ENDBRANCH  40  42
ENDBRANCH  37  38
ENDBRANCH  14  31
BRANCH   9  57
ATOM     57  N   UNL     1      -4.057   5.897 138.528  0.00  0.00    +0.000 NA
ATOM     58  H   UNL     1      -4.912   5.777 138.804  0.00  0.00    +0.000 HD
ATOM     59  H   UNL     1      -4.509   6.898 139.060  0.00  0.00    +0.000 HD
ENDBRANCH   9  57
BRANCH   1  60
ATOM     60  C   UNL     1      -6.280  -1.064 130.022  0.00  0.00    +0.000 C 
ATOM     61  C   UNL     1      -8.028  -2.295 128.639  0.00  0.00    +0.000 C 
BRANCH  60  63
ATOM     62  C   UNL     1      -6.069  -0.643 129.136  0.00  0.00    +0.000 C 
ATOM     63  C   UNL     1      -7.031  -2.488 129.036  0.00  0.00    +0.000 C 
ENDBRANCH  60  63
ENDBRANCH   1  60
BRANCH  19  64
ATOM     64  C   UNL     1      -3.835  -1.551 131.628  0.00  0.00    +0.000 C 
BRANCH  64  65
ATOM     65  C   UNL     1      -3.313  -2.551 132.549  0.00  0.00    +0.000 C 
ATOM     66  N   UNL     1      -3.396  -3.935 132.418  0.00  0.00    +0.000 N 
ATOM     67  O   UNL     1      -2.525  -2.219 133.401  0.00  0.00    +0.000 OA
ATOM     68  H   UNL     1      -3.982  -4.564 131.527  0.00  0.00    +0.000 HD
ATOM     69  H   UNL     1      -3.419  -4.676 133.024  0.00  0.00    +0.000 HD
ENDBRANCH  64  65
ENDBRANCH  19  64
BRANCH   5  70
ATOM     70  C   UNL     1      -5.604   7.531 138.861  0.00  0.00    +0.000 C 
BRANCH  70  71
ATOM     71  C   UNL     1      -7.078   8.090 138.810  0.00  0.00    +0.000 A 
ATOM     72  C   UNL     1      -7.519   9.219 139.480  0.00  0.00    +0.000 A 
ATOM     73  C   UNL     1      -8.786   9.743 139.251  0.00  0.00    +0.000 A 
ATOM     74  C   UNL     1      -9.611   9.121 138.331  0.00  0.00    +0.000 A 
ATOM     75  C   UNL     1      -9.190   7.977 137.691  0.00  0.00    +0.000 A 
ATOM     76  C   UNL     1      -7.936   7.473 137.928  0.00  0.00    +0.000 A 
BRANCH  74  77
ATOM     77  O   UNL     1     -10.855   9.561 138.015  0.00  0.00    +0.000 OA
ATOM     78  H   UNL     1     -11.545   9.442 138.678  0.00  0.00    +0.000 HD
ENDBRANCH  74  77
ENDBRANCH  70  71
ENDBRANCH   5  70
BRANCH  23  79
ATOM     79  C   UNL     1      -6.121  -0.815 127.707  0.00  0.00    +0.000 C 
BRANCH  79  80
ATOM     80  C   UNL     1      -5.597  -0.557 126.241  0.00  0.00    +0.000 C 
BRANCH  80  81
ATOM     81  C   UNL     1      -6.326  -1.666 125.476  0.00  0.00    +0.000 C 
ATOM     82  N   UNL     1      -5.672  -2.842 124.975  0.00  0.00    +0.000 N 
ATOM     83  O   UNL     1      -7.549  -1.515 125.305  0.00  0.00    +0.000 OA
ATOM     84  H   UNL     1      -4.646  -3.014 125.064  0.00  0.00    +0.000 HD
ATOM     85  H   UNL     1      -6.138  -3.641 124.609  0.00  0.00    +0.000 HD
ENDBRANCH  80  81
ENDBRANCH  79  80
ENDBRANCH  23  79
TORSDOF 19
ENDMDL
MODEL 3
REMARK VINA RESULT:      -9.5      1.308      1.524
REMARK  Name = CHEMBL3813894
REMARK  24 active torsions:
REMARK  status: ('A' for Active; 'I' for Inactive)
REMARK    1  A    between atoms: C_1  and  C_2
REMARK    2  A    between atoms: C_2  and  C_3
REMARK    3  A    between atoms: C_3  and  C_4
REMARK    4  A    between atoms: C_3  and  C_5
REMARK    5  A    between atoms: C_9  and  C_10
REMARK    6  A    between atoms: C_10  and  C_11
REMARK    7  A    between atoms: C_14  and  O_15
REMARK    8  A    between atoms: C_21  and  N_22
REMARK    9  A    between atoms: C_27  and  C_28
REMARK   10  A    between atoms: C_34  and  C_35
REMARK   11  A    between atoms: N_37  and  C_38
REMARK   12  A    between atoms: C_38  and  C_39
REMARK   13  A    between atoms: C_38  and  C_43
REMARK   14  A    between atoms: C_39  and  C_40
REMARK   15  A    between atoms: C_40  and  C_41
REMARK   16  A    between atoms: C_40  and  C_42
REMARK   17  A    between atoms: N_45  and  C_46
REMARK   18  A    between atoms: C_46  and  C_47
REMARK   19  A    between atoms: N_50  and  C_51
REMARK   20  A    between atoms: C_54  and  C_55
REMARK   21  A    between atoms: C_55  and  C_56
REMARK   22  A    between atoms: C_62  and  C_63
REMARK   23  A    between atoms: C_63  and  C_64
REMARK   24  A    between atoms: C_64  and  C_65
REMARK                            x       y       z     vdW  Elec       q    Type
REMARK                         _______ _______ _______ _____ _____    ______ ____
ROOT
ATOM      1  C   UNL     1      -4.122   1.904 132.631  0.00  0.00    +0.000 C 
ATOM      2  N   UNL     1      -3.376   4.062 134.444  0.00  0.00    +0.000 N 
ATOM      3  C   UNL     1      -2.791   6.212 136.145  0.00  0.00    +0.000 C 
ATOM      4  O   UNL     1      -1.950   7.247 137.519  0.00  0.00    +0.000 OA
ATOM      5  C   UNL     1      -3.046   8.626 137.630  0.00  0.00    +0.000 C 
ATOM      6  N   UNL     1      -3.436  10.249 137.333  0.00  0.00    +0.000 N 
ATOM      7  C   UNL     1      -3.190   9.235 136.501  0.00  0.00    +0.000 C 
ATOM      8  O   UNL     1      -3.136   9.245 135.313  0.00  0.00    +0.000 OA
ATOM      9  C   UNL     1      -3.353   7.629 136.814  0.00  0.00    +0.000 C 
ATOM     10  C   UNL     1      -4.140   6.557 137.020  0.00  0.00    +0.000 C 
ATOM     11  S   UNL     1      -3.959   6.687 134.858  0.00  0.00    +0.000 S 
ATOM     12  S   UNL     1      -5.143   5.106 134.647  0.00  0.00    +0.000 S 
ATOM     13  C   UNL     1      -4.869   4.678 132.873  0.00  0.00    +0.000 C 
ATOM     14  C   UNL     1      -5.831   3.624 132.501  0.00  0.00    +0.000 C 
ATOM     15  N   UNL     1      -5.526   2.587 133.388  0.00  0.00    +0.000 N 
ATOM     16  C   UNL     1      -5.355   2.315 134.710  0.00  0.00    +0.000 C 
ATOM     17  C   UNL     1      -5.785   1.323 133.361  0.00  0.00    +0.000 C 
ATOM     18  O   UNL     1      -5.623   1.638 132.197  0.00  0.00    +0.000 OA
ATOM     19  C   UNL     1      -4.699  -0.015 133.393  0.00  0.00    +0.000 C 
ATOM     20  N   UNL     1      -5.857  -1.236 133.084  0.00  0.00    +0.000 N 
ATOM     21  C   UNL     1      -5.537  -2.185 131.747  0.00  0.00    +0.000 C 
ATOM     22  O   UNL     1      -6.828  -3.240 131.163  0.00  0.00    +0.000 OA
ATOM     23  C   UNL     1      -4.721  -0.572 130.121  0.00  0.00    +0.000 C 
ATOM     24  N   UNL     1      -3.805  -1.689 129.562  0.00  0.00    +0.000 N 
ATOM     25  C   UNL     1      -4.161  -0.122 130.732  0.00  0.00    +0.000 C 
ATOM     26  O   UNL     1      -4.136  -1.820 129.807  0.00  0.00    +0.000 OA
ATOM     27  H   UNL     1      -2.806   5.294 135.572  0.00  0.00    +0.000 HD
ATOM     28  H   UNL     1      -3.750  11.171 136.934  0.00  0.00    +0.000 HD
ATOM     29  H   UNL     1      -6.102  -1.828 133.632  0.00  0.00    +0.000 HD
ATOM     30  H   UNL     1      -2.890  -1.814 129.576  0.00  0.00    +0.000 HD
ENDROOT
BRANCH  14  31
ATOM     31  C   UNL     1      -5.782   3.369 130.957  0.00  0.00    +0.000 C 
ATOM     32  O   UNL     1      -4.804   2.980 130.343  0.00  0.00    +0.000 OA
ATOM     33  N   UNL     1      -6.945   3.597 130.214  0.00  0.00    +0.000 N 
ATOM     34  C   UNL     1      -7.831   4.753 130.274  0.00  0.00    +0.000 C 
ATOM     35  C   UNL     1      -9.191   4.116 130.208  0.00  0.00    +0.000 C 
ATOM     36  C   UNL     1      -9.024   3.050 129.127  0.00  0.00    +0.000 C 
ATOM     37  C   UNL     1      -7.591   2.603 129.291  0.00  0.00    +0.000 C 
BRANCH  37  38
ATOM     38  C   UNL     1      -7.244   2.792 127.845  0.00  0.00    +0.000 C 
ATOM     39  O   UNL     1      -8.405   3.162 127.018  0.00  0.00    +0.000 OA
ATOM     40  N   UNL     1      -5.949   3.281 127.398  0.00  0.00    +0.000 N 
ATOM     41  H   UNL     1      -5.166   3.016 127.948  0.00  0.00    +0.000 HD
BRANCH  40  42
ATOM     42  C   UNL     1      -5.685   3.900 126.057  0.00  0.00    +0.000 C 
BRANCH  42  43
ATOM     43  C   UNL     1      -6.429   3.095 124.964  0.00  0.00    +0.000 C 
ATOM     44  O   UNL     1      -6.137   1.903 124.793  0.00  0.00    +0.000 OA
ATOM     45  N   UNL     1      -7.433   3.740 124.194  0.00  0.00    +0.000 N 
ATOM     46  H   UNL     1      -7.667   4.710 124.334  0.00  0.00    +0.000 HD
BRANCH  45  47
ATOM     47  C   UNL     1      -8.162   3.016 123.147  0.00  0.00    +0.000 C 
BRANCH  47  48
ATOM     48  C   UNL     1      -7.723   3.445 121.735  0.00  0.00    +0.000 C 
ATOM     49  N   UNL     1      -8.720   3.895 120.833  0.00  0.00    +0.000 N 
ATOM     50  O   UNL     1      -6.531   3.388 121.413  0.00  0.00    +0.000 OA
ATOM     51  H   UNL     1      -9.696   3.955 121.063  0.00  0.00    +0.000 HD
ATOM     52  H   UNL     1      -8.470   4.188 119.893  0.00  0.00    +0.000 HD
ENDBRANCH  47  48
ENDBRANCH  45  47
ENDBRANCH  42  43
BRANCH  42  53
ATOM     53  C   UNL     1      -4.224   3.953 125.752  0.00  0.00    +0.000 C 
BRANCH  53  54
ATOM     54  C   UNL     1      -3.379   3.703 126.977  0.00  0.00    +0.000 C 
ATOM     55  C   UNL     1      -2.176   2.977 126.717  0.00  0.00    +0.000 C 
ATOM     56  C   UNL     1      -2.924   4.892 127.635  0.00  0.00    +0.000 C 
ENDBRANCH  53  54
ENDBRANCH  42  53
ENDBRANCH  40  42
ENDBRANCH  37  38
ENDBRANCH  14  31
BRANCH   9  57
ATOM     57  N   UNL     1      -2.850   7.630 138.966  0.00  0.00    +0.000 NA
ATOM     58  H   UNL     1      -2.355   6.875 139.037  0.00  0.00    +0.000 HD
ATOM     59  H   UNL     1      -3.474   6.725 139.495  0.00  0.00    +0.000 HD
ENDBRANCH   9  57
BRANCH   1  60
ATOM     60  C   UNL     1      -5.682  -0.176 131.429  0.00  0.00    +0.000 C 
ATOM     61  C   UNL     1      -7.502  -1.572 130.325  0.00  0.00    +0.000 C 
BRANCH  60  63
ATOM     62  C   UNL     1      -5.641   0.182 130.493  0.00  0.00    +0.000 C 
ATOM     63  C   UNL     1      -6.482  -1.714 130.684  0.00  0.00    +0.000 C 
ENDBRANCH  60  63
ENDBRANCH   1  60
BRANCH  19  64
ATOM     64  C   UNL     1      -3.064  -0.436 132.799  0.00  0.00    +0.000 C 
BRANCH  64  65
ATOM     65  C   UNL     1      -2.403  -1.315 133.754  0.00  0.00    +0.000 C 
ATOM     66  N   UNL     1      -2.016  -0.998 135.054  0.00  0.00    +0.000 N 
ATOM     67  O   UNL     1      -2.370  -2.502 133.544  0.00  0.00    +0.000 OA
ATOM     68  H   UNL     1      -2.108   0.105 135.610  0.00  0.00    +0.000 HD
ATOM     69  H   UNL     1      -1.331  -1.297 135.652  0.00  0.00    +0.000 HD
ENDBRANCH  64  65
ENDBRANCH  19  64
BRANCH   5  70
ATOM     70  C   UNL     1      -4.416   9.243 139.313  0.00  0.00    +0.000 C 
BRANCH  70  71
ATOM     71  C   UNL     1      -5.981   9.386 139.445  0.00  0.00    +0.000 A 
ATOM     72  C   UNL     1      -6.637   9.928 140.538  0.00  0.00    +0.000 A 
ATOM     73  C   UNL     1      -8.005  10.174 140.508  0.00  0.00    +0.000 A 
ATOM     74  C   UNL     1      -8.714   9.875 139.359  0.00  0.00    +0.000 A 
ATOM     75  C   UNL     1      -8.072   9.301 138.284  0.00  0.00    +0.000 A 
ATOM     76  C   UNL     1      -6.722   9.065 138.329  0.00  0.00    +0.000 A 
BRANCH  74  77
ATOM     77  O   UNL     1     -10.044  10.096 139.214  0.00  0.00    +0.000 OA
ATOM     78  H   UNL     1     -10.458   9.771 138.405  0.00  0.00    +0.000 HD
ENDBRANCH  74  77
ENDBRANCH  70  71
ENDBRANCH   5  70
BRANCH  23  79
ATOM     79  C   UNL     1      -5.777  -0.145 129.098  0.00  0.00    +0.000 C 
BRANCH  79  80
ATOM     80  C   UNL     1      -5.407   0.039 127.574  0.00  0.00    +0.000 C 
BRANCH  80  81
ATOM     81  C   UNL     1      -6.305  -1.023 126.931  0.00  0.00    +0.000 C 
ATOM     82  N   UNL     1      -7.382  -0.709 126.035  0.00  0.00    +0.000 N 
ATOM     83  O   UNL     1      -6.056  -2.209 127.212  0.00  0.00    +0.000 OA
ATOM     84  H   UNL     1      -7.655   0.266 125.781  0.00  0.00    +0.000 HD
ATOM     85  H   UNL     1      -7.883  -1.374 125.490  0.00  0.00    +0.000 HD
ENDBRANCH  80  81
ENDBRANCH  79  80
ENDBRANCH  23  79
TORSDOF 19
ENDMDL
MODEL 4
REMARK VINA RESULT:      -9.4      1.487      2.616
REMARK  Name = CHEMBL3813894
REMARK  24 active torsions:
REMARK  status: ('A' for Active; 'I' for Inactive)
REMARK    1  A    between atoms: C_1  and  C_2
REMARK    2  A    between atoms: C_2  and  C_3
REMARK    3  A    between atoms: C_3  and  C_4
REMARK    4  A    between atoms: C_3  and  C_5
REMARK    5  A    between atoms: C_9  and  C_10
REMARK    6  A    between atoms: C_10  and  C_11
REMARK    7  A    between atoms: C_14  and  O_15
REMARK    8  A    between atoms: C_21  and  N_22
REMARK    9  A    between atoms: C_27  and  C_28
REMARK   10  A    between atoms: C_34  and  C_35
REMARK   11  A    between atoms: N_37  and  C_38
REMARK   12  A    between atoms: C_38  and  C_39
REMARK   13  A    between atoms: C_38  and  C_43
REMARK   14  A    between atoms: C_39  and  C_40
REMARK   15  A    between atoms: C_40  and  C_41
REMARK   16  A    between atoms: C_40  and  C_42
REMARK   17  A    between atoms: N_45  and  C_46
REMARK   18  A    between atoms: C_46  and  C_47
REMARK   19  A    between atoms: N_50  and  C_51
REMARK   20  A    between atoms: C_54  and  C_55
REMARK   21  A    between atoms: C_55  and  C_56
REMARK   22  A    between atoms: C_62  and  C_63
REMARK   23  A    between atoms: C_63  and  C_64
REMARK   24  A    between atoms: C_64  and  C_65
REMARK                            x       y       z     vdW  Elec       q    Type
REMARK                         _______ _______ _______ _____ _____    ______ ____
ROOT
ATOM      1  C   UNL     1      -3.971   1.815 132.146  0.00  0.00    +0.000 C 
ATOM      2  N   UNL     1      -2.851   4.236 133.323  0.00  0.00    +0.000 N 
ATOM      3  C   UNL     1      -1.912   6.636 134.425  0.00  0.00    +0.000 C 
ATOM      4  O   UNL     1      -0.800   7.868 135.381  0.00  0.00    +0.000 OA
ATOM      5  C   UNL     1      -1.835   9.297 135.431  0.00  0.00    +0.000 C 
ATOM      6  N   UNL     1      -2.258  10.852 134.906  0.00  0.00    +0.000 N 
ATOM      7  C   UNL     1      -2.196   9.689 134.256  0.00  0.00    +0.000 C 
ATOM      8  O   UNL     1      -2.381   9.471 133.101  0.00  0.00    +0.000 OA
ATOM      9  C   UNL     1      -2.312   8.181 134.901  0.00  0.00    +0.000 C 
ATOM     10  C   UNL     1      -3.054   7.208 135.462  0.00  0.00    +0.000 C 
ATOM     11  S   UNL     1      -3.309   6.918 133.322  0.00  0.00    +0.000 S 
ATOM     12  S   UNL     1      -4.530   5.388 133.658  0.00  0.00    +0.000 S 
ATOM     13  C   UNL     1      -4.622   4.619 131.983  0.00  0.00    +0.000 C 
ATOM     14  C   UNL     1      -5.651   3.563 132.018  0.00  0.00    +0.000 C 
ATOM     15  N   UNL     1      -5.187   2.699 133.014  0.00  0.00    +0.000 N 
ATOM     16  C   UNL     1      -4.758   2.672 134.304  0.00  0.00    +0.000 C 
ATOM     17  C   UNL     1      -5.461   1.467 133.284  0.00  0.00    +0.000 C 
ATOM     18  O   UNL     1      -5.532   1.548 132.072  0.00  0.00    +0.000 OA
ATOM     19  C   UNL     1      -4.406   0.106 133.365  0.00  0.00    +0.000 C 
ATOM     20  N   UNL     1      -5.617  -1.091 133.531  0.00  0.00    +0.000 N 
ATOM     21  C   UNL     1      -5.583  -2.291 132.369  0.00  0.00    +0.000 C 
ATOM     22  O   UNL     1      -6.977  -3.370 132.264  0.00  0.00    +0.000 OA
ATOM     23  C   UNL     1      -5.091  -1.057 130.332  0.00  0.00    +0.000 C 
ATOM     24  N   UNL     1      -4.319  -2.304 129.835  0.00  0.00    +0.000 N 
ATOM     25  C   UNL     1      -4.414  -0.529 130.723  0.00  0.00    +0.000 C 
ATOM     26  O   UNL     1      -4.595  -2.370 130.160  0.00  0.00    +0.000 OA
ATOM     27  H   UNL     1      -2.053   5.629 134.057  0.00  0.00    +0.000 HD
ATOM     28  H   UNL     1      -2.635  11.697 134.404  0.00  0.00    +0.000 HD
ATOM     29  H   UNL     1      -5.754  -1.556 134.221  0.00  0.00    +0.000 HD
ATOM     30  H   UNL     1      -3.421  -2.470 129.694  0.00  0.00    +0.000 HD
ENDROOT
BRANCH  14  31
ATOM     31  C   UNL     1      -5.915   3.020 130.574  0.00  0.00    +0.000 C 
ATOM     32  O   UNL     1      -5.098   2.433 129.887  0.00  0.00    +0.000 OA
ATOM     33  N   UNL     1      -7.187   3.211 130.020  0.00  0.00    +0.000 N 
ATOM     34  C   UNL     1      -7.978   4.435 130.002  0.00  0.00    +0.000 C 
ATOM     35  C   UNL     1      -9.359   3.925 130.311  0.00  0.00    +0.000 C 
ATOM     36  C   UNL     1      -9.463   2.664 129.455  0.00  0.00    +0.000 C 
ATOM     37  C   UNL     1      -8.052   2.125 129.447  0.00  0.00    +0.000 C 
BRANCH  37  38
ATOM     38  C   UNL     1      -7.981   2.006 127.955  0.00  0.00    +0.000 C 
ATOM     39  O   UNL     1      -6.669   2.391 127.409  0.00  0.00    +0.000 OA
ATOM     40  N   UNL     1      -8.730   1.012 127.202  0.00  0.00    +0.000 N 
ATOM     41  H   UNL     1      -9.621   0.768 127.564  0.00  0.00    +0.000 HD
BRANCH  40  42
ATOM     42  C   UNL     1      -8.386   0.552 125.816  0.00  0.00    +0.000 C 
BRANCH  42  43
ATOM     43  C   UNL     1      -8.314   1.776 124.871  0.00  0.00    +0.000 C 
ATOM     44  O   UNL     1      -9.327   2.473 124.712  0.00  0.00    +0.000 OA
ATOM     45  N   UNL     1      -7.087   2.075 124.221  0.00  0.00    +0.000 N 
ATOM     46  H   UNL     1      -6.266   1.506 124.349  0.00  0.00    +0.000 HD
BRANCH  45  47
ATOM     47  C   UNL     1      -6.974   3.225 123.316  0.00  0.00    +0.000 C 
BRANCH  47  48
ATOM     48  C   UNL     1      -5.771   4.119 123.666  0.00  0.00    +0.000 C 
ATOM     49  N   UNL     1      -5.310   4.124 125.006  0.00  0.00    +0.000 N 
ATOM     50  O   UNL     1      -5.236   4.810 122.791  0.00  0.00    +0.000 OA
ATOM     51  H   UNL     1      -5.719   3.574 125.740  0.00  0.00    +0.000 HD
ATOM     52  H   UNL     1      -4.517   4.699 125.277  0.00  0.00    +0.000 HD
ENDBRANCH  47  48
ENDBRANCH  45  47
ENDBRANCH  42  43
BRANCH  42  53
ATOM     53  C   UNL     1      -9.380  -0.437 125.301  0.00  0.00    +0.000 C 
BRANCH  53  54
ATOM     54  C   UNL     1      -8.777  -1.809 125.130  0.00  0.00    +0.000 C 
ATOM     55  C   UNL     1      -9.385  -2.818 125.940  0.00  0.00    +0.000 C 
ATOM     56  C   UNL     1      -8.871  -2.337 123.800  0.00  0.00    +0.000 C 
ENDBRANCH  53  54
ENDBRANCH  42  53
ENDBRANCH  40  42
ENDBRANCH  37  38
ENDBRANCH  14  31
BRANCH   9  57
ATOM     57  N   UNL     1      -1.388   8.563 136.872  0.00  0.00    +0.000 NA
ATOM     58  H   UNL     1      -1.645   9.417 137.031  0.00  0.00    +0.000 HD
ATOM     59  H   UNL     1      -0.471   9.352 136.708  0.00  0.00    +0.000 HD
ENDBRANCH   9  57
BRANCH   1  60
ATOM     60  C   UNL     1      -5.765  -0.373 131.700  0.00  0.00    +0.000 C 
ATOM     61  C   UNL     1      -7.781  -1.857 131.236  0.00  0.00    +0.000 C 
BRANCH  60  63
ATOM     62  C   UNL     1      -5.996  -0.160 130.747  0.00  0.00    +0.000 C 
ATOM     63  C   UNL     1      -6.719  -1.982 131.451  0.00  0.00    +0.000 C 
ENDBRANCH  60  63
ENDBRANCH   1  60
BRANCH  19  64
ATOM     64  C   UNL     1      -2.929  -0.501 132.558  0.00  0.00    +0.000 C 
BRANCH  64  65
ATOM     65  C   UNL     1      -2.128  -1.266 133.505  0.00  0.00    +0.000 C 
ATOM     66  N   UNL     1      -1.418  -0.768 134.594  0.00  0.00    +0.000 N 
ATOM     67  O   UNL     1      -2.240  -2.467 133.541  0.00  0.00    +0.000 OA
ATOM     68  H   UNL     1      -1.288   0.420 134.918  0.00  0.00    +0.000 HD
ATOM     69  H   UNL     1      -0.635  -1.035 135.076  0.00  0.00    +0.000 HD
ENDBRANCH  64  65
ENDBRANCH  19  64
BRANCH   5  70
ATOM     70  C   UNL     1      -2.833  10.288 137.196  0.00  0.00    +0.000 C 
BRANCH  70  71
ATOM     71  C   UNL     1      -4.337  10.459 137.641  0.00  0.00    +0.000 A 
ATOM     72  C   UNL     1      -5.365   9.594 137.303  0.00  0.00    +0.000 A 
ATOM     73  C   UNL     1      -6.627   9.719 137.871  0.00  0.00    +0.000 A 
ATOM     74  C   UNL     1      -6.848  10.724 138.795  0.00  0.00    +0.000 A 
ATOM     75  C   UNL     1      -5.840  11.609 139.105  0.00  0.00    +0.000 A 
ATOM     76  C   UNL     1      -4.599  11.472 138.536  0.00  0.00    +0.000 A 
BRANCH  74  77
ATOM     77  O   UNL     1      -8.033  10.920 139.426  0.00  0.00    +0.000 OA
ATOM     78  H   UNL     1      -8.673  10.200 139.394  0.00  0.00    +0.000 HD
ENDBRANCH  74  77
ENDBRANCH  70  71
ENDBRANCH   5  70
BRANCH  23  79
ATOM     79  C   UNL     1      -6.325  -0.778 129.470  0.00  0.00    +0.000 C 
BRANCH  79  80
ATOM     80  C   UNL     1      -6.632  -1.640 128.184  0.00  0.00    +0.000 C 
BRANCH  80  81
ATOM     81  C   UNL     1      -5.630  -1.041 127.192  0.00  0.00    +0.000 C 
ATOM     82  N   UNL     1      -4.947   0.203 127.411  0.00  0.00    +0.000 N 
ATOM     83  O   UNL     1      -5.412  -1.696 126.156  0.00  0.00    +0.000 OA
ATOM     84  H   UNL     1      -5.106   0.808 128.246  0.00  0.00    +0.000 HD
ATOM     85  H   UNL     1      -4.189   0.541 126.862  0.00  0.00    +0.000 HD
ENDBRANCH  80  81
ENDBRANCH  79  80
ENDBRANCH  23  79
TORSDOF 19
ENDMDL
MODEL 5
REMARK VINA RESULT:      -9.3      2.296      3.485
REMARK  Name = CHEMBL3813894
REMARK  24 active torsions:
REMARK  status: ('A' for Active; 'I' for Inactive)
REMARK    1  A    between atoms: C_1  and  C_2
REMARK    2  A    between atoms: C_2  and  C_3
REMARK    3  A    between atoms: C_3  and  C_4
REMARK    4  A    between atoms: C_3  and  C_5
REMARK    5  A    between atoms: C_9  and  C_10
REMARK    6  A    between atoms: C_10  and  C_11
REMARK    7  A    between atoms: C_14  and  O_15
REMARK    8  A    between atoms: C_21  and  N_22
REMARK    9  A    between atoms: C_27  and  C_28
REMARK   10  A    between atoms: C_34  and  C_35
REMARK   11  A    between atoms: N_37  and  C_38
REMARK   12  A    between atoms: C_38  and  C_39
REMARK   13  A    between atoms: C_38  and  C_43
REMARK   14  A    between atoms: C_39  and  C_40
REMARK   15  A    between atoms: C_40  and  C_41
REMARK   16  A    between atoms: C_40  and  C_42
REMARK   17  A    between atoms: N_45  and  C_46
REMARK   18  A    between atoms: C_46  and  C_47
REMARK   19  A    between atoms: N_50  and  C_51
REMARK   20  A    between atoms: C_54  and  C_55
REMARK   21  A    between atoms: C_55  and  C_56
REMARK   22  A    between atoms: C_62  and  C_63
REMARK   23  A    between atoms: C_63  and  C_64
REMARK   24  A    between atoms: C_64  and  C_65
REMARK                            x       y       z     vdW  Elec       q    Type
REMARK                         _______ _______ _______ _____ _____    ______ ____
ROOT
ATOM      1  C   UNL     1      -4.560   1.311 130.529  0.00  0.00    +0.000 C 
ATOM      2  N   UNL     1      -3.376   3.486 132.069  0.00  0.00    +0.000 N 
ATOM      3  C   UNL     1      -2.372   5.659 133.527  0.00  0.00    +0.000 C 
ATOM      4  O   UNL     1      -1.241   6.689 134.678  0.00  0.00    +0.000 OA
ATOM      5  C   UNL     1      -2.213   8.145 134.902  0.00  0.00    +0.000 C 
ATOM      6  N   UNL     1      -2.549   9.777 134.591  0.00  0.00    +0.000 N 
ATOM      7  C   UNL     1      -2.516   8.715 133.785  0.00  0.00    +0.000 C 
ATOM      8  O   UNL     1      -2.670   8.671 132.606  0.00  0.00    +0.000 OA
ATOM      9  C   UNL     1      -2.719   7.139 134.205  0.00  0.00    +0.000 C 
ATOM     10  C   UNL     1      -3.522   6.133 134.601  0.00  0.00    +0.000 C 
ATOM     11  S   UNL     1      -3.716   6.160 132.436  0.00  0.00    +0.000 S 
ATOM     12  S   UNL     1      -5.013   4.658 132.517  0.00  0.00    +0.000 S 
ATOM     13  C   UNL     1      -5.081   4.138 130.747  0.00  0.00    +0.000 C 
ATOM     14  C   UNL     1      -6.156   3.139 130.603  0.00  0.00    +0.000 C 
ATOM     15  N   UNL     1      -5.765   2.121 131.479  0.00  0.00    +0.000 N 
ATOM     16  C   UNL     1      -5.382   1.893 132.764  0.00  0.00    +0.000 C 
ATOM     17  C   UNL     1      -6.102   0.879 131.564  0.00  0.00    +0.000 C 
ATOM     18  O   UNL     1      -6.127   1.133 130.374  0.00  0.00    +0.000 OA
ATOM     19  C   UNL     1      -5.111  -0.530 131.480  0.00  0.00    +0.000 C 
ATOM     20  N   UNL     1      -6.378  -1.678 131.440  0.00  0.00    +0.000 N 
ATOM     21  C   UNL     1      -6.356  -2.703 130.120  0.00  0.00    +0.000 C 
ATOM     22  O   UNL     1      -7.791  -3.688 129.825  0.00  0.00    +0.000 OA
ATOM     23  C   UNL     1      -5.741  -1.220 128.294  0.00  0.00    +0.000 C 
ATOM     24  N   UNL     1      -5.007  -2.420 127.647  0.00  0.00    +0.000 N 
ATOM     25  C   UNL     1      -5.055  -0.785 128.775  0.00  0.00    +0.000 C 
ATOM     26  O   UNL     1      -5.297  -2.518 127.951  0.00  0.00    +0.000 OA
ATOM     27  H   UNL     1      -2.543   4.722 133.015  0.00  0.00    +0.000 HD
ATOM     28  H   UNL     1      -2.871  10.702 134.204  0.00  0.00    +0.000 HD
ATOM     29  H   UNL     1      -6.558  -2.229 132.053  0.00  0.00    +0.000 HD
ATOM     30  H   UNL     1      -4.113  -2.608 127.509  0.00  0.00    +0.000 HD
ENDROOT
BRANCH  14  31
ATOM     31  C   UNL     1      -6.394   2.817 129.090  0.00  0.00    +0.000 C 
ATOM     32  O   UNL     1      -7.375   2.251 128.641  0.00  0.00    +0.000 OA
ATOM     33  N   UNL     1      -5.414   3.208 128.171  0.00  0.00    +0.000 N 
ATOM     34  C   UNL     1      -3.972   3.021 128.268  0.00  0.00    +0.000 C 
ATOM     35  C   UNL     1      -3.445   4.340 127.775  0.00  0.00    +0.000 C 
ATOM     36  C   UNL     1      -4.327   4.635 126.563  0.00  0.00    +0.000 C 
ATOM     37  C   UNL     1      -5.662   4.041 126.945  0.00  0.00    +0.000 C 
BRANCH  37  38
ATOM     38  C   UNL     1      -5.801   3.247 125.681  0.00  0.00    +0.000 C 
ATOM     39  O   UNL     1      -5.552   1.808 125.876  0.00  0.00    +0.000 OA
ATOM     40  N   UNL     1      -6.725   3.606 124.617  0.00  0.00    +0.000 N 
ATOM     41  H   UNL     1      -6.877   4.577 124.478  0.00  0.00    +0.000 HD
BRANCH  40  42
ATOM     42  C   UNL     1      -7.229   2.660 123.567  0.00  0.00    +0.000 C 
BRANCH  42  43
ATOM     43  C   UNL     1      -6.412   2.851 122.266  0.00  0.00    +0.000 C 
ATOM     44  O   UNL     1      -6.057   1.849 121.628  0.00  0.00    +0.000 OA
ATOM     45  N   UNL     1      -6.104   4.167 121.831  0.00  0.00    +0.000 N 
ATOM     46  H   UNL     1      -6.392   4.979 122.353  0.00  0.00    +0.000 HD
BRANCH  45  47
ATOM     47  C   UNL     1      -5.331   4.394 120.605  0.00  0.00    +0.000 C 
BRANCH  47  48
ATOM     48  C   UNL     1      -6.226   4.831 119.430  0.00  0.00    +0.000 C 
ATOM     49  N   UNL     1      -5.716   5.794 118.525  0.00  0.00    +0.000 N 
ATOM     50  O   UNL     1      -7.356   4.347 119.299  0.00  0.00    +0.000 OA
ATOM     51  H   UNL     1      -4.803   6.206 118.601  0.00  0.00    +0.000 HD
ATOM     52  H   UNL     1      -6.275   6.107 117.736  0.00  0.00    +0.000 HD
ENDBRANCH  47  48
ENDBRANCH  45  47
ENDBRANCH  42  43
BRANCH  42  53
ATOM     53  C   UNL     1      -8.684   2.862 123.295  0.00  0.00    +0.000 C 
BRANCH  53  54
ATOM     54  C   UNL     1      -9.517   1.699 123.772  0.00  0.00    +0.000 C 
ATOM     55  C   UNL     1      -9.162   0.447 123.180  0.00  0.00    +0.000 C 
ATOM     56  C   UNL     1      -9.431   1.447 125.181  0.00  0.00    +0.000 C 
ENDBRANCH  53  54
ENDBRANCH  42  53
ENDBRANCH  40  42
ENDBRANCH  37  38
ENDBRANCH  14  31
BRANCH   9  57
ATOM     57  N   UNL     1      -1.848   7.195 136.236  0.00  0.00    +0.000 NA
ATOM     58  H   UNL     1      -1.084   6.722 136.119  0.00  0.00    +0.000 HD
ATOM     59  H   UNL     1      -1.930   6.072 136.708  0.00  0.00    +0.000 HD
ENDBRANCH   9  57
BRANCH   1  60
ATOM     60  C   UNL     1      -6.431  -0.703 129.726  0.00  0.00    +0.000 C 
ATOM     61  C   UNL     1      -8.505  -2.021 129.059  0.00  0.00    +0.000 C 
BRANCH  60  63
ATOM     62  C   UNL     1      -6.522  -0.385 128.779  0.00  0.00    +0.000 C 
ATOM     63  C   UNL     1      -7.439  -2.208 129.198  0.00  0.00    +0.000 C 
ENDBRANCH  60  63
ENDBRANCH   1  60
BRANCH  19  64
ATOM     64  C   UNL     1      -3.634  -1.087 130.636  0.00  0.00    +0.000 C 
BRANCH  64  65
ATOM     65  C   UNL     1      -2.950  -2.085 131.447  0.00  0.00    +0.000 C 
ATOM     66  N   UNL     1      -2.306  -1.876 132.664  0.00  0.00    +0.000 N 
ATOM     67  O   UNL     1      -3.122  -3.257 131.216  0.00  0.00    +0.000 OA
ATOM     68  H   UNL     1      -2.145  -0.795 133.244  0.00  0.00    +0.000 HD
ATOM     69  H   UNL     1      -1.577  -2.289 133.128  0.00  0.00    +0.000 HD
ENDBRANCH  64  65
ENDBRANCH  19  64
BRANCH   5  70
ATOM     70  C   UNL     1      -3.227   8.925 136.761  0.00  0.00    +0.000 C 
BRANCH  70  71
ATOM     71  C   UNL     1      -4.709   8.865 137.299  0.00  0.00    +0.000 A 
ATOM     72  C   UNL     1      -5.481   9.972 137.615  0.00  0.00    +0.000 A 
ATOM     73  C   UNL     1      -6.830   9.844 137.921  0.00  0.00    +0.000 A 
ATOM     74  C   UNL     1      -7.405   8.586 137.900  0.00  0.00    +0.000 A 
ATOM     75  C   UNL     1      -6.633   7.480 137.623  0.00  0.00    +0.000 A 
ATOM     76  C   UNL     1      -5.302   7.623 137.323  0.00  0.00    +0.000 A 
BRANCH  74  77
ATOM     77  O   UNL     1      -8.716   8.352 138.159  0.00  0.00    +0.000 OA
ATOM     78  H   UNL     1      -9.150   8.936 138.792  0.00  0.00    +0.000 HD
ENDBRANCH  74  77
ENDBRANCH  70  71
ENDBRANCH   5  70
BRANCH  23  79
ATOM     79  C   UNL     1      -6.931  -0.763 127.447  0.00  0.00    +0.000 C 
BRANCH  79  80
ATOM     80  C   UNL     1      -6.878  -0.820 125.871  0.00  0.00    +0.000 C 
BRANCH  80  81
ATOM     81  C   UNL     1      -7.742  -2.056 125.598  0.00  0.00    +0.000 C 
ATOM     82  N   UNL     1      -9.176  -2.049 125.669  0.00  0.00    +0.000 N 
ATOM     83  O   UNL     1      -7.139  -3.101 125.293  0.00  0.00    +0.000 OA
ATOM     84  H   UNL     1      -9.735  -1.212 125.943  0.00  0.00    +0.000 HD
ATOM     85  H   UNL     1      -9.765  -2.787 125.356  0.00  0.00    +0.000 HD
ENDBRANCH  80  81
ENDBRANCH  79  80
ENDBRANCH  23  79
TORSDOF 19
ENDMDL
MODEL 6
REMARK VINA RESULT:      -9.3      2.023      3.104
REMARK  Name = CHEMBL3813894
REMARK  24 active torsions:
REMARK  status: ('A' for Active; 'I' for Inactive)
REMARK    1  A    between atoms: C_1  and  C_2
REMARK    2  A    between atoms: C_2  and  C_3
REMARK    3  A    between atoms: C_3  and  C_4
REMARK    4  A    between atoms: C_3  and  C_5
REMARK    5  A    between atoms: C_9  and  C_10
REMARK    6  A    between atoms: C_10  and  C_11
REMARK    7  A    between atoms: C_14  and  O_15
REMARK    8  A    between atoms: C_21  and  N_22
REMARK    9  A    between atoms: C_27  and  C_28
REMARK   10  A    between atoms: C_34  and  C_35
REMARK   11  A    between atoms: N_37  and  C_38
REMARK   12  A    between atoms: C_38  and  C_39
REMARK   13  A    between atoms: C_38  and  C_43
REMARK   14  A    between atoms: C_39  and  C_40
REMARK   15  A    between atoms: C_40  and  C_41
REMARK   16  A    between atoms: C_40  and  C_42
REMARK   17  A    between atoms: N_45  and  C_46
REMARK   18  A    between atoms: C_46  and  C_47
REMARK   19  A    between atoms: N_50  and  C_51
REMARK   20  A    between atoms: C_54  and  C_55
REMARK   21  A    between atoms: C_55  and  C_56
REMARK   22  A    between atoms: C_62  and  C_63
REMARK   23  A    between atoms: C_63  and  C_64
REMARK   24  A    between atoms: C_64  and  C_65
REMARK                            x       y       z     vdW  Elec       q    Type
REMARK                         _______ _______ _______ _____ _____    ______ ____
ROOT
ATOM      1  C   UNL     1      -3.692   0.527 132.576  0.00  0.00    +0.000 C 
ATOM      2  N   UNL     1      -2.616   3.199 133.024  0.00  0.00    +0.000 N 
ATOM      3  C   UNL     1      -1.729   5.824 133.449  0.00  0.00    +0.000 C 
ATOM      4  O   UNL     1      -0.576   7.289 133.888  0.00  0.00    +0.000 OA
ATOM      5  C   UNL     1      -1.727   8.626 133.944  0.00  0.00    +0.000 C 
ATOM      6  N   UNL     1      -2.427  10.020 133.281  0.00  0.00    +0.000 N 
ATOM      7  C   UNL     1      -2.382   8.762 132.841  0.00  0.00    +0.000 C 
ATOM      8  O   UNL     1      -2.796   8.317 131.818  0.00  0.00    +0.000 OA
ATOM      9  C   UNL     1      -2.182   7.399 133.739  0.00  0.00    +0.000 C 
ATOM     10  C   UNL     1      -2.666   6.501 134.617  0.00  0.00    +0.000 C 
ATOM     11  S   UNL     1      -3.359   5.794 132.682  0.00  0.00    +0.000 S 
ATOM     12  S   UNL     1      -4.295   4.274 133.554  0.00  0.00    +0.000 S 
ATOM     13  C   UNL     1      -4.673   3.197 132.103  0.00  0.00    +0.000 C 
ATOM     14  C   UNL     1      -5.544   2.098 132.562  0.00  0.00    +0.000 C 
ATOM     15  N   UNL     1      -4.775   1.473 133.548  0.00  0.00    +0.000 N 
ATOM     16  C   UNL     1      -4.068   1.722 134.683  0.00  0.00    +0.000 C 
ATOM     17  C   UNL     1      -4.842   0.299 134.080  0.00  0.00    +0.000 C 
ATOM     18  O   UNL     1      -5.190   0.143 132.924  0.00  0.00    +0.000 OA
ATOM     19  C   UNL     1      -3.650  -0.946 134.133  0.00  0.00    +0.000 C 
ATOM     20  N   UNL     1      -4.652  -2.170 134.784  0.00  0.00    +0.000 N 
ATOM     21  C   UNL     1      -4.745  -3.564 133.866  0.00  0.00    +0.000 C 
ATOM     22  O   UNL     1      -5.997  -4.737 134.282  0.00  0.00    +0.000 OA
ATOM     23  C   UNL     1      -4.861  -2.707 131.593  0.00  0.00    +0.000 C 
ATOM     24  N   UNL     1      -4.085  -3.970 131.142  0.00  0.00    +0.000 N 
ATOM     25  C   UNL     1      -4.177  -2.069 131.715  0.00  0.00    +0.000 C 
ATOM     26  O   UNL     1      -4.273  -3.992 131.530  0.00  0.00    +0.000 OA
ATOM     27  H   UNL     1      -1.835   4.758 133.299  0.00  0.00    +0.000 HD
ATOM     28  H   UNL     1      -2.999  10.727 132.750  0.00  0.00    +0.000 HD
ATOM     29  H   UNL     1      -4.578  -2.505 135.555  0.00  0.00    +0.000 HD
ATOM     30  H   UNL     1      -3.229  -4.097 130.820  0.00  0.00    +0.000 HD
ENDROOT
BRANCH  14  31
ATOM     31  C   UNL     1      -6.061   1.274 131.337  0.00  0.00    +0.000 C 
ATOM     32  O   UNL     1      -7.009   0.508 131.359  0.00  0.00    +0.000 OA
ATOM     33  N   UNL     1      -5.397   1.422 130.114  0.00  0.00    +0.000 N 
ATOM     34  C   UNL     1      -3.960   1.404 129.870  0.00  0.00    +0.000 C 
ATOM     35  C   UNL     1      -3.790   2.525 128.883  0.00  0.00    +0.000 C 
ATOM     36  C   UNL     1      -4.962   2.324 127.923  0.00  0.00    +0.000 C 
ATOM     37  C   UNL     1      -6.054   1.776 128.810  0.00  0.00    +0.000 C 
BRANCH  37  38
ATOM     38  C   UNL     1      -6.341   0.599 127.928  0.00  0.00    +0.000 C 
ATOM     39  O   UNL     1      -7.756   0.190 127.954  0.00  0.00    +0.000 OA
ATOM     40  N   UNL     1      -5.614   0.336 126.695  0.00  0.00    +0.000 N 
ATOM     41  H   UNL     1      -4.656   0.597 126.687  0.00  0.00    +0.000 HD
BRANCH  40  42
ATOM     42  C   UNL     1      -6.115  -0.526 125.575  0.00  0.00    +0.000 C 
BRANCH  42  43
ATOM     43  C   UNL     1      -7.075   0.296 124.681  0.00  0.00    +0.000 C 
ATOM     44  O   UNL     1      -6.853   0.363 123.464  0.00  0.00    +0.000 OA
ATOM     45  N   UNL     1      -8.191   0.942 125.277  0.00  0.00    +0.000 N 
ATOM     46  H   UNL     1      -8.368   0.888 126.268  0.00  0.00    +0.000 HD
BRANCH  45  47
ATOM     47  C   UNL     1      -9.126   1.732 124.469  0.00  0.00    +0.000 C 
BRANCH  47  48
ATOM     48  C   UNL     1      -8.615   3.164 124.229  0.00  0.00    +0.000 C 
ATOM     49  N   UNL     1      -7.949   3.439 123.009  0.00  0.00    +0.000 N 
ATOM     50  O   UNL     1      -8.787   4.036 125.088  0.00  0.00    +0.000 OA
ATOM     51  H   UNL     1      -7.794   2.756 122.289  0.00  0.00    +0.000 HD
ATOM     52  H   UNL     1      -7.599   4.373 122.812  0.00  0.00    +0.000 HD
ENDBRANCH  47  48
ENDBRANCH  45  47
ENDBRANCH  42  43
BRANCH  42  53
ATOM     53  C   UNL     1      -6.807  -1.747 126.085  0.00  0.00    +0.000 C 
BRANCH  53  54
ATOM     54  C   UNL     1      -6.497  -2.965 125.250  0.00  0.00    +0.000 C 
ATOM     55  C   UNL     1      -7.583  -3.402 124.431  0.00  0.00    +0.000 C 
ATOM     56  C   UNL     1      -5.419  -2.788 124.322  0.00  0.00    +0.000 C 
ENDBRANCH  53  54
ENDBRANCH  42  53
ENDBRANCH  40  42
ENDBRANCH  37  38
ENDBRANCH  14  31
BRANCH   9  57
ATOM     57  N   UNL     1      -0.889   8.211 135.337  0.00  0.00    +0.000 NA
ATOM     58  H   UNL     1      -0.197   8.548 134.858  0.00  0.00    +0.000 HD
ATOM     59  H   UNL     1       0.103   7.504 135.411  0.00  0.00    +0.000 HD
ENDBRANCH   9  57
BRANCH   1  60
ATOM     60  C   UNL     1      -5.284  -1.825 132.947  0.00  0.00    +0.000 C 
ATOM     61  C   UNL     1      -7.168  -3.498 133.316  0.00  0.00    +0.000 C 
BRANCH  60  63
ATOM     62  C   UNL     1      -5.563  -1.889 131.986  0.00  0.00    +0.000 C 
ATOM     63  C   UNL     1      -6.086  -3.518 133.174  0.00  0.00    +0.000 C 
ENDBRANCH  60  63
ENDBRANCH   1  60
BRANCH  19  64
ATOM     64  C   UNL     1      -2.332  -1.591 133.108  0.00  0.00    +0.000 C 
BRANCH  64  65
ATOM     65  C   UNL     1      -1.162  -1.871 133.929  0.00  0.00    +0.000 C 
ATOM     66  N   UNL     1      -0.254  -0.945 134.435  0.00  0.00    +0.000 N 
ATOM     67  O   UNL     1      -1.045  -2.956 134.445  0.00  0.00    +0.000 OA
ATOM     68  H   UNL     1      -0.242   0.275 134.228  0.00  0.00    +0.000 HD
ATOM     69  H   UNL     1       0.673  -0.963 134.677  0.00  0.00    +0.000 HD
ENDBRANCH  64  65
ENDBRANCH  19  64
BRANCH   5  70
ATOM     70  C   UNL     1      -2.409   9.863 135.704  0.00  0.00    +0.000 C 
BRANCH  70  71
ATOM     71  C   UNL     1      -3.628   9.758 136.699  0.00  0.00    +0.000 A 
ATOM     72  C   UNL     1      -4.090  10.794 137.496  0.00  0.00    +0.000 A 
ATOM     73  C   UNL     1      -5.270  10.674 138.220  0.00  0.00    +0.000 A 
ATOM     74  C   UNL     1      -5.994   9.498 138.131  0.00  0.00    +0.000 A 
ATOM     75  C   UNL     1      -5.519   8.453 137.369  0.00  0.00    +0.000 A 
ATOM     76  C   UNL     1      -4.352   8.587 136.661  0.00  0.00    +0.000 A 
BRANCH  74  77
ATOM     77  O   UNL     1      -7.168   9.285 138.774  0.00  0.00    +0.000 OA
ATOM     78  H   UNL     1      -7.216   9.549 139.701  0.00  0.00    +0.000 HD
ENDBRANCH  74  77
ENDBRANCH  70  71
ENDBRANCH   5  70
BRANCH  23  79
ATOM     79  C   UNL     1      -6.280  -2.683 131.019  0.00  0.00    +0.000 C 
BRANCH  79  80
ATOM     80  C   UNL     1      -6.626  -3.430 129.672  0.00  0.00    +0.000 C 
BRANCH  80  81
ATOM     81  C   UNL     1      -8.024  -2.872 129.386  0.00  0.00    +0.000 C 
ATOM     82  N   UNL     1      -8.525  -1.658 129.967  0.00  0.00    +0.000 N 
ATOM     83  O   UNL     1      -8.734  -3.522 128.596  0.00  0.00    +0.000 OA
ATOM     84  H   UNL     1      -7.989  -1.084 130.654  0.00  0.00    +0.000 HD
ATOM     85  H   UNL     1      -9.361  -1.196 129.689  0.00  0.00    +0.000 HD
ENDBRANCH  80  81
ENDBRANCH  79  80
ENDBRANCH  23  79
TORSDOF 19
ENDMDL
MODEL 7
REMARK VINA RESULT:      -9.3      3.491     11.804
REMARK  Name = CHEMBL3813894
REMARK  24 active torsions:
REMARK  status: ('A' for Active; 'I' for Inactive)
REMARK    1  A    between atoms: C_1  and  C_2
REMARK    2  A    between atoms: C_2  and  C_3
REMARK    3  A    between atoms: C_3  and  C_4
REMARK    4  A    between atoms: C_3  and  C_5
REMARK    5  A    between atoms: C_9  and  C_10
REMARK    6  A    between atoms: C_10  and  C_11
REMARK    7  A    between atoms: C_14  and  O_15
REMARK    8  A    between atoms: C_21  and  N_22
REMARK    9  A    between atoms: C_27  and  C_28
REMARK   10  A    between atoms: C_34  and  C_35
REMARK   11  A    between atoms: N_37  and  C_38
REMARK   12  A    between atoms: C_38  and  C_39
REMARK   13  A    between atoms: C_38  and  C_43
REMARK   14  A    between atoms: C_39  and  C_40
REMARK   15  A    between atoms: C_40  and  C_41
REMARK   16  A    between atoms: C_40  and  C_42
REMARK   17  A    between atoms: N_45  and  C_46
REMARK   18  A    between atoms: C_46  and  C_47
REMARK   19  A    between atoms: N_50  and  C_51
REMARK   20  A    between atoms: C_54  and  C_55
REMARK   21  A    between atoms: C_55  and  C_56
REMARK   22  A    between atoms: C_62  and  C_63
REMARK   23  A    between atoms: C_63  and  C_64
REMARK   24  A    between atoms: C_64  and  C_65
REMARK                            x       y       z     vdW  Elec       q    Type
REMARK                         _______ _______ _______ _____ _____    ______ ____
ROOT
ATOM      1  C   UNL     1      -5.855   4.777 132.462  0.00  0.00    +0.000 C 
ATOM      2  N   UNL     1      -6.796   4.346 129.737  0.00  0.00    +0.000 N 
ATOM      3  C   UNL     1      -7.559   3.870 127.082  0.00  0.00    +0.000 C 
ATOM      4  O   UNL     1      -8.665   3.680 125.530  0.00  0.00    +0.000 OA
ATOM      5  C   UNL     1      -7.533   2.952 124.388  0.00  0.00    +0.000 C 
ATOM      6  N   UNL     1      -6.510   3.040 123.040  0.00  0.00    +0.000 N 
ATOM      7  C   UNL     1      -6.473   3.667 124.217  0.00  0.00    +0.000 C 
ATOM      8  O   UNL     1      -5.715   4.504 124.590  0.00  0.00    +0.000 OA
ATOM      9  C   UNL     1      -7.137   3.164 125.634  0.00  0.00    +0.000 C 
ATOM     10  C   UNL     1      -7.132   2.331 126.692  0.00  0.00    +0.000 C 
ATOM     11  S   UNL     1      -5.767   3.926 127.253  0.00  0.00    +0.000 S 
ATOM     12  S   UNL     1      -5.400   3.025 128.985  0.00  0.00    +0.000 S 
ATOM     13  C   UNL     1      -4.551   4.369 129.924  0.00  0.00    +0.000 C 
ATOM     14  C   UNL     1      -4.039   3.796 131.183  0.00  0.00    +0.000 C 
ATOM     15  N   UNL     1      -5.194   3.313 131.806  0.00  0.00    +0.000 N 
ATOM     16  C   UNL     1      -6.282   2.523 131.596  0.00  0.00    +0.000 C 
ATOM     17  C   UNL     1      -5.448   3.003 133.032  0.00  0.00    +0.000 C 
ATOM     18  O   UNL     1      -4.670   3.936 133.096  0.00  0.00    +0.000 OA
ATOM     19  C   UNL     1      -6.654   3.634 134.090  0.00  0.00    +0.000 C 
ATOM     20  N   UNL     1      -6.114   2.857 135.515  0.00  0.00    +0.000 N 
ATOM     21  C   UNL     1      -5.768   3.884 136.787  0.00  0.00    +0.000 C 
ATOM     22  O   UNL     1      -4.899   3.213 138.169  0.00  0.00    +0.000 OA
ATOM     23  C   UNL     1      -4.657   5.748 135.689  0.00  0.00    +0.000 C 
ATOM     24  N   UNL     1      -5.280   6.674 136.763  0.00  0.00    +0.000 N 
ATOM     25  C   UNL     1      -5.275   5.800 134.979  0.00  0.00    +0.000 C 
ATOM     26  O   UNL     1      -5.272   6.253 136.858  0.00  0.00    +0.000 OA
ATOM     27  H   UNL     1      -7.490   4.142 128.126  0.00  0.00    +0.000 HD
ATOM     28  H   UNL     1      -5.714   3.177 122.364  0.00  0.00    +0.000 HD
ATOM     29  H   UNL     1      -6.525   2.246 135.925  0.00  0.00    +0.000 HD
ATOM     30  H   UNL     1      -5.936   7.323 136.727  0.00  0.00    +0.000 HD
ENDROOT
BRANCH  14  31
ATOM     31  C   UNL     1      -3.133   4.838 131.920  0.00  0.00    +0.000 C 
ATOM     32  O   UNL     1      -2.222   4.560 132.680  0.00  0.00    +0.000 OA
ATOM     33  N   UNL     1      -3.375   6.198 131.695  0.00  0.00    +0.000 N 
ATOM     34  C   UNL     1      -4.657   6.891 131.705  0.00  0.00    +0.000 C 
ATOM     35  C   UNL     1      -4.533   7.809 130.521  0.00  0.00    +0.000 C 
ATOM     36  C   UNL     1      -3.110   8.353 130.650  0.00  0.00    +0.000 C 
ATOM     37  C   UNL     1      -2.345   7.197 131.249  0.00  0.00    +0.000 C 
BRANCH  37  38
ATOM     38  C   UNL     1      -1.758   8.011 132.363  0.00  0.00    +0.000 C 
ATOM     39  O   UNL     1      -0.352   7.675 132.643  0.00  0.00    +0.000 OA
ATOM     40  N   UNL     1      -2.166   9.379 132.644  0.00  0.00    +0.000 N 
ATOM     41  H   UNL     1      -3.119   9.597 132.471  0.00  0.00    +0.000 HD
BRANCH  40  42
ATOM     42  C   UNL     1      -1.349  10.373 133.416  0.00  0.00    +0.000 C 
BRANCH  42  43
ATOM     43  C   UNL     1      -2.106  10.771 134.706  0.00  0.00    +0.000 C 
ATOM     44  O   UNL     1      -3.152  11.430 134.609  0.00  0.00    +0.000 OA
ATOM     45  N   UNL     1      -1.591  10.362 135.964  0.00  0.00    +0.000 N 
ATOM     46  H   UNL     1      -0.740   9.829 136.041  0.00  0.00    +0.000 HD
BRANCH  45  47
ATOM     47  C   UNL     1      -2.276  10.718 137.212  0.00  0.00    +0.000 C 
BRANCH  47  48
ATOM     48  C   UNL     1      -3.453   9.773 137.516  0.00  0.00    +0.000 C 
ATOM     49  N   UNL     1      -4.730  10.113 137.004  0.00  0.00    +0.000 N 
ATOM     50  O   UNL     1      -3.272   8.755 138.191  0.00  0.00    +0.000 OA
ATOM     51  H   UNL     1      -4.912  10.931 136.450  0.00  0.00    +0.000 HD
ATOM     52  H   UNL     1      -5.532   9.514 137.180  0.00  0.00    +0.000 HD
ENDBRANCH  47  48
ENDBRANCH  45  47
ENDBRANCH  42  43
BRANCH  42  53
ATOM     53  C   UNL     1      -1.045  11.588 132.602  0.00  0.00    +0.000 C 
BRANCH  53  54
ATOM     54  C   UNL     1       0.438  11.776 132.396  0.00  0.00    +0.000 C 
ATOM     55  C   UNL     1       0.771  12.824 131.483  0.00  0.00    +0.000 C 
ATOM     56  C   UNL     1       1.163  12.116 133.585  0.00  0.00    +0.000 C 
ENDBRANCH  53  54
ENDBRANCH  42  53
ENDBRANCH  40  42
ENDBRANCH  37  38
ENDBRANCH  14  31
BRANCH   9  57
ATOM     57  N   UNL     1      -8.900   2.092 124.843  0.00  0.00    +0.000 NA
ATOM     58  H   UNL     1      -9.006   2.488 124.034  0.00  0.00    +0.000 HD
ATOM     59  H   UNL     1      -9.840   2.871 124.837  0.00  0.00    +0.000 HD
ENDBRANCH   9  57
BRANCH   1  60
ATOM     60  C   UNL     1      -4.756   4.210 135.046  0.00  0.00    +0.000 C 
ATOM     61  C   UNL     1      -3.400   3.329 137.012  0.00  0.00    +0.000 C 
BRANCH  60  63
ATOM     62  C   UNL     1      -4.056   4.926 134.983  0.00  0.00    +0.000 C 
ATOM     63  C   UNL     1      -4.233   4.014 136.848  0.00  0.00    +0.000 C 
ENDBRANCH  60  63
ENDBRANCH   1  60
BRANCH  19  64
ATOM     64  C   UNL     1      -7.483   5.187 134.411  0.00  0.00    +0.000 C 
BRANCH  64  65
ATOM     65  C   UNL     1      -8.791   5.190 133.768  0.00  0.00    +0.000 C 
ATOM     66  N   UNL     1      -9.808   4.255 133.937  0.00  0.00    +0.000 N 
ATOM     67  O   UNL     1      -9.175   6.189 133.210  0.00  0.00    +0.000 OA
ATOM     68  H   UNL     1      -9.763   3.219 134.614  0.00  0.00    +0.000 HD
ATOM     69  H   UNL     1     -10.528   3.928 133.397  0.00  0.00    +0.000 HD
ENDBRANCH  64  65
ENDBRANCH  19  64
BRANCH   5  70
ATOM     70  C   UNL     1      -7.535   0.884 123.483  0.00  0.00    +0.000 C 
BRANCH  70  71
ATOM     71  C   UNL     1      -6.670  -0.412 123.730  0.00  0.00    +0.000 A 
ATOM     72  C   UNL     1      -6.186  -0.817 124.963  0.00  0.00    +0.000 A 
ATOM     73  C   UNL     1      -5.577  -2.055 125.126  0.00  0.00    +0.000 A 
ATOM     74  C   UNL     1      -5.463  -2.894 124.032  0.00  0.00    +0.000 A 
ATOM     75  C   UNL     1      -5.909  -2.480 122.797  0.00  0.00    +0.000 A 
ATOM     76  C   UNL     1      -6.508  -1.254 122.653  0.00  0.00    +0.000 A 
BRANCH  74  77
ATOM     77  O   UNL     1      -4.909  -4.131 124.085  0.00  0.00    +0.000 OA
ATOM     78  H   UNL     1      -5.238  -4.732 124.763  0.00  0.00    +0.000 HD
ENDBRANCH  74  77
ENDBRANCH  70  71
ENDBRANCH   5  70
BRANCH  23  79
ATOM     79  C   UNL     1      -3.131   5.705 135.800  0.00  0.00    +0.000 C 
BRANCH  79  80
ATOM     80  C   UNL     1      -2.248   6.945 135.383  0.00  0.00    +0.000 C 
BRANCH  80  81
ATOM     81  C   UNL     1      -1.208   6.948 136.508  0.00  0.00    +0.000 C 
ATOM     82  N   UNL     1      -1.385   6.251 137.751  0.00  0.00    +0.000 N 
ATOM     83  O   UNL     1      -0.162   7.589 136.298  0.00  0.00    +0.000 OA
ATOM     84  H   UNL     1      -2.248   5.718 137.995  0.00  0.00    +0.000 HD
ATOM     85  H   UNL     1      -0.674   6.112 138.432  0.00  0.00    +0.000 HD
ENDBRANCH  80  81
ENDBRANCH  79  80
ENDBRANCH  23  79
TORSDOF 19
ENDMDL
MODEL 8
REMARK VINA RESULT:      -9.2      4.317      8.769
REMARK  Name = CHEMBL3813894
REMARK  24 active torsions:
REMARK  status: ('A' for Active; 'I' for Inactive)
REMARK    1  A    between atoms: C_1  and  C_2
REMARK    2  A    between atoms: C_2  and  C_3
REMARK    3  A    between atoms: C_3  and  C_4
REMARK    4  A    between atoms: C_3  and  C_5
REMARK    5  A    between atoms: C_9  and  C_10
REMARK    6  A    between atoms: C_10  and  C_11
REMARK    7  A    between atoms: C_14  and  O_15
REMARK    8  A    between atoms: C_21  and  N_22
REMARK    9  A    between atoms: C_27  and  C_28
REMARK   10  A    between atoms: C_34  and  C_35
REMARK   11  A    between atoms: N_37  and  C_38
REMARK   12  A    between atoms: C_38  and  C_39
REMARK   13  A    between atoms: C_38  and  C_43
REMARK   14  A    between atoms: C_39  and  C_40
REMARK   15  A    between atoms: C_40  and  C_41
REMARK   16  A    between atoms: C_40  and  C_42
REMARK   17  A    between atoms: N_45  and  C_46
REMARK   18  A    between atoms: C_46  and  C_47
REMARK   19  A    between atoms: N_50  and  C_51
REMARK   20  A    between atoms: C_54  and  C_55
REMARK   21  A    between atoms: C_55  and  C_56
REMARK   22  A    between atoms: C_62  and  C_63
REMARK   23  A    between atoms: C_63  and  C_64
REMARK   24  A    between atoms: C_64  and  C_65
REMARK                            x       y       z     vdW  Elec       q    Type
REMARK                         _______ _______ _______ _____ _____    ______ ____
ROOT
ATOM      1  C   UNL     1      -6.198   1.632 132.341  0.00  0.00    +0.000 C 
ATOM      2  N   UNL     1      -6.115  -0.221 134.590  0.00  0.00    +0.000 N 
ATOM      3  C   UNL     1      -5.903  -2.063 136.692  0.00  0.00    +0.000 C 
ATOM      4  O   UNL     1      -6.218  -2.926 138.372  0.00  0.00    +0.000 OA
ATOM      5  C   UNL     1      -4.884  -4.080 138.421  0.00  0.00    +0.000 C 
ATOM      6  N   UNL     1      -4.266  -5.654 138.291  0.00  0.00    +0.000 N 
ATOM      7  C   UNL     1      -4.872  -4.868 137.399  0.00  0.00    +0.000 C 
ATOM      8  O   UNL     1      -5.178  -5.115 136.277  0.00  0.00    +0.000 OA
ATOM      9  C   UNL     1      -4.953  -3.226 137.412  0.00  0.00    +0.000 C 
ATOM     10  C   UNL     1      -4.358  -2.029 137.252  0.00  0.00    +0.000 C 
ATOM     11  S   UNL     1      -4.971  -2.601 135.247  0.00  0.00    +0.000 S 
ATOM     12  S   UNL     1      -4.181  -0.933 134.511  0.00  0.00    +0.000 S 
ATOM     13  C   UNL     1      -4.906  -0.901 132.815  0.00  0.00    +0.000 C 
ATOM     14  C   UNL     1      -4.263   0.192 132.061  0.00  0.00    +0.000 C 
ATOM     15  N   UNL     1      -4.561   1.324 132.826  0.00  0.00    +0.000 N 
ATOM     16  C   UNL     1      -4.492   1.819 134.091  0.00  0.00    +0.000 C 
ATOM     17  C   UNL     1      -4.557   2.583 132.542  0.00  0.00    +0.000 C 
ATOM     18  O   UNL     1      -4.903   2.028 131.516  0.00  0.00    +0.000 OA
ATOM     19  C   UNL     1      -5.845   3.726 132.633  0.00  0.00    +0.000 C 
ATOM     20  N   UNL     1      -5.032   5.022 131.867  0.00  0.00    +0.000 N 
ATOM     21  C   UNL     1      -5.806   5.636 130.519  0.00  0.00    +0.000 C 
ATOM     22  O   UNL     1      -4.894   6.737 129.482  0.00  0.00    +0.000 OA
ATOM     23  C   UNL     1      -6.631   3.636 129.410  0.00  0.00    +0.000 C 
ATOM     24  N   UNL     1      -7.840   4.476 128.928  0.00  0.00    +0.000 N 
ATOM     25  C   UNL     1      -6.952   3.235 130.201  0.00  0.00    +0.000 C 
ATOM     26  O   UNL     1      -7.496   4.699 129.061  0.00  0.00    +0.000 OA
ATOM     27  H   UNL     1      -6.185  -1.282 135.999  0.00  0.00    +0.000 HD
ATOM     28  H   UNL     1      -3.877  -6.579 137.974  0.00  0.00    +0.000 HD
ATOM     29  H   UNL     1      -4.792   5.738 132.240  0.00  0.00    +0.000 HD
ATOM     30  H   UNL     1      -8.738   4.464 129.146  0.00  0.00    +0.000 HD
ENDROOT
BRANCH  14  31
ATOM     31  C   UNL     1      -4.690   0.133 130.557  0.00  0.00    +0.000 C 
ATOM     32  O   UNL     1      -4.101   0.679 129.640  0.00  0.00    +0.000 OA
ATOM     33  N   UNL     1      -5.832  -0.604 130.223  0.00  0.00    +0.000 N 
ATOM     34  C   UNL     1      -7.134  -0.578 130.878  0.00  0.00    +0.000 C 
ATOM     35  C   UNL     1      -7.504  -2.035 130.909  0.00  0.00    +0.000 C 
ATOM     36  C   UNL     1      -7.102  -2.526 129.519  0.00  0.00    +0.000 C 
ATOM     37  C   UNL     1      -5.888  -1.691 129.188  0.00  0.00    +0.000 C 
BRANCH  37  38
ATOM     38  C   UNL     1      -6.413  -1.245 127.857  0.00  0.00    +0.000 C 
ATOM     39  O   UNL     1      -5.414  -1.347 126.780  0.00  0.00    +0.000 OA
ATOM     40  N   UNL     1      -7.806  -1.393 127.465  0.00  0.00    +0.000 N 
ATOM     41  H   UNL     1      -8.478  -1.307 128.190  0.00  0.00    +0.000 HD
BRANCH  40  42
ATOM     42  C   UNL     1      -8.300  -1.387 126.048  0.00  0.00    +0.000 C 
BRANCH  42  43
ATOM     43  C   UNL     1      -8.940  -0.013 125.732  0.00  0.00    +0.000 C 
ATOM     44  O   UNL     1      -9.134   0.787 126.659  0.00  0.00    +0.000 OA
ATOM     45  N   UNL     1      -9.276   0.299 124.388  0.00  0.00    +0.000 N 
ATOM     46  H   UNL     1      -9.120  -0.353 123.637  0.00  0.00    +0.000 HD
BRANCH  45  47
ATOM     47  C   UNL     1      -9.885   1.589 124.043  0.00  0.00    +0.000 C 
BRANCH  47  48
ATOM     48  C   UNL     1      -8.848   2.727 124.009  0.00  0.00    +0.000 C 
ATOM     49  N   UNL     1      -7.805   2.651 123.053  0.00  0.00    +0.000 N 
ATOM     50  O   UNL     1      -8.936   3.670 124.803  0.00  0.00    +0.000 OA
ATOM     51  H   UNL     1      -7.705   1.901 122.392  0.00  0.00    +0.000 HD
ATOM     52  H   UNL     1      -7.103   3.384 122.997  0.00  0.00    +0.000 HD
ENDBRANCH  47  48
ENDBRANCH  45  47
ENDBRANCH  42  43
BRANCH  42  53
ATOM     53  C   UNL     1      -9.287  -2.482 125.803  0.00  0.00    +0.000 C 
BRANCH  53  54
ATOM     54  C   UNL     1      -8.827  -3.427 124.721  0.00  0.00    +0.000 C 
ATOM     55  C   UNL     1      -9.465  -3.222 123.459  0.00  0.00    +0.000 C 
ATOM     56  C   UNL     1      -7.429  -3.341 124.415  0.00  0.00    +0.000 C 
ENDBRANCH  53  54
ENDBRANCH  42  53
ENDBRANCH  40  42
ENDBRANCH  37  38
ENDBRANCH  14  31
BRANCH   9  57
ATOM     57  N   UNL     1      -4.972  -2.885 139.595  0.00  0.00    +0.000 NA
ATOM     58  H   UNL     1      -4.086  -2.871 139.785  0.00  0.00    +0.000 HD
ATOM     59  H   UNL     1      -4.607  -3.915 140.138  0.00  0.00    +0.000 HD
ENDBRANCH   9  57
BRANCH   1  60
ATOM     60  C   UNL     1      -5.355   3.648 130.488  0.00  0.00    +0.000 C 
ATOM     61  C   UNL     1      -4.110   5.059 128.774  0.00  0.00    +0.000 C 
BRANCH  60  63
ATOM     62  C   UNL     1      -5.591   3.129 129.662  0.00  0.00    +0.000 C 
ATOM     63  C   UNL     1      -5.040   5.112 129.341  0.00  0.00    +0.000 C 
ENDBRANCH  60  63
ENDBRANCH   1  60
BRANCH  19  64
ATOM     64  C   UNL     1      -7.618   3.776 132.400  0.00  0.00    +0.000 C 
BRANCH  64  65
ATOM     65  C   UNL     1      -8.243   4.468 133.520  0.00  0.00    +0.000 C 
ATOM     66  N   UNL     1      -8.672   5.793 133.551  0.00  0.00    +0.000 N 
ATOM     67  O   UNL     1      -8.667   3.828 134.451  0.00  0.00    +0.000 OA
ATOM     68  H   UNL     1      -8.542   6.638 132.656  0.00  0.00    +0.000 HD
ATOM     69  H   UNL     1      -8.776   6.458 134.232  0.00  0.00    +0.000 HD
ENDBRANCH  64  65
ENDBRANCH  19  64
BRANCH   5  70
ATOM     70  C   UNL     1      -3.092  -4.149 139.792  0.00  0.00    +0.000 C 
BRANCH  70  71
ATOM     71  C   UNL     1      -1.553  -3.873 139.585  0.00  0.00    +0.000 A 
ATOM     72  C   UNL     1      -0.585  -4.014 140.566  0.00  0.00    +0.000 A 
ATOM     73  C   UNL     1       0.767  -3.916 140.263  0.00  0.00    +0.000 A 
ATOM     74  C   UNL     1       1.144  -3.680 138.953  0.00  0.00    +0.000 A 
ATOM     75  C   UNL     1       0.184  -3.502 137.982  0.00  0.00    +0.000 A 
ATOM     76  C   UNL     1      -1.147  -3.602 138.297  0.00  0.00    +0.000 A 
BRANCH  74  77
ATOM     77  O   UNL     1       2.434  -3.590 138.544  0.00  0.00    +0.000 OA
ATOM     78  H   UNL     1       3.047  -3.120 139.122  0.00  0.00    +0.000 HD
ENDBRANCH  74  77
ENDBRANCH  70  71
ENDBRANCH   5  70
BRANCH  23  79
ATOM     79  C   UNL     1      -5.759   3.180 128.238  0.00  0.00    +0.000 C 
BRANCH  79  80
ATOM     80  C   UNL     1      -6.336   3.114 126.770  0.00  0.00    +0.000 C 
BRANCH  80  81
ATOM     81  C   UNL     1      -5.473   1.999 126.172  0.00  0.00    +0.000 C 
ATOM     82  N   UNL     1      -4.218   1.584 126.732  0.00  0.00    +0.000 N 
ATOM     83  O   UNL     1      -5.916   1.435 125.154  0.00  0.00    +0.000 OA
ATOM     84  H   UNL     1      -3.783   2.034 127.567  0.00  0.00    +0.000 HD
ATOM     85  H   UNL     1      -3.711   0.773 126.457  0.00  0.00    +0.000 HD
ENDBRANCH  80  81
ENDBRANCH  79  80
ENDBRANCH  23  79
TORSDOF 19
ENDMDL
MODEL 9
REMARK VINA RESULT:      -9.1      2.705      2.984
REMARK  Name = CHEMBL3813894
REMARK  24 active torsions:
REMARK  status: ('A' for Active; 'I' for Inactive)
REMARK    1  A    between atoms: C_1  and  C_2
REMARK    2  A    between atoms: C_2  and  C_3
REMARK    3  A    between atoms: C_3  and  C_4
REMARK    4  A    between atoms: C_3  and  C_5
REMARK    5  A    between atoms: C_9  and  C_10
REMARK    6  A    between atoms: C_10  and  C_11
REMARK    7  A    between atoms: C_14  and  O_15
REMARK    8  A    between atoms: C_21  and  N_22
REMARK    9  A    between atoms: C_27  and  C_28
REMARK   10  A    between atoms: C_34  and  C_35
REMARK   11  A    between atoms: N_37  and  C_38
REMARK   12  A    between atoms: C_38  and  C_39
REMARK   13  A    between atoms: C_38  and  C_43
REMARK   14  A    between atoms: C_39  and  C_40
REMARK   15  A    between atoms: C_40  and  C_41
REMARK   16  A    between atoms: C_40  and  C_42
REMARK   17  A    between atoms: N_45  and  C_46
REMARK   18  A    between atoms: C_46  and  C_47
REMARK   19  A    between atoms: N_50  and  C_51
REMARK   20  A    between atoms: C_54  and  C_55
REMARK   21  A    between atoms: C_55  and  C_56
REMARK   22  A    between atoms: C_62  and  C_63
REMARK   23  A    between atoms: C_63  and  C_64
REMARK   24  A    between atoms: C_64  and  C_65
REMARK                            x       y       z     vdW  Elec       q    Type
REMARK                         _______ _______ _______ _____ _____    ______ ____
ROOT
ATOM      1  C   UNL     1      -4.342   1.025 132.867  0.00  0.00    +0.000 C 
ATOM      2  N   UNL     1      -3.829   2.834 135.096  0.00  0.00    +0.000 N 
ATOM      3  C   UNL     1      -3.472   4.646 137.204  0.00  0.00    +0.000 C 
ATOM      4  O   UNL     1      -2.768   5.444 138.796  0.00  0.00    +0.000 OA
ATOM      5  C   UNL     1      -3.959   6.711 139.101  0.00  0.00    +0.000 C 
ATOM      6  N   UNL     1      -4.444   8.335 139.095  0.00  0.00    +0.000 N 
ATOM      7  C   UNL     1      -4.092   7.516 138.102  0.00  0.00    +0.000 C 
ATOM      8  O   UNL     1      -3.983   7.757 136.942  0.00  0.00    +0.000 OA
ATOM      9  C   UNL     1      -4.159   5.873 138.095  0.00  0.00    +0.000 C 
ATOM     10  C   UNL     1      -4.880   4.737 138.048  0.00  0.00    +0.000 C 
ATOM     11  S   UNL     1      -4.608   5.292 135.964  0.00  0.00    +0.000 S 
ATOM     12  S   UNL     1      -5.671   3.715 135.389  0.00  0.00    +0.000 S 
ATOM     13  C   UNL     1      -5.286   3.653 133.585  0.00  0.00    +0.000 C 
ATOM     14  C   UNL     1      -6.156   2.636 132.965  0.00  0.00    +0.000 C 
ATOM     15  N   UNL     1      -5.823   1.467 133.656  0.00  0.00    +0.000 N 
ATOM     16  C   UNL     1      -5.695   0.956 134.910  0.00  0.00    +0.000 C 
ATOM     17  C   UNL     1      -5.994   0.219 133.375  0.00  0.00    +0.000 C 
ATOM     18  O   UNL     1      -5.799   0.761 132.303  0.00  0.00    +0.000 OA
ATOM     19  C   UNL     1      -4.822  -1.035 133.217  0.00  0.00    +0.000 C 
ATOM     20  N   UNL     1      -5.879  -2.238 132.616  0.00  0.00    +0.000 N 
ATOM     21  C   UNL     1      -5.433  -2.892 131.144  0.00  0.00    +0.000 C 
ATOM     22  O   UNL     1      -6.620  -3.887 130.297  0.00  0.00    +0.000 OA
ATOM     23  C   UNL     1      -4.654  -0.951 129.903  0.00  0.00    +0.000 C 
ATOM     24  N   UNL     1      -3.639  -1.885 129.198  0.00  0.00    +0.000 N 
ATOM     25  C   UNL     1      -4.154  -0.596 130.620  0.00  0.00    +0.000 C 
ATOM     26  O   UNL     1      -3.971  -2.080 129.393  0.00  0.00    +0.000 OA
ATOM     27  H   UNL     1      -3.398   3.857 136.468  0.00  0.00    +0.000 HD
ATOM     28  H   UNL     1      -4.802   9.297 138.860  0.00  0.00    +0.000 HD
ATOM     29  H   UNL     1      -6.107  -2.938 133.026  0.00  0.00    +0.000 HD
ATOM     30  H   UNL     1      -2.719  -1.957 129.241  0.00  0.00    +0.000 HD
ENDROOT
BRANCH  14  31
ATOM     31  C   UNL     1      -6.018   2.686 131.407  0.00  0.00    +0.000 C 
ATOM     32  O   UNL     1      -4.996   2.451 130.787  0.00  0.00    +0.000 OA
ATOM     33  N   UNL     1      -7.150   3.022 130.655  0.00  0.00    +0.000 N 
ATOM     34  C   UNL     1      -8.082   4.119 130.884  0.00  0.00    +0.000 C 
ATOM     35  C   UNL     1      -9.411   3.469 130.619  0.00  0.00    +0.000 C 
ATOM     36  C   UNL     1      -9.148   2.637 129.365  0.00  0.00    +0.000 C 
ATOM     37  C   UNL     1      -7.709   2.207 129.523  0.00  0.00    +0.000 C 
BRANCH  37  38
ATOM     38  C   UNL     1      -7.296   2.683 128.162  0.00  0.00    +0.000 C 
ATOM     39  O   UNL     1      -8.439   3.058 127.313  0.00  0.00    +0.000 OA
ATOM     40  N   UNL     1      -6.046   3.384 127.913  0.00  0.00    +0.000 N 
ATOM     41  H   UNL     1      -5.273   3.116 128.476  0.00  0.00    +0.000 HD
BRANCH  40  42
ATOM     42  C   UNL     1      -5.776   4.251 126.720  0.00  0.00    +0.000 C 
BRANCH  42  43
ATOM     43  C   UNL     1      -6.085   3.459 125.426  0.00  0.00    +0.000 C 
ATOM     44  O   UNL     1      -5.470   2.405 125.207  0.00  0.00    +0.000 OA
ATOM     45  N   UNL     1      -7.071   3.953 124.533  0.00  0.00    +0.000 N 
ATOM     46  H   UNL     1      -7.568   4.811 124.713  0.00  0.00    +0.000 HD
BRANCH  45  47
ATOM     47  C   UNL     1      -7.396   3.235 123.295  0.00  0.00    +0.000 C 
BRANCH  47  48
ATOM     48  C   UNL     1      -8.791   2.587 123.352  0.00  0.00    +0.000 C 
ATOM     49  N   UNL     1      -9.423   2.473 124.615  0.00  0.00    +0.000 N 
ATOM     50  O   UNL     1      -9.328   2.179 122.316  0.00  0.00    +0.000 OA
ATOM     51  H   UNL     1      -9.017   2.795 125.475  0.00  0.00    +0.000 HD
ATOM     52  H   UNL     1     -10.345   2.053 124.694  0.00  0.00    +0.000 HD
ENDBRANCH  47  48
ENDBRANCH  45  47
ENDBRANCH  42  43
BRANCH  42  53
ATOM     53  C   UNL     1      -4.363   4.738 126.700  0.00  0.00    +0.000 C 
BRANCH  53  54
ATOM     54  C   UNL     1      -3.471   3.924 127.604  0.00  0.00    +0.000 C 
ATOM     55  C   UNL     1      -2.415   3.244 126.922  0.00  0.00    +0.000 C 
ATOM     56  C   UNL     1      -2.791   4.689 128.609  0.00  0.00    +0.000 C 
ENDBRANCH  53  54
ENDBRANCH  42  53
ENDBRANCH  40  42
ENDBRANCH  37  38
ENDBRANCH  14  31
BRANCH   9  57
ATOM     57  N   UNL     1      -3.758   5.489 140.234  0.00  0.00    +0.000 NA
ATOM     58  H   UNL     1      -2.873   5.293 140.221  0.00  0.00    +0.000 HD
ATOM     59  H   UNL     1      -3.554   4.293 140.367  0.00  0.00    +0.000 HD
ENDBRANCH   9  57
BRANCH   1  60
ATOM     60  C   UNL     1      -5.699  -0.871 131.204  0.00  0.00    +0.000 C 
ATOM     61  C   UNL     1      -7.368  -2.132 129.753  0.00  0.00    +0.000 C 
BRANCH  60  63
ATOM     62  C   UNL     1      -5.657  -0.331 130.360  0.00  0.00    +0.000 C 
ATOM     63  C   UNL     1      -6.357  -2.280 130.135  0.00  0.00    +0.000 C 
ENDBRANCH  60  63
ENDBRANCH   1  60
BRANCH  19  64
ATOM     64  C   UNL     1      -3.136  -1.237 132.650  0.00  0.00    +0.000 C 
BRANCH  64  65
ATOM     65  C   UNL     1      -2.317  -1.784 133.724  0.00  0.00    +0.000 C 
ATOM     66  N   UNL     1      -1.879  -1.117 134.865  0.00  0.00    +0.000 N 
ATOM     67  O   UNL     1      -2.169  -2.979 133.808  0.00  0.00    +0.000 OA
ATOM     68  H   UNL     1      -2.053   0.077 135.142  0.00  0.00    +0.000 HD
ATOM     69  H   UNL     1      -1.125  -1.193 135.450  0.00  0.00    +0.000 HD
ENDBRANCH  64  65
ENDBRANCH  19  64
BRANCH   5  70
ATOM     70  C   UNL     1      -5.445   6.911 140.788  0.00  0.00    +0.000 C 
BRANCH  70  71
ATOM     71  C   UNL     1      -6.531   5.945 141.401  0.00  0.00    +0.000 A 
ATOM     72  C   UNL     1      -7.284   5.038 140.673  0.00  0.00    +0.000 A 
ATOM     73  C   UNL     1      -8.098   4.106 141.306  0.00  0.00    +0.000 A 
ATOM     74  C   UNL     1      -8.145   4.088 142.688  0.00  0.00    +0.000 A 
ATOM     75  C   UNL     1      -7.427   5.012 143.414  0.00  0.00    +0.000 A 
ATOM     76  C   UNL     1      -6.628   5.926 142.775  0.00  0.00    +0.000 A 
BRANCH  74  77
ATOM     77  O   UNL     1      -8.885   3.207 143.407  0.00  0.00    +0.000 OA
ATOM     78  H   UNL     1      -9.061   3.430 144.329  0.00  0.00    +0.000 HD
ENDBRANCH  74  77
ENDBRANCH  70  71
ENDBRANCH   5  70
BRANCH  23  79
ATOM     79  C   UNL     1      -5.687  -0.398 128.919  0.00  0.00    +0.000 C 
BRANCH  79  80
ATOM     80  C   UNL     1      -5.254   0.146 127.502  0.00  0.00    +0.000 C 
BRANCH  80  81
ATOM     81  C   UNL     1      -6.040  -0.794 126.581  0.00  0.00    +0.000 C 
ATOM     82  N   UNL     1      -7.072  -0.346 125.690  0.00  0.00    +0.000 N 
ATOM     83  O   UNL     1      -5.737  -2.000 126.626  0.00  0.00    +0.000 OA
ATOM     84  H   UNL     1      -7.387   0.647 125.625  0.00  0.00    +0.000 HD
ATOM     85  H   UNL     1      -7.492  -0.902 124.980  0.00  0.00    +0.000 HD
ENDBRANCH  80  81
ENDBRANCH  79  80
ENDBRANCH  23  79
TORSDOF 19
ENDMDL
