MODEL 1
REMARK VINA RESULT:     -10.5      0.000      0.000
REMARK  Name = CHEMBL66749
REMARK  9 active torsions:
REMARK  status: ('A' for Active; 'I' for Inactive)
REMARK    1  A    between atoms: C_1  and  O_2
REMARK    2  A    between atoms: O_2  and  C_3
REMARK    3  A    between atoms: C_5  and  O_6
REMARK    4  A    between atoms: O_6  and  C_7
REMARK    5  A    between atoms: N_10  and  C_11
REMARK    6  A    between atoms: C_11  and  C_12
REMARK    7  A    between atoms: C_11  and  C_13
REMARK    8  A    between atoms: C_23  and  C_24
REMARK    9  A    between atoms: C_29  and  N_30
REMARK                            x       y       z     vdW  Elec       q    Type
REMARK                         _______ _______ _______ _____ _____    ______ ____
ROOT
ATOM      1  C   UNL     1      -5.149   1.000 127.140  0.00  0.00    +0.000 A 
ATOM      2  C   UNL     1      -5.349  -0.023 126.114  0.00  0.00    +0.000 A 
ATOM      3  C   UNL     1      -5.578  -1.312 126.448  0.00  0.00    +0.000 A 
ATOM      4  C   UNL     1      -5.344  -1.435 127.762  0.00  0.00    +0.000 A 
ATOM      5  C   UNL     1      -5.364  -0.490 128.781  0.00  0.00    +0.000 A 
ATOM      6  C   UNL     1      -5.191   0.795 128.536  0.00  0.00    +0.000 A 
ENDROOT
BRANCH   6   7
ATOM      7  C   UNL     1      -5.016   1.526 129.883  0.00  0.00    +0.000 C 
ATOM      8  O   UNL     1      -3.959   1.456 130.525  0.00  0.00    +0.000 OA
ATOM      9  N   UNL     1      -6.038   2.346 130.334  0.00  0.00    +0.000 N 
ATOM     10  C   UNL     1      -5.816   3.809 130.197  0.00  0.00    +0.000 C 
ATOM     11  C   UNL     1      -6.727   4.566 131.137  0.00  0.00    +0.000 C 
ATOM     12  C   UNL     1      -8.455   4.301 130.829  0.00  0.00    +0.000 C 
ATOM     13  C   UNL     1      -8.363   2.589 131.182  0.00  0.00    +0.000 C 
ATOM     14  C   UNL     1      -7.409   1.828 130.288  0.00  0.00    +0.000 C 
BRANCH  12  15
ATOM     15  N   UNL     1      -9.610   5.389 129.893  0.00  0.00    +0.000 N 
ATOM     16  C   UNL     1     -10.231   5.456 131.209  0.00  0.00    +0.000 C 
ATOM     17  O   UNL     1     -10.545   4.483 132.012  0.00  0.00    +0.000 OA
ATOM     18  O   UNL     1     -10.283   6.660 131.715  0.00  0.00    +0.000 OA
ATOM     19  C   UNL     1     -11.634   6.891 131.564  0.00  0.00    +0.000 C 
ATOM     20  C   UNL     1     -11.569   7.476 130.234  0.00  0.00    +0.000 A 
ATOM     21  C   UNL     1     -12.592   8.630 130.185  0.00  0.00    +0.000 A 
ATOM     22  C   UNL     1     -13.091   9.225 129.070  0.00  0.00    +0.000 A 
ATOM     23  C   UNL     1     -12.511   8.621 127.978  0.00  0.00    +0.000 A 
ATOM     24  C   UNL     1     -11.391   7.391 128.057  0.00  0.00    +0.000 A 
ATOM     25  C   UNL     1     -10.762   6.731 129.306  0.00  0.00    +0.000 A 
ENDBRANCH  12  15
ENDBRANCH   6   7
BRANCH   1  27
ATOM     26  C   UNL     1      -3.594   2.559 126.782  0.00  0.00    +0.000 C 
ATOM     27  O   UNL     1      -4.924   2.197 126.532  0.00  0.00    +0.000 OA
ENDBRANCH   1  27
BRANCH   3  28
ATOM     28  O   UNL     1      -6.041  -2.345 125.675  0.00  0.00    +0.000 OA
BRANCH  28  29
ATOM     29  C   UNL     1      -7.456  -2.872 125.691  0.00  0.00    +0.000 C 
ATOM     30  C   UNL     1      -7.987  -3.447 124.366  0.00  0.00    +0.000 C 
ATOM     31  C   UNL     1      -8.296  -2.333 123.383  0.00  0.00    +0.000 C 
ATOM     32  N   UNL     1      -9.151  -1.186 123.980  0.00  0.00    +0.000 NA
ATOM     33  C   UNL     1      -8.898  -0.824 125.451  0.00  0.00    +0.000 C 
ATOM     34  C   UNL     1      -8.546  -1.990 126.322  0.00  0.00    +0.000 C 
BRANCH  32  35
ATOM     35  C   UNL     1      -9.118   0.063 123.119  0.00  0.00    +0.000 C 
ATOM     36  C   UNL     1     -10.446   0.273 122.347  0.00  0.00    +0.000 C 
BRANCH  35  37
ATOM     37  C   UNL     1      -8.506   1.306 123.703  0.00  0.00    +0.000 A 
ATOM     38  C   UNL     1      -7.198   1.706 123.367  0.00  0.00    +0.000 A 
ATOM     39  C   UNL     1      -6.637   2.812 123.948  0.00  0.00    +0.000 A 
ATOM     40  C   UNL     1      -7.483   3.608 124.685  0.00  0.00    +0.000 A 
ATOM     41  N   UNL     1      -8.801   3.370 124.874  0.00  0.00    +0.000 NA
ATOM     42  C   UNL     1      -9.281   2.218 124.385  0.00  0.00    +0.000 A 
ENDBRANCH  35  37
ENDBRANCH  32  35
ENDBRANCH  28  29
ENDBRANCH   3  28
TORSDOF 7
ENDMDL
MODEL 2
REMARK VINA RESULT:     -10.2      2.632      8.914
REMARK  Name = CHEMBL66749
REMARK  9 active torsions:
REMARK  status: ('A' for Active; 'I' for Inactive)
REMARK    1  A    between atoms: C_1  and  O_2
REMARK    2  A    between atoms: O_2  and  C_3
REMARK    3  A    between atoms: C_5  and  O_6
REMARK    4  A    between atoms: O_6  and  C_7
REMARK    5  A    between atoms: N_10  and  C_11
REMARK    6  A    between atoms: C_11  and  C_12
REMARK    7  A    between atoms: C_11  and  C_13
REMARK    8  A    between atoms: C_23  and  C_24
REMARK    9  A    between atoms: C_29  and  N_30
REMARK                            x       y       z     vdW  Elec       q    Type
REMARK                         _______ _______ _______ _____ _____    ______ ____
ROOT
ATOM      1  C   UNL     1      -4.449   5.960 131.148  0.00  0.00    +0.000 A 
ATOM      2  C   UNL     1      -5.095   5.640 132.421  0.00  0.00    +0.000 A 
ATOM      3  C   UNL     1      -5.362   4.361 132.766  0.00  0.00    +0.000 A 
ATOM      4  C   UNL     1      -5.153   3.599 131.683  0.00  0.00    +0.000 A 
ATOM      5  C   UNL     1      -4.363   3.814 130.560  0.00  0.00    +0.000 A 
ATOM      6  C   UNL     1      -4.021   5.029 130.177  0.00  0.00    +0.000 A 
ENDROOT
BRANCH   6   7
ATOM      7  C   UNL     1      -3.373   4.933 128.781  0.00  0.00    +0.000 C 
ATOM      8  O   UNL     1      -2.234   5.369 128.564  0.00  0.00    +0.000 OA
ATOM      9  N   UNL     1      -4.053   4.263 127.775  0.00  0.00    +0.000 N 
ATOM     10  C   UNL     1      -3.558   2.904 127.438  0.00  0.00    +0.000 C 
ATOM     11  C   UNL     1      -4.029   2.503 126.059  0.00  0.00    +0.000 C 
ATOM     12  C   UNL     1      -5.795   2.437 125.895  0.00  0.00    +0.000 C 
ATOM     13  C   UNL     1      -5.995   4.143 126.228  0.00  0.00    +0.000 C 
ATOM     14  C   UNL     1      -5.473   4.571 127.582  0.00  0.00    +0.000 C 
BRANCH  12  15
ATOM     15  N   UNL     1      -6.875   0.946 125.975  0.00  0.00    +0.000 N 
ATOM     16  C   UNL     1      -6.950   1.221 124.547  0.00  0.00    +0.000 C 
ATOM     17  O   UNL     1      -7.205   2.344 123.944  0.00  0.00    +0.000 OA
ATOM     18  O   UNL     1      -6.501   0.252 123.793  0.00  0.00    +0.000 OA
ATOM     19  C   UNL     1      -7.706  -0.210 123.308  0.00  0.00    +0.000 C 
ATOM     20  C   UNL     1      -7.963  -1.180 124.361  0.00  0.00    +0.000 A 
ATOM     21  C   UNL     1      -8.595  -2.424 123.702  0.00  0.00    +0.000 A 
ATOM     22  C   UNL     1      -9.280  -3.414 124.329  0.00  0.00    +0.000 A 
ATOM     23  C   UNL     1      -9.304  -3.121 125.674  0.00  0.00    +0.000 A 
ATOM     24  C   UNL     1      -8.596  -1.782 126.366  0.00  0.00    +0.000 A 
ATOM     25  C   UNL     1      -7.763  -0.667 125.690  0.00  0.00    +0.000 A 
ENDBRANCH  12  15
ENDBRANCH   6   7
BRANCH   1  27
ATOM     26  C   UNL     1      -3.120   7.670 131.683  0.00  0.00    +0.000 C 
ATOM     27  O   UNL     1      -4.316   7.311 131.049  0.00  0.00    +0.000 OA
ENDBRANCH   1  27
BRANCH   3  28
ATOM     28  O   UNL     1      -5.707   3.840 133.986  0.00  0.00    +0.000 OA
BRANCH  28  29
ATOM     29  C   UNL     1      -7.122   3.689 134.494  0.00  0.00    +0.000 C 
ATOM     30  C   UNL     1      -8.083   2.880 133.606  0.00  0.00    +0.000 C 
ATOM     31  C   UNL     1      -8.490   3.682 132.384  0.00  0.00    +0.000 C 
ATOM     32  N   UNL     1      -8.964   5.124 132.707  0.00  0.00    +0.000 NA
ATOM     33  C   UNL     1      -8.256   5.844 133.863  0.00  0.00    +0.000 C 
ATOM     34  C   UNL     1      -7.847   4.949 134.992  0.00  0.00    +0.000 C 
BRANCH  32  35
ATOM     35  C   UNL     1      -8.992   6.008 131.475  0.00  0.00    +0.000 C 
ATOM     36  C   UNL     1      -8.205   5.384 130.292  0.00  0.00    +0.000 C 
BRANCH  35  37
ATOM     37  C   UNL     1     -10.293   6.667 131.109  0.00  0.00    +0.000 A 
ATOM     38  C   UNL     1     -10.452   7.343 129.884  0.00  0.00    +0.000 A 
ATOM     39  C   UNL     1     -11.627   7.983 129.588  0.00  0.00    +0.000 A 
ATOM     40  C   UNL     1     -12.681   7.741 130.438  0.00  0.00    +0.000 A 
ATOM     41  N   UNL     1     -12.632   6.937 131.523  0.00  0.00    +0.000 NA
ATOM     42  C   UNL     1     -11.435   6.424 131.840  0.00  0.00    +0.000 A 
ENDBRANCH  35  37
ENDBRANCH  32  35
ENDBRANCH  28  29
ENDBRANCH   3  28
TORSDOF 7
ENDMDL
MODEL 3
REMARK VINA RESULT:     -10.1      3.510      6.886
REMARK  Name = CHEMBL66749
REMARK  9 active torsions:
REMARK  status: ('A' for Active; 'I' for Inactive)
REMARK    1  A    between atoms: C_1  and  O_2
REMARK    2  A    between atoms: O_2  and  C_3
REMARK    3  A    between atoms: C_5  and  O_6
REMARK    4  A    between atoms: O_6  and  C_7
REMARK    5  A    between atoms: N_10  and  C_11
REMARK    6  A    between atoms: C_11  and  C_12
REMARK    7  A    between atoms: C_11  and  C_13
REMARK    8  A    between atoms: C_23  and  C_24
REMARK    9  A    between atoms: C_29  and  N_30
REMARK                            x       y       z     vdW  Elec       q    Type
REMARK                         _______ _______ _______ _____ _____    ______ ____
ROOT
ATOM      1  C   UNL     1      -8.543   2.628 123.465  0.00  0.00    +0.000 A 
ATOM      2  C   UNL     1      -8.875   1.295 122.962  0.00  0.00    +0.000 A 
ATOM      3  C   UNL     1      -9.194   0.289 123.806  0.00  0.00    +0.000 A 
ATOM      4  C   UNL     1      -8.911   0.702 125.050  0.00  0.00    +0.000 A 
ATOM      5  C   UNL     1      -8.806   1.982 125.580  0.00  0.00    +0.000 A 
ATOM      6  C   UNL     1      -8.538   3.026 124.819  0.00  0.00    +0.000 A 
ENDROOT
BRANCH   6   7
ATOM      7  C   UNL     1      -8.241   4.231 125.736  0.00  0.00    +0.000 C 
ATOM      8  O   UNL     1      -8.931   5.259 125.697  0.00  0.00    +0.000 OA
ATOM      9  N   UNL     1      -7.234   4.116 126.681  0.00  0.00    +0.000 N 
ATOM     10  C   UNL     1      -7.672   3.920 128.087  0.00  0.00    +0.000 C 
ATOM     11  C   UNL     1      -6.559   4.300 129.038  0.00  0.00    +0.000 C 
ATOM     12  C   UNL     1      -5.086   3.331 128.843  0.00  0.00    +0.000 C 
ATOM     13  C   UNL     1      -4.815   3.882 127.204  0.00  0.00    +0.000 C 
ATOM     14  C   UNL     1      -5.947   3.561 126.253  0.00  0.00    +0.000 C 
BRANCH  12  15
ATOM     15  N   UNL     1      -4.553   1.881 129.847  0.00  0.00    +0.000 N 
ATOM     16  C   UNL     1      -4.018   2.955 130.673  0.00  0.00    +0.000 C 
ATOM     17  O   UNL     1      -3.292   3.973 130.317  0.00  0.00    +0.000 OA
ATOM     18  O   UNL     1      -4.508   2.993 131.884  0.00  0.00    +0.000 OA
ATOM     19  C   UNL     1      -3.408   2.527 132.570  0.00  0.00    +0.000 C 
ATOM     20  C   UNL     1      -3.741   1.113 132.505  0.00  0.00    +0.000 A 
ATOM     21  C   UNL     1      -3.348   0.480 133.856  0.00  0.00    +0.000 A 
ATOM     22  C   UNL     1      -3.180  -0.843 134.114  0.00  0.00    +0.000 A 
ATOM     23  C   UNL     1      -3.435  -1.532 132.951  0.00  0.00    +0.000 A 
ATOM     24  C   UNL     1      -3.880  -0.829 131.508  0.00  0.00    +0.000 A 
ATOM     25  C   UNL     1      -4.134   0.665 131.195  0.00  0.00    +0.000 A 
ENDBRANCH  12  15
ENDBRANCH   6   7
BRANCH   1  27
ATOM     26  C   UNL     1      -6.869   3.350 122.180  0.00  0.00    +0.000 C 
ATOM     27  O   UNL     1      -8.247   3.436 122.410  0.00  0.00    +0.000 OA
ENDBRANCH   1  27
BRANCH   3  28
ATOM     28  O   UNL     1      -9.776  -0.923 123.539  0.00  0.00    +0.000 OA
BRANCH  28  29
ATOM     29  C   UNL     1      -9.023  -2.211 123.303  0.00  0.00    +0.000 C 
ATOM     30  C   UNL     1      -9.063  -3.245 124.443  0.00  0.00    +0.000 C 
ATOM     31  C   UNL     1      -8.177  -2.809 125.595  0.00  0.00    +0.000 C 
ATOM     32  N   UNL     1      -6.752  -2.375 125.164  0.00  0.00    +0.000 NA
ATOM     33  C   UNL     1      -6.625  -1.647 123.818  0.00  0.00    +0.000 C 
ATOM     34  C   UNL     1      -7.584  -2.117 122.768  0.00  0.00    +0.000 C 
BRANCH  32  35
ATOM     35  C   UNL     1      -6.036  -1.597 126.251  0.00  0.00    +0.000 C 
ATOM     36  C   UNL     1      -5.492  -0.239 125.734  0.00  0.00    +0.000 C 
BRANCH  35  37
ATOM     37  C   UNL     1      -6.657  -1.564 127.620  0.00  0.00    +0.000 A 
ATOM     38  C   UNL     1      -6.492  -2.632 128.525  0.00  0.00    +0.000 A 
ATOM     39  C   UNL     1      -7.108  -2.611 129.748  0.00  0.00    +0.000 A 
ATOM     40  C   UNL     1      -7.692  -1.420 130.114  0.00  0.00    +0.000 A 
ATOM     41  N   UNL     1      -7.704  -0.299 129.358  0.00  0.00    +0.000 NA
ATOM     42  C   UNL     1      -7.193  -0.400 128.123  0.00  0.00    +0.000 A 
ENDBRANCH  35  37
ENDBRANCH  32  35
ENDBRANCH  28  29
ENDBRANCH   3  28
TORSDOF 7
ENDMDL
MODEL 4
REMARK VINA RESULT:     -10.0      1.821      2.619
REMARK  Name = CHEMBL66749
REMARK  9 active torsions:
REMARK  status: ('A' for Active; 'I' for Inactive)
REMARK    1  A    between atoms: C_1  and  O_2
REMARK    2  A    between atoms: O_2  and  C_3
REMARK    3  A    between atoms: C_5  and  O_6
REMARK    4  A    between atoms: O_6  and  C_7
REMARK    5  A    between atoms: N_10  and  C_11
REMARK    6  A    between atoms: C_11  and  C_12
REMARK    7  A    between atoms: C_11  and  C_13
REMARK    8  A    between atoms: C_23  and  C_24
REMARK    9  A    between atoms: C_29  and  N_30
REMARK                            x       y       z     vdW  Elec       q    Type
REMARK                         _______ _______ _______ _____ _____    ______ ____
ROOT
ATOM      1  C   UNL     1      -6.775  -2.451 129.442  0.00  0.00    +0.000 A 
ATOM      2  C   UNL     1      -7.687  -3.181 128.562  0.00  0.00    +0.000 A 
ATOM      3  C   UNL     1      -8.242  -2.585 127.483  0.00  0.00    +0.000 A 
ATOM      4  C   UNL     1      -7.984  -1.273 127.570  0.00  0.00    +0.000 A 
ATOM      5  C   UNL     1      -6.979  -0.587 128.241  0.00  0.00    +0.000 A 
ATOM      6  C   UNL     1      -6.357  -1.113 129.279  0.00  0.00    +0.000 A 
ENDROOT
BRANCH   6   7
ATOM      7  C   UNL     1      -5.496  -0.014 129.936  0.00  0.00    +0.000 C 
ATOM      8  O   UNL     1      -4.259  -0.063 129.918  0.00  0.00    +0.000 OA
ATOM      9  N   UNL     1      -6.130   1.093 130.479  0.00  0.00    +0.000 N 
ATOM     10  C   UNL     1      -6.055   2.348 129.687  0.00  0.00    +0.000 C 
ATOM     11  C   UNL     1      -6.328   3.542 130.573  0.00  0.00    +0.000 C 
ATOM     12  C   UNL     1      -7.938   3.528 131.319  0.00  0.00    +0.000 C 
ATOM     13  C   UNL     1      -7.626   2.057 132.215  0.00  0.00    +0.000 C 
ATOM     14  C   UNL     1      -7.292   0.867 131.344  0.00  0.00    +0.000 C 
BRANCH  12  15
ATOM     15  N   UNL     1      -9.444   4.433 130.761  0.00  0.00    +0.000 N 
ATOM     16  C   UNL     1      -8.573   5.566 131.041  0.00  0.00    +0.000 C 
ATOM     17  O   UNL     1      -7.861   5.805 132.103  0.00  0.00    +0.000 OA
ATOM     18  O   UNL     1      -8.330   6.323 130.004  0.00  0.00    +0.000 OA
ATOM     19  C   UNL     1      -9.103   7.410 130.353  0.00  0.00    +0.000 C 
ATOM     20  C   UNL     1     -10.333   6.967 129.714  0.00  0.00    +0.000 A 
ATOM     21  C   UNL     1     -11.007   8.209 129.095  0.00  0.00    +0.000 A 
ATOM     22  C   UNL     1     -12.302   8.316 128.698  0.00  0.00    +0.000 A 
ATOM     23  C   UNL     1     -12.914   7.107 128.935  0.00  0.00    +0.000 A 
ATOM     24  C   UNL     1     -12.159   5.771 129.584  0.00  0.00    +0.000 A 
ATOM     25  C   UNL     1     -10.678   5.598 129.994  0.00  0.00    +0.000 A 
ENDBRANCH  12  15
ENDBRANCH   6   7
BRANCH   1  27
ATOM     26  C   UNL     1      -7.177  -2.998 131.567  0.00  0.00    +0.000 C 
ATOM     27  O   UNL     1      -6.380  -3.276 130.450  0.00  0.00    +0.000 OA
ENDBRANCH   1  27
BRANCH   3  28
ATOM     28  O   UNL     1      -8.891  -3.146 126.414  0.00  0.00    +0.000 OA
BRANCH  28  29
ATOM     29  C   UNL     1      -8.230  -3.561 125.120  0.00  0.00    +0.000 C 
ATOM     30  C   UNL     1      -6.852  -2.942 124.827  0.00  0.00    +0.000 C 
ATOM     31  C   UNL     1      -6.993  -1.487 124.418  0.00  0.00    +0.000 C 
ATOM     32  N   UNL     1      -8.060  -1.243 123.319  0.00  0.00    +0.000 NA
ATOM     33  C   UNL     1      -9.317  -2.123 123.365  0.00  0.00    +0.000 C 
ATOM     34  C   UNL     1      -9.075  -3.523 123.836  0.00  0.00    +0.000 C 
BRANCH  32  35
ATOM     35  C   UNL     1      -8.446   0.219 123.210  0.00  0.00    +0.000 C 
ATOM     36  C   UNL     1      -9.898   0.402 122.696  0.00  0.00    +0.000 C 
BRANCH  35  37
ATOM     37  C   UNL     1      -8.034   1.143 124.322  0.00  0.00    +0.000 A 
ATOM     38  C   UNL     1      -6.854   1.908 124.240  0.00  0.00    +0.000 A 
ATOM     39  C   UNL     1      -6.465   2.704 125.285  0.00  0.00    +0.000 A 
ATOM     40  C   UNL     1      -7.385   2.876 126.293  0.00  0.00    +0.000 A 
ATOM     41  N   UNL     1      -8.616   2.318 126.322  0.00  0.00    +0.000 NA
ATOM     42  C   UNL     1      -8.909   1.455 125.338  0.00  0.00    +0.000 A 
ENDBRANCH  35  37
ENDBRANCH  32  35
ENDBRANCH  28  29
ENDBRANCH   3  28
TORSDOF 7
ENDMDL
MODEL 5
REMARK VINA RESULT:      -9.8      2.852      9.013
REMARK  Name = CHEMBL66749
REMARK  9 active torsions:
REMARK  status: ('A' for Active; 'I' for Inactive)
REMARK    1  A    between atoms: C_1  and  O_2
REMARK    2  A    between atoms: O_2  and  C_3
REMARK    3  A    between atoms: C_5  and  O_6
REMARK    4  A    between atoms: O_6  and  C_7
REMARK    5  A    between atoms: N_10  and  C_11
REMARK    6  A    between atoms: C_11  and  C_12
REMARK    7  A    between atoms: C_11  and  C_13
REMARK    8  A    between atoms: C_23  and  C_24
REMARK    9  A    between atoms: C_29  and  N_30
REMARK                            x       y       z     vdW  Elec       q    Type
REMARK                         _______ _______ _______ _____ _____    ______ ____
ROOT
ATOM      1  C   UNL     1      -3.959   3.113 130.633  0.00  0.00    +0.000 A 
ATOM      2  C   UNL     1      -3.689   2.971 132.063  0.00  0.00    +0.000 A 
ATOM      3  C   UNL     1      -3.035   3.935 132.749  0.00  0.00    +0.000 A 
ATOM      4  C   UNL     1      -2.540   4.801 131.854  0.00  0.00    +0.000 A 
ATOM      5  C   UNL     1      -2.937   5.090 130.554  0.00  0.00    +0.000 A 
ATOM      6  C   UNL     1      -3.616   4.222 129.829  0.00  0.00    +0.000 A 
ENDROOT
BRANCH   6   7
ATOM      7  C   UNL     1      -3.673   4.742 128.378  0.00  0.00    +0.000 C 
ATOM      8  O   UNL     1      -2.811   5.512 127.932  0.00  0.00    +0.000 OA
ATOM      9  N   UNL     1      -4.665   4.263 127.536  0.00  0.00    +0.000 N 
ATOM     10  C   UNL     1      -4.242   3.260 126.525  0.00  0.00    +0.000 C 
ATOM     11  C   UNL     1      -5.248   3.199 125.398  0.00  0.00    +0.000 C 
ATOM     12  C   UNL     1      -6.876   2.716 125.916  0.00  0.00    +0.000 C 
ATOM     13  C   UNL     1      -7.076   4.116 126.948  0.00  0.00    +0.000 C 
ATOM     14  C   UNL     1      -6.039   4.223 128.045  0.00  0.00    +0.000 C 
BRANCH  12  15
ATOM     15  N   UNL     1      -7.640   1.043 125.807  0.00  0.00    +0.000 N 
ATOM     16  C   UNL     1      -8.050   1.580 124.516  0.00  0.00    +0.000 C 
ATOM     17  O   UNL     1      -8.615   2.721 124.249  0.00  0.00    +0.000 OA
ATOM     18  O   UNL     1      -7.602   0.905 123.490  0.00  0.00    +0.000 OA
ATOM     19  C   UNL     1      -8.781   0.302 123.106  0.00  0.00    +0.000 C 
ATOM     20  C   UNL     1      -8.645  -0.894 123.923  0.00  0.00    +0.000 A 
ATOM     21  C   UNL     1      -9.170  -2.084 123.093  0.00  0.00    +0.000 A 
ATOM     22  C   UNL     1      -9.530  -3.306 123.566  0.00  0.00    +0.000 A 
ATOM     23  C   UNL     1      -9.331  -3.304 124.928  0.00  0.00    +0.000 A 
ATOM     24  C   UNL     1      -8.742  -2.012 125.799  0.00  0.00    +0.000 A 
ATOM     25  C   UNL     1      -8.272  -0.631 125.287  0.00  0.00    +0.000 A 
ENDBRANCH  12  15
ENDBRANCH   6   7
BRANCH   1  27
ATOM     26  C   UNL     1      -5.072   1.306 131.318  0.00  0.00    +0.000 C 
ATOM     27  O   UNL     1      -4.610   2.001 130.194  0.00  0.00    +0.000 OA
ENDBRANCH   1  27
BRANCH   3  28
ATOM     28  O   UNL     1      -2.917   4.115 134.103  0.00  0.00    +0.000 OA
BRANCH  28  29
ATOM     29  C   UNL     1      -3.836   4.968 134.946  0.00  0.00    +0.000 C 
ATOM     30  C   UNL     1      -4.863   4.218 135.812  0.00  0.00    +0.000 C 
ATOM     31  C   UNL     1      -5.985   3.662 134.954  0.00  0.00    +0.000 C 
ATOM     32  N   UNL     1      -6.597   4.695 133.972  0.00  0.00    +0.000 NA
ATOM     33  C   UNL     1      -5.635   5.722 133.357  0.00  0.00    +0.000 C 
ATOM     34  C   UNL     1      -4.532   6.161 134.270  0.00  0.00    +0.000 C 
BRANCH  32  35
ATOM     35  C   UNL     1      -7.424   4.034 132.887  0.00  0.00    +0.000 C 
ATOM     36  C   UNL     1      -7.949   2.640 133.322  0.00  0.00    +0.000 C 
BRANCH  35  37
ATOM     37  C   UNL     1      -8.405   4.886 132.130  0.00  0.00    +0.000 A 
ATOM     38  C   UNL     1      -8.652   4.676 130.759  0.00  0.00    +0.000 A 
ATOM     39  C   UNL     1      -9.509   5.495 130.072  0.00  0.00    +0.000 A 
ATOM     40  C   UNL     1     -10.259   6.363 130.831  0.00  0.00    +0.000 A 
ATOM     41  N   UNL     1     -10.201   6.464 132.177  0.00  0.00    +0.000 NA
ATOM     42  C   UNL     1      -9.267   5.727 132.797  0.00  0.00    +0.000 A 
ENDBRANCH  35  37
ENDBRANCH  32  35
ENDBRANCH  28  29
ENDBRANCH   3  28
TORSDOF 7
ENDMDL
MODEL 6
REMARK VINA RESULT:      -9.7      4.145      6.288
REMARK  Name = CHEMBL66749
REMARK  9 active torsions:
REMARK  status: ('A' for Active; 'I' for Inactive)
REMARK    1  A    between atoms: C_1  and  O_2
REMARK    2  A    between atoms: O_2  and  C_3
REMARK    3  A    between atoms: C_5  and  O_6
REMARK    4  A    between atoms: O_6  and  C_7
REMARK    5  A    between atoms: N_10  and  C_11
REMARK    6  A    between atoms: C_11  and  C_12
REMARK    7  A    between atoms: C_11  and  C_13
REMARK    8  A    between atoms: C_23  and  C_24
REMARK    9  A    between atoms: C_29  and  N_30
REMARK                            x       y       z     vdW  Elec       q    Type
REMARK                         _______ _______ _______ _____ _____    ______ ____
ROOT
ATOM      1  C   UNL     1      -5.595   4.351 128.163  0.00  0.00    +0.000 A 
ATOM      2  C   UNL     1      -6.308   3.390 127.323  0.00  0.00    +0.000 A 
ATOM      3  C   UNL     1      -5.658   2.665 126.385  0.00  0.00    +0.000 A 
ATOM      4  C   UNL     1      -4.425   3.175 126.265  0.00  0.00    +0.000 A 
ATOM      5  C   UNL     1      -3.657   3.916 127.156  0.00  0.00    +0.000 A 
ATOM      6  C   UNL     1      -4.209   4.618 128.127  0.00  0.00    +0.000 A 
ENDROOT
BRANCH   6   7
ATOM      7  C   UNL     1      -3.120   5.508 128.761  0.00  0.00    +0.000 C 
ATOM      8  O   UNL     1      -2.336   6.167 128.064  0.00  0.00    +0.000 OA
ATOM      9  N   UNL     1      -3.083   5.635 130.141  0.00  0.00    +0.000 N 
ATOM     10  C   UNL     1      -3.602   6.911 130.698  0.00  0.00    +0.000 C 
ATOM     11  C   UNL     1      -3.067   7.126 132.096  0.00  0.00    +0.000 C 
ATOM     12  C   UNL     1      -3.538   5.860 133.247  0.00  0.00    +0.000 C 
ATOM     13  C   UNL     1      -2.696   4.601 132.369  0.00  0.00    +0.000 C 
ATOM     14  C   UNL     1      -3.180   4.415 130.947  0.00  0.00    +0.000 C 
BRANCH  12  15
ATOM     15  N   UNL     1      -4.910   5.912 134.476  0.00  0.00    +0.000 N 
ATOM     16  C   UNL     1      -3.840   6.478 135.286  0.00  0.00    +0.000 C 
ATOM     17  O   UNL     1      -2.634   6.028 135.473  0.00  0.00    +0.000 OA
ATOM     18  O   UNL     1      -4.072   7.693 135.705  0.00  0.00    +0.000 OA
ATOM     19  C   UNL     1      -4.316   7.413 137.033  0.00  0.00    +0.000 C 
ATOM     20  C   UNL     1      -5.751   7.205 136.912  0.00  0.00    +0.000 A 
ATOM     21  C   UNL     1      -6.416   7.812 138.165  0.00  0.00    +0.000 A 
ATOM     22  C   UNL     1      -7.671   7.562 138.619  0.00  0.00    +0.000 A 
ATOM     23  C   UNL     1      -8.261   6.671 137.751  0.00  0.00    +0.000 A 
ATOM     24  C   UNL     1      -7.530   6.046 136.391  0.00  0.00    +0.000 A 
ATOM     25  C   UNL     1      -6.127   6.351 135.816  0.00  0.00    +0.000 A 
ENDBRANCH  12  15
ENDBRANCH   6   7
BRANCH   1  27
ATOM     26  C   UNL     1      -7.202   3.939 129.653  0.00  0.00    +0.000 C 
ATOM     27  O   UNL     1      -6.485   4.949 129.002  0.00  0.00    +0.000 OA
ENDBRANCH   1  27
BRANCH   3  28
ATOM     28  O   UNL     1      -6.075   1.556 125.696  0.00  0.00    +0.000 OA
BRANCH  28  29
ATOM     29  C   UNL     1      -7.221   1.527 124.712  0.00  0.00    +0.000 C 
ATOM     30  C   UNL     1      -8.628   1.343 125.306  0.00  0.00    +0.000 C 
ATOM     31  C   UNL     1      -8.836  -0.090 125.760  0.00  0.00    +0.000 C 
ATOM     32  N   UNL     1      -8.437  -1.150 124.700  0.00  0.00    +0.000 NA
ATOM     33  C   UNL     1      -7.226  -0.824 123.815  0.00  0.00    +0.000 C 
ATOM     34  C   UNL     1      -7.083   0.627 123.473  0.00  0.00    +0.000 C 
BRANCH  32  35
ATOM     35  C   UNL     1      -8.290  -2.535 125.301  0.00  0.00    +0.000 C 
ATOM     36  C   UNL     1      -7.611  -3.526 124.321  0.00  0.00    +0.000 C 
BRANCH  35  37
ATOM     37  C   UNL     1      -7.847  -2.638 126.734  0.00  0.00    +0.000 A 
ATOM     38  C   UNL     1      -8.626  -3.314 127.695  0.00  0.00    +0.000 A 
ATOM     39  C   UNL     1      -8.234  -3.353 129.007  0.00  0.00    +0.000 A 
ATOM     40  C   UNL     1      -6.963  -2.901 129.275  0.00  0.00    +0.000 A 
ATOM     41  N   UNL     1      -6.099  -2.425 128.351  0.00  0.00    +0.000 NA
ATOM     42  C   UNL     1      -6.564  -2.296 127.101  0.00  0.00    +0.000 A 
ENDBRANCH  35  37
ENDBRANCH  32  35
ENDBRANCH  28  29
ENDBRANCH   3  28
TORSDOF 7
ENDMDL
MODEL 7
REMARK VINA RESULT:      -9.6      3.990      7.542
REMARK  Name = CHEMBL66749
REMARK  9 active torsions:
REMARK  status: ('A' for Active; 'I' for Inactive)
REMARK    1  A    between atoms: C_1  and  O_2
REMARK    2  A    between atoms: O_2  and  C_3
REMARK    3  A    between atoms: C_5  and  O_6
REMARK    4  A    between atoms: O_6  and  C_7
REMARK    5  A    between atoms: N_10  and  C_11
REMARK    6  A    between atoms: C_11  and  C_12
REMARK    7  A    between atoms: C_11  and  C_13
REMARK    8  A    between atoms: C_23  and  C_24
REMARK    9  A    between atoms: C_29  and  N_30
REMARK                            x       y       z     vdW  Elec       q    Type
REMARK                         _______ _______ _______ _____ _____    ______ ____
ROOT
ATOM      1  C   UNL     1      -7.719  -1.746 127.056  0.00  0.00    +0.000 A 
ATOM      2  C   UNL     1      -7.280  -2.864 127.890  0.00  0.00    +0.000 A 
ATOM      3  C   UNL     1      -7.036  -2.698 129.209  0.00  0.00    +0.000 A 
ATOM      4  C   UNL     1      -7.044  -1.381 129.457  0.00  0.00    +0.000 A 
ATOM      5  C   UNL     1      -7.647  -0.332 128.775  0.00  0.00    +0.000 A 
ATOM      6  C   UNL     1      -7.956  -0.425 127.496  0.00  0.00    +0.000 A 
ENDROOT
BRANCH   6   7
ATOM      7  C   UNL     1      -8.365   0.974 126.992  0.00  0.00    +0.000 C 
ATOM      8  O   UNL     1      -9.496   1.193 126.535  0.00  0.00    +0.000 OA
ATOM      9  N   UNL     1      -7.471   2.023 127.139  0.00  0.00    +0.000 N 
ATOM     10  C   UNL     1      -7.763   2.989 128.229  0.00  0.00    +0.000 C 
ATOM     11  C   UNL     1      -7.043   4.295 127.977  0.00  0.00    +0.000 C 
ATOM     12  C   UNL     1      -5.277   4.140 127.920  0.00  0.00    +0.000 C 
ATOM     13  C   UNL     1      -5.309   3.086 126.523  0.00  0.00    +0.000 C 
ATOM     14  C   UNL     1      -6.078   1.801 126.741  0.00  0.00    +0.000 C 
BRANCH  12  15
ATOM     15  N   UNL     1      -4.072   4.499 129.267  0.00  0.00    +0.000 N 
ATOM     16  C   UNL     1      -4.238   5.843 128.728  0.00  0.00    +0.000 C 
ATOM     17  O   UNL     1      -4.174   6.239 127.492  0.00  0.00    +0.000 OA
ATOM     18  O   UNL     1      -4.710   6.708 129.586  0.00  0.00    +0.000 OA
ATOM     19  C   UNL     1      -3.557   7.429 129.812  0.00  0.00    +0.000 C 
ATOM     20  C   UNL     1      -3.062   6.632 130.924  0.00  0.00    +0.000 A 
ATOM     21  C   UNL     1      -2.432   7.601 131.946  0.00  0.00    +0.000 A 
ATOM     22  C   UNL     1      -1.578   7.277 132.951  0.00  0.00    +0.000 A 
ATOM     23  C   UNL     1      -1.377   5.917 132.908  0.00  0.00    +0.000 A 
ATOM     24  C   UNL     1      -2.085   4.886 131.808  0.00  0.00    +0.000 A 
ATOM     25  C   UNL     1      -3.103   5.213 130.689  0.00  0.00    +0.000 A 
ENDBRANCH  12  15
ENDBRANCH   6   7
BRANCH   1  27
ATOM     26  C   UNL     1      -9.220  -2.521 125.600  0.00  0.00    +0.000 C 
ATOM     27  O   UNL     1      -7.873  -2.183 125.776  0.00  0.00    +0.000 OA
ENDBRANCH   1  27
BRANCH   3  28
ATOM     28  O   UNL     1      -6.880  -3.640 130.192  0.00  0.00    +0.000 OA
BRANCH  28  29
ATOM     29  C   UNL     1      -5.621  -4.440 130.432  0.00  0.00    +0.000 C 
ATOM     30  C   UNL     1      -5.410  -4.972 131.861  0.00  0.00    +0.000 C 
ATOM     31  C   UNL     1      -5.008  -3.848 132.798  0.00  0.00    +0.000 C 
ATOM     32  N   UNL     1      -3.854  -2.963 132.260  0.00  0.00    +0.000 NA
ATOM     33  C   UNL     1      -3.821  -2.710 130.746  0.00  0.00    +0.000 C 
ATOM     34  C   UNL     1      -4.292  -3.864 129.916  0.00  0.00    +0.000 C 
BRANCH  32  35
ATOM     35  C   UNL     1      -3.737  -1.652 133.014  0.00  0.00    +0.000 C 
ATOM     36  C   UNL     1      -2.265  -1.313 133.367  0.00  0.00    +0.000 C 
BRANCH  35  37
ATOM     37  C   UNL     1      -4.573  -0.493 132.548  0.00  0.00    +0.000 A 
ATOM     38  C   UNL     1      -4.107   0.396 131.559  0.00  0.00    +0.000 A 
ATOM     39  C   UNL     1      -4.859   1.477 131.184  0.00  0.00    +0.000 A 
ATOM     40  C   UNL     1      -6.151   1.512 131.655  0.00  0.00    +0.000 A 
ATOM     41  N   UNL     1      -6.711   0.574 132.451  0.00  0.00    +0.000 NA
ATOM     42  C   UNL     1      -5.905  -0.405 132.887  0.00  0.00    +0.000 A 
ENDBRANCH  35  37
ENDBRANCH  32  35
ENDBRANCH  28  29
ENDBRANCH   3  28
TORSDOF 7
ENDMDL
MODEL 8
REMARK VINA RESULT:      -9.4      3.838      9.041
REMARK  Name = CHEMBL66749
REMARK  9 active torsions:
REMARK  status: ('A' for Active; 'I' for Inactive)
REMARK    1  A    between atoms: C_1  and  O_2
REMARK    2  A    between atoms: O_2  and  C_3
REMARK    3  A    between atoms: C_5  and  O_6
REMARK    4  A    between atoms: O_6  and  C_7
REMARK    5  A    between atoms: N_10  and  C_11
REMARK    6  A    between atoms: C_11  and  C_12
REMARK    7  A    between atoms: C_11  and  C_13
REMARK    8  A    between atoms: C_23  and  C_24
REMARK    9  A    between atoms: C_29  and  N_30
REMARK                            x       y       z     vdW  Elec       q    Type
REMARK                         _______ _______ _______ _____ _____    ______ ____
ROOT
ATOM      1  C   UNL     1      -6.696   5.426 132.504  0.00  0.00    +0.000 A 
ATOM      2  C   UNL     1      -5.506   6.256 132.686  0.00  0.00    +0.000 A 
ATOM      3  C   UNL     1      -4.608   5.985 133.659  0.00  0.00    +0.000 A 
ATOM      4  C   UNL     1      -5.149   5.056 134.459  0.00  0.00    +0.000 A 
ATOM      5  C   UNL     1      -6.143   4.115 134.217  0.00  0.00    +0.000 A 
ATOM      6  C   UNL     1      -7.034   4.282 133.259  0.00  0.00    +0.000 A 
ENDROOT
BRANCH   6   7
ATOM      7  C   UNL     1      -8.127   3.205 133.420  0.00  0.00    +0.000 C 
ATOM      8  O   UNL     1      -9.153   3.418 134.081  0.00  0.00    +0.000 OA
ATOM      9  N   UNL     1      -7.989   2.008 132.735  0.00  0.00    +0.000 N 
ATOM     10  C   UNL     1      -8.843   1.837 131.532  0.00  0.00    +0.000 C 
ATOM     11  C   UNL     1      -8.968   0.370 131.185  0.00  0.00    +0.000 C 
ATOM     12  C   UNL     1      -7.422  -0.411 130.804  0.00  0.00    +0.000 C 
ATOM     13  C   UNL     1      -6.766  -0.131 132.402  0.00  0.00    +0.000 C 
ATOM     14  C   UNL     1      -6.690   1.330 132.788  0.00  0.00    +0.000 C 
BRANCH  12  15
ATOM     15  N   UNL     1      -6.717  -0.756 129.136  0.00  0.00    +0.000 N 
ATOM     16  C   UNL     1      -7.545  -1.943 129.297  0.00  0.00    +0.000 C 
ATOM     17  O   UNL     1      -7.611  -2.760 130.306  0.00  0.00    +0.000 OA
ATOM     18  O   UNL     1      -8.478  -2.071 128.391  0.00  0.00    +0.000 OA
ATOM     19  C   UNL     1      -7.926  -3.107 127.667  0.00  0.00    +0.000 C 
ATOM     20  C   UNL     1      -7.165  -2.289 126.736  0.00  0.00    +0.000 A 
ATOM     21  C   UNL     1      -7.247  -2.964 125.351  0.00  0.00    +0.000 A 
ATOM     22  C   UNL     1      -6.436  -2.733 124.287  0.00  0.00    +0.000 A 
ATOM     23  C   UNL     1      -5.523  -1.772 124.656  0.00  0.00    +0.000 A 
ATOM     24  C   UNL     1      -5.467  -1.041 126.151  0.00  0.00    +0.000 A 
ATOM     25  C   UNL     1      -6.407  -1.239 127.364  0.00  0.00    +0.000 A 
ENDBRANCH  12  15
ENDBRANCH   6   7
BRANCH   1  27
ATOM     26  C   UNL     1      -7.244   5.092 130.368  0.00  0.00    +0.000 C 
ATOM     27  O   UNL     1      -7.431   5.929 131.474  0.00  0.00    +0.000 OA
ENDBRANCH   1  27
BRANCH   3  28
ATOM     28  O   UNL     1      -3.333   6.460 133.827  0.00  0.00    +0.000 OA
BRANCH  28  29
ATOM     29  C   UNL     1      -2.087   5.811 133.274  0.00  0.00    +0.000 C 
ATOM     30  C   UNL     1      -1.228   6.671 132.331  0.00  0.00    +0.000 C 
ATOM     31  C   UNL     1      -1.893   6.808 130.974  0.00  0.00    +0.000 C 
ATOM     32  N   UNL     1      -2.369   5.461 130.368  0.00  0.00    +0.000 NA
ATOM     33  C   UNL     1      -2.903   4.409 131.350  0.00  0.00    +0.000 C 
ATOM     34  C   UNL     1      -2.214   4.398 132.680  0.00  0.00    +0.000 C 
BRANCH  32  35
ATOM     35  C   UNL     1      -3.349   5.661 129.228  0.00  0.00    +0.000 C 
ATOM     36  C   UNL     1      -3.255   7.085 128.621  0.00  0.00    +0.000 C 
BRANCH  35  37
ATOM     37  C   UNL     1      -3.509   4.545 128.233  0.00  0.00    +0.000 A 
ATOM     38  C   UNL     1      -2.396   3.982 127.578  0.00  0.00    +0.000 A 
ATOM     39  C   UNL     1      -2.564   3.003 126.635  0.00  0.00    +0.000 A 
ATOM     40  C   UNL     1      -3.826   2.464 126.536  0.00  0.00    +0.000 A 
ATOM     41  N   UNL     1      -4.887   2.836 127.286  0.00  0.00    +0.000 NA
ATOM     42  C   UNL     1      -4.707   3.876 128.113  0.00  0.00    +0.000 A 
ENDBRANCH  35  37
ENDBRANCH  32  35
ENDBRANCH  28  29
ENDBRANCH   3  28
TORSDOF 7
ENDMDL
MODEL 9
REMARK VINA RESULT:      -9.3      2.891      8.950
REMARK  Name = CHEMBL66749
REMARK  9 active torsions:
REMARK  status: ('A' for Active; 'I' for Inactive)
REMARK    1  A    between atoms: C_1  and  O_2
REMARK    2  A    between atoms: O_2  and  C_3
REMARK    3  A    between atoms: C_5  and  O_6
REMARK    4  A    between atoms: O_6  and  C_7
REMARK    5  A    between atoms: N_10  and  C_11
REMARK    6  A    between atoms: C_11  and  C_12
REMARK    7  A    between atoms: C_11  and  C_13
REMARK    8  A    between atoms: C_23  and  C_24
REMARK    9  A    between atoms: C_29  and  N_30
REMARK                            x       y       z     vdW  Elec       q    Type
REMARK                         _______ _______ _______ _____ _____    ______ ____
ROOT
ATOM      1  C   UNL     1      -5.416  -0.509 133.526  0.00  0.00    +0.000 A 
ATOM      2  C   UNL     1      -5.425   0.913 133.869  0.00  0.00    +0.000 A 
ATOM      3  C   UNL     1      -6.225   1.784 133.214  0.00  0.00    +0.000 A 
ATOM      4  C   UNL     1      -6.733   1.144 132.152  0.00  0.00    +0.000 A 
ATOM      5  C   UNL     1      -6.922  -0.212 131.913  0.00  0.00    +0.000 A 
ATOM      6  C   UNL     1      -6.213  -1.130 132.540  0.00  0.00    +0.000 A 
ENDROOT
BRANCH   6   7
ATOM      7  C   UNL     1      -6.485  -2.493 131.871  0.00  0.00    +0.000 C 
ATOM      8  O   UNL     1      -6.755  -3.500 132.539  0.00  0.00    +0.000 OA
ATOM      9  N   UNL     1      -6.511  -2.563 130.486  0.00  0.00    +0.000 N 
ATOM     10  C   UNL     1      -7.854  -2.663 129.858  0.00  0.00    +0.000 C 
ATOM     11  C   UNL     1      -7.734  -3.217 128.456  0.00  0.00    +0.000 C 
ATOM     12  C   UNL     1      -6.758  -2.210 127.369  0.00  0.00    +0.000 C 
ATOM     13  C   UNL     1      -5.302  -2.411 128.319  0.00  0.00    +0.000 C 
ATOM     14  C   UNL     1      -5.425  -1.916 129.744  0.00  0.00    +0.000 C 
BRANCH  12  15
ATOM     15  N   UNL     1      -7.358  -0.990 126.126  0.00  0.00    +0.000 N 
ATOM     16  C   UNL     1      -7.536  -2.218 125.362  0.00  0.00    +0.000 C 
ATOM     17  O   UNL     1      -6.691  -3.186 125.167  0.00  0.00    +0.000 OA
ATOM     18  O   UNL     1      -8.772  -2.452 125.007  0.00  0.00    +0.000 OA
ATOM     19  C   UNL     1      -8.660  -2.166 123.663  0.00  0.00    +0.000 C 
ATOM     20  C   UNL     1      -8.978  -0.750 123.753  0.00  0.00    +0.000 A 
ATOM     21  C   UNL     1      -9.842  -0.389 122.526  0.00  0.00    +0.000 A 
ATOM     22  C   UNL     1     -10.082   0.857 122.042  0.00  0.00    +0.000 A 
ATOM     23  C   UNL     1      -9.426   1.756 122.851  0.00  0.00    +0.000 A 
ATOM     24  C   UNL     1      -8.517   1.344 124.185  0.00  0.00    +0.000 A 
ATOM     25  C   UNL     1      -8.268  -0.056 124.795  0.00  0.00    +0.000 A 
ENDBRANCH  12  15
ENDBRANCH   6   7
BRANCH   1  27
ATOM     26  C   UNL     1      -5.195  -1.596 135.461  0.00  0.00    +0.000 C 
ATOM     27  O   UNL     1      -4.516  -1.149 134.321  0.00  0.00    +0.000 OA
ENDBRANCH   1  27
BRANCH   3  28
ATOM     28  O   UNL     1      -6.571   3.068 133.545  0.00  0.00    +0.000 OA
BRANCH  28  29
ATOM     29  C   UNL     1      -7.849   3.467 134.246  0.00  0.00    +0.000 C 
ATOM     30  C   UNL     1      -9.163   3.088 133.539  0.00  0.00    +0.000 C 
ATOM     31  C   UNL     1      -9.407   3.987 132.342  0.00  0.00    +0.000 C 
ATOM     32  N   UNL     1      -9.250   5.500 132.649  0.00  0.00    +0.000 NA
ATOM     33  C   UNL     1      -8.163   5.893 133.659  0.00  0.00    +0.000 C 
ATOM     34  C   UNL     1      -7.964   4.908 134.769  0.00  0.00    +0.000 C 
BRANCH  32  35
ATOM     35  C   UNL     1      -9.119   6.330 131.386  0.00  0.00    +0.000 C 
ATOM     36  C   UNL     1      -8.083   5.731 130.400  0.00  0.00    +0.000 C 
BRANCH  35  37
ATOM     37  C   UNL     1     -10.378   6.860 130.757  0.00  0.00    +0.000 A 
ATOM     38  C   UNL     1     -11.613   6.805 131.432  0.00  0.00    +0.000 A 
ATOM     39  C   UNL     1     -12.760   7.243 130.824  0.00  0.00    +0.000 A 
ATOM     40  C   UNL     1     -12.597   7.926 129.640  0.00  0.00    +0.000 A 
ATOM     41  N   UNL     1     -11.408   8.179 129.049  0.00  0.00    +0.000 NA
ATOM     42  C   UNL     1     -10.324   7.632 129.618  0.00  0.00    +0.000 A 
ENDBRANCH  35  37
ENDBRANCH  32  35
ENDBRANCH  28  29
ENDBRANCH   3  28
TORSDOF 7
ENDMDL
