MODEL 1
REMARK VINA RESULT:      -8.8      0.000      0.000
REMARK  Name = CHEMBL262035
REMARK  34 active torsions:
REMARK  status: ('A' for Active; 'I' for Inactive)
REMARK    1  A    between atoms: C_1  and  N_2
REMARK    2  A    between atoms: N_2  and  C_12
REMARK    3  A    between atoms: C_3  and  C_5
REMARK    4  A    between atoms: C_5  and  C_6
REMARK    5  A    between atoms: C_12  and  C_13
REMARK    6  A    between atoms: C_12  and  C_21
REMARK    7  A    between atoms: C_13  and  C_14
REMARK    8  A    between atoms: C_17  and  O_18
REMARK    9  A    between atoms: N_23  and  C_24
REMARK   10  A    between atoms: C_24  and  C_25
REMARK   11  A    between atoms: C_24  and  C_32
REMARK   12  A    between atoms: C_25  and  C_26
REMARK   13  A    between atoms: N_34  and  C_35
REMARK   14  A    between atoms: C_35  and  C_36
REMARK   15  A    between atoms: C_35  and  C_41
REMARK   16  A    between atoms: C_36  and  C_37
REMARK   17  A    between atoms: C_37  and  C_38
REMARK   18  A    between atoms: N_43  and  C_44
REMARK   19  A    between atoms: C_44  and  C_45
REMARK   20  A    between atoms: C_44  and  C_49
REMARK   21  A    between atoms: C_45  and  C_46
REMARK   22  A    between atoms: N_51  and  C_52
REMARK   23  A    between atoms: C_52  and  C_53
REMARK   24  A    between atoms: C_52  and  C_60
REMARK   25  A    between atoms: C_53  and  C_54
REMARK   26  A    between atoms: C_54  and  C_55
REMARK   27  A    between atoms: C_55  and  N_56
REMARK   28  A    between atoms: C_66  and  C_67
REMARK   29  A    between atoms: N_69  and  C_70
REMARK   30  A    between atoms: C_70  and  C_71
REMARK   31  A    between atoms: C_70  and  C_78
REMARK   32  A    between atoms: C_71  and  C_72
REMARK   33  A    between atoms: C_72  and  C_73
REMARK   34  A    between atoms: C_73  and  N_74
REMARK                            x       y       z     vdW  Elec       q    Type
REMARK                         _______ _______ _______ _____ _____    ______ ____
ROOT
ATOM      1  C   UNL     1      -4.814   4.830 127.253  0.00  0.00    +0.000 C 
ENDROOT
BRANCH   1   2
ATOM      2  C   UNL     1      -6.254   4.290 126.976  0.00  0.00    +0.000 C 
ATOM      3  O   UNL     1      -7.184   4.809 127.601  0.00  0.00    +0.000 OA
ATOM      4  N   UNL     1      -6.442   3.245 126.061  0.00  0.00    +0.000 N 
ATOM      5  H   UNL     1      -5.670   2.649 125.771  0.00  0.00    +0.000 HD
BRANCH   4   6
ATOM      6  C   UNL     1      -7.797   2.793 125.559  0.00  0.00    +0.000 C 
BRANCH   6   7
ATOM      7  C   UNL     1      -8.169   1.275 125.905  0.00  0.00    +0.000 C 
ATOM      8  O   UNL     1      -9.013   1.068 126.784  0.00  0.00    +0.000 OA
ATOM      9  N   UNL     1      -7.717   0.237 125.075  0.00  0.00    +0.000 N 
ATOM     10  C   UNL     1      -6.376  -0.028 124.583  0.00  0.00    +0.000 C 
ATOM     11  C   UNL     1      -6.646  -0.742 123.280  0.00  0.00    +0.000 C 
ATOM     12  C   UNL     1      -7.745  -1.711 123.669  0.00  0.00    +0.000 C 
ATOM     13  C   UNL     1      -8.500  -1.004 124.828  0.00  0.00    +0.000 C 
BRANCH  13  14
ATOM     14  C   UNL     1      -8.444  -2.036 125.965  0.00  0.00    +0.000 C 
ATOM     15  O   UNL     1      -9.278  -2.934 126.052  0.00  0.00    +0.000 OA
ATOM     16  N   UNL     1      -7.485  -1.795 126.944  0.00  0.00    +0.000 N 
ATOM     17  H   UNL     1      -7.054  -0.889 126.981  0.00  0.00    +0.000 HD
BRANCH  16  18
ATOM     18  C   UNL     1      -7.166  -2.787 127.994  0.00  0.00    +0.000 C 
BRANCH  18  19
ATOM     19  C   UNL     1      -8.210  -2.889 129.143  0.00  0.00    +0.000 C 
ATOM     20  N   UNL     1      -9.167  -3.862 129.078  0.00  0.00    +0.000 N 
ATOM     21  O   UNL     1      -8.227  -2.118 130.102  0.00  0.00    +0.000 OA
ATOM     22  H   UNL     1      -9.268  -4.550 128.355  0.00  0.00    +0.000 HD
ATOM     23  H   UNL     1      -9.842  -3.883 129.835  0.00  0.00    +0.000 HD
ENDBRANCH  18  19
BRANCH  18  24
ATOM     24  C   UNL     1      -5.791  -2.490 128.642  0.00  0.00    +0.000 C 
BRANCH  24  25
ATOM     25  C   UNL     1      -5.322  -3.618 129.554  0.00  0.00    +0.000 C 
BRANCH  25  26
ATOM     26  C   UNL     1      -4.112  -3.311 130.389  0.00  0.00    +0.000 C 
BRANCH  26  27
ATOM     27  N   UNL     1      -4.582  -2.937 131.726  0.00  0.00    +0.000 NA
ATOM     28  C   UNL     1      -3.796  -2.198 132.418  0.00  0.00    +0.000 C 
ATOM     29  N   UNL     1      -2.603  -1.724 132.026  0.00  0.00    +0.000 N 
ATOM     30  N   UNL     1      -4.129  -1.844 133.670  0.00  0.00    +0.000 N 
ATOM     31  H   UNL     1      -2.271  -1.948 131.100  0.00  0.00    +0.000 HD
ATOM     32  H   UNL     1      -2.042  -1.106 132.584  0.00  0.00    +0.000 HD
ATOM     33  H   UNL     1      -5.031  -2.154 134.006  0.00  0.00    +0.000 HD
ATOM     34  H   UNL     1      -3.594  -1.204 134.229  0.00  0.00    +0.000 HD
ENDBRANCH  26  27
ENDBRANCH  25  26
ENDBRANCH  24  25
ENDBRANCH  18  24
ENDBRANCH  16  18
ENDBRANCH  13  14
ENDBRANCH   6   7
BRANCH   6  35
ATOM     35  C   UNL     1      -7.879   3.073 124.062  0.00  0.00    +0.000 C 
BRANCH  35  36
ATOM     36  C   UNL     1      -6.551   3.357 123.405  0.00  0.00    +0.000 C 
BRANCH  36  37
ATOM     37  C   UNL     1      -6.584   3.154 121.919  0.00  0.00    +0.000 C 
BRANCH  37  38
ATOM     38  N   UNL     1      -5.716   4.177 121.346  0.00  0.00    +0.000 NA
ATOM     39  C   UNL     1      -6.037   4.593 120.180  0.00  0.00    +0.000 C 
ATOM     40  N   UNL     1      -7.087   4.184 119.448  0.00  0.00    +0.000 N 
ATOM     41  N   UNL     1      -5.260   5.492 119.557  0.00  0.00    +0.000 N 
ATOM     42  H   UNL     1      -7.720   3.498 119.831  0.00  0.00    +0.000 HD
ATOM     43  H   UNL     1      -7.324   4.581 118.557  0.00  0.00    +0.000 HD
ATOM     44  H   UNL     1      -4.514   5.901 120.107  0.00  0.00    +0.000 HD
ATOM     45  H   UNL     1      -5.535   5.965 118.715  0.00  0.00    +0.000 HD
ENDBRANCH  37  38
ENDBRANCH  36  37
ENDBRANCH  35  36
ENDBRANCH   6  35
ENDBRANCH   4   6
ENDBRANCH   1   2
BRANCH   1  48
ATOM     46  C   UNL     1      -3.829   5.793 129.487  0.00  0.00    +0.000 C 
ATOM     47  O   UNL     1      -3.521   6.896 129.031  0.00  0.00    +0.000 OA
ATOM     48  N   UNL     1      -4.519   4.833 128.759  0.00  0.00    +0.000 N 
ATOM     49  H   UNL     1      -4.956   4.048 129.245  0.00  0.00    +0.000 HD
BRANCH  46  50
ATOM     50  C   UNL     1      -3.535   5.651 130.986  0.00  0.00    +0.000 C 
BRANCH  50  53
ATOM     51  C   UNL     1      -5.046   5.879 133.053  0.00  0.00    +0.000 C 
ATOM     52  O   UNL     1      -4.133   6.309 133.761  0.00  0.00    +0.000 OA
ATOM     53  N   UNL     1      -4.861   5.597 131.709  0.00  0.00    +0.000 N 
ATOM     54  H   UNL     1      -5.652   5.354 131.112  0.00  0.00    +0.000 HD
BRANCH  51  55
ATOM     55  C   UNL     1      -6.434   5.617 133.699  0.00  0.00    +0.000 C 
BRANCH  55  58
ATOM     56  C   UNL     1      -8.603   4.496 132.735  0.00  0.00    +0.000 C 
ATOM     57  O   UNL     1      -9.253   4.436 133.795  0.00  0.00    +0.000 OA
ATOM     58  N   UNL     1      -7.256   4.792 132.727  0.00  0.00    +0.000 N 
ATOM     59  H   UNL     1      -6.666   4.235 132.118  0.00  0.00    +0.000 HD
BRANCH  56  60
ATOM     60  C   UNL     1      -9.355   3.956 131.508  0.00  0.00    +0.000 C 
BRANCH  60  62
ATOM     61  C   UNL     1     -11.539   4.039 130.264  0.00  0.00    +0.000 C 
ATOM     62  N   UNL     1     -10.555   4.744 131.049  0.00  0.00    +0.000 N 
ATOM     63  C   UNL     1     -10.558   6.147 130.889  0.00  0.00    +0.000 C 
ATOM     64  O   UNL     1      -9.545   6.775 130.598  0.00  0.00    +0.000 OA
BRANCH  63  65
ATOM     65  C   UNL     1     -11.954   6.803 131.094  0.00  0.00    +0.000 C 
BRANCH  65  66
ATOM     66  C   UNL     1     -12.581   7.652 129.989  0.00  0.00    +0.000 A 
ATOM     67  C   UNL     1     -13.129   7.061 128.827  0.00  0.00    +0.000 A 
ATOM     68  C   UNL     1     -13.732   7.845 127.827  0.00  0.00    +0.000 A 
ATOM     69  C   UNL     1     -13.873   9.217 128.005  0.00  0.00    +0.000 A 
ATOM     70  C   UNL     1     -13.322   9.815 129.132  0.00  0.00    +0.000 A 
ATOM     71  C   UNL     1     -12.670   9.042 130.098  0.00  0.00    +0.000 A 
ENDBRANCH  65  66
ENDBRANCH  63  65
ENDBRANCH  60  62
BRANCH  60  72
ATOM     72  C   UNL     1      -9.557   2.400 131.777  0.00  0.00    +0.000 C 
BRANCH  72  73
ATOM     73  C   UNL     1      -8.446   1.458 131.399  0.00  0.00    +0.000 A 
ATOM     74  C   UNL     1      -7.676   0.851 132.385  0.00  0.00    +0.000 A 
ATOM     75  C   UNL     1      -6.386   0.471 132.072  0.00  0.00    +0.000 A 
ATOM     76  C   UNL     1      -5.936   0.533 130.756  0.00  0.00    +0.000 A 
ATOM     77  C   UNL     1      -6.721   1.063 129.751  0.00  0.00    +0.000 A 
ATOM     78  C   UNL     1      -8.001   1.491 130.063  0.00  0.00    +0.000 A 
BRANCH  76  79
ATOM     79  O   UNL     1      -4.682   0.126 130.426  0.00  0.00    +0.000 OA
ATOM     80  H   UNL     1      -4.699  -0.034 129.466  0.00  0.00    +0.000 HD
ENDBRANCH  76  79
ENDBRANCH  72  73
ENDBRANCH  60  72
ENDBRANCH  56  60
ENDBRANCH  55  58
BRANCH  55  81
ATOM     81  C   UNL     1      -6.172   4.976 135.056  0.00  0.00    +0.000 C 
BRANCH  81  82
ATOM     82  C   UNL     1      -6.514   5.851 136.238  0.00  0.00    +0.000 A 
ATOM     83  C   UNL     1      -5.522   6.490 137.013  0.00  0.00    +0.000 A 
ATOM     84  C   UNL     1      -5.834   7.614 137.769  0.00  0.00    +0.000 A 
ATOM     85  C   UNL     1      -7.162   7.945 137.972  0.00  0.00    +0.000 A 
ATOM     86  C   UNL     1      -8.164   7.158 137.402  0.00  0.00    +0.000 A 
ATOM     87  C   UNL     1      -7.850   6.162 136.478  0.00  0.00    +0.000 A 
ENDBRANCH  81  82
ENDBRANCH  55  81
ENDBRANCH  51  55
ENDBRANCH  50  53
BRANCH  50  88
ATOM     88  C   UNL     1      -2.831   4.304 131.061  0.00  0.00    +0.000 C 
BRANCH  88  89
ATOM     89  C   UNL     1      -3.724   3.254 131.667  0.00  0.00    +0.000 C 
BRANCH  89  90
ATOM     90  C   UNL     1      -3.191   2.508 132.840  0.00  0.00    +0.000 C 
ATOM     91  N   UNL     1      -2.716   3.248 133.872  0.00  0.00    +0.000 N 
ATOM     92  O   UNL     1      -3.125   1.284 132.840  0.00  0.00    +0.000 OA
ATOM     93  H   UNL     1      -2.711   4.258 133.897  0.00  0.00    +0.000 HD
ATOM     94  H   UNL     1      -2.303   2.751 134.646  0.00  0.00    +0.000 HD
ENDBRANCH  89  90
ENDBRANCH  88  89
ENDBRANCH  50  88
ENDBRANCH  46  50
ENDBRANCH   1  48
BRANCH   1  95
ATOM     95  C   UNL     1      -3.919   3.862 126.493  0.00  0.00    +0.000 C 
BRANCH  95  96
ATOM     96  C   UNL     1      -3.135   2.889 127.323  0.00  0.00    +0.000 C 
ATOM     97  N   UNL     1      -1.812   2.750 127.039  0.00  0.00    +0.000 N 
ATOM     98  O   UNL     1      -3.652   2.215 128.207  0.00  0.00    +0.000 OA
ATOM     99  H   UNL     1      -1.356   3.613 126.740  0.00  0.00    +0.000 HD
ATOM    100  H   UNL     1      -1.327   2.555 127.915  0.00  0.00    +0.000 HD
ENDBRANCH  95  96
ENDBRANCH   1  95
TORSDOF 33
ENDMDL
MODEL 2
REMARK VINA RESULT:      -8.8      2.491      6.327
REMARK  Name = CHEMBL262035
REMARK  34 active torsions:
REMARK  status: ('A' for Active; 'I' for Inactive)
REMARK    1  A    between atoms: C_1  and  N_2
REMARK    2  A    between atoms: N_2  and  C_12
REMARK    3  A    between atoms: C_3  and  C_5
REMARK    4  A    between atoms: C_5  and  C_6
REMARK    5  A    between atoms: C_12  and  C_13
REMARK    6  A    between atoms: C_12  and  C_21
REMARK    7  A    between atoms: C_13  and  C_14
REMARK    8  A    between atoms: C_17  and  O_18
REMARK    9  A    between atoms: N_23  and  C_24
REMARK   10  A    between atoms: C_24  and  C_25
REMARK   11  A    between atoms: C_24  and  C_32
REMARK   12  A    between atoms: C_25  and  C_26
REMARK   13  A    between atoms: N_34  and  C_35
REMARK   14  A    between atoms: C_35  and  C_36
REMARK   15  A    between atoms: C_35  and  C_41
REMARK   16  A    between atoms: C_36  and  C_37
REMARK   17  A    between atoms: C_37  and  C_38
REMARK   18  A    between atoms: N_43  and  C_44
REMARK   19  A    between atoms: C_44  and  C_45
REMARK   20  A    between atoms: C_44  and  C_49
REMARK   21  A    between atoms: C_45  and  C_46
REMARK   22  A    between atoms: N_51  and  C_52
REMARK   23  A    between atoms: C_52  and  C_53
REMARK   24  A    between atoms: C_52  and  C_60
REMARK   25  A    between atoms: C_53  and  C_54
REMARK   26  A    between atoms: C_54  and  C_55
REMARK   27  A    between atoms: C_55  and  N_56
REMARK   28  A    between atoms: C_66  and  C_67
REMARK   29  A    between atoms: N_69  and  C_70
REMARK   30  A    between atoms: C_70  and  C_71
REMARK   31  A    between atoms: C_70  and  C_78
REMARK   32  A    between atoms: C_71  and  C_72
REMARK   33  A    between atoms: C_72  and  C_73
REMARK   34  A    between atoms: C_73  and  N_74
REMARK                            x       y       z     vdW  Elec       q    Type
REMARK                         _______ _______ _______ _____ _____    ______ ____
ROOT
ATOM      1  C   UNL     1      -7.850   1.571 125.796  0.00  0.00    +0.000 C 
ENDROOT
BRANCH   1   2
ATOM      2  C   UNL     1      -8.448   0.199 126.243  0.00  0.00    +0.000 C 
ATOM      3  O   UNL     1      -9.548  -0.118 125.780  0.00  0.00    +0.000 OA
ATOM      4  N   UNL     1      -7.744  -0.605 127.151  0.00  0.00    +0.000 N 
ATOM      5  H   UNL     1      -7.000  -0.223 127.730  0.00  0.00    +0.000 HD
BRANCH   4   6
ATOM      6  C   UNL     1      -8.121  -2.033 127.485  0.00  0.00    +0.000 C 
BRANCH   6   7
ATOM      7  C   UNL     1      -7.690  -2.515 128.949  0.00  0.00    +0.000 C 
ATOM      8  O   UNL     1      -8.582  -2.811 129.752  0.00  0.00    +0.000 OA
ATOM      9  N   UNL     1      -6.345  -2.810 129.221  0.00  0.00    +0.000 N 
ATOM     10  C   UNL     1      -5.158  -2.015 128.951  0.00  0.00    +0.000 C 
ATOM     11  C   UNL     1      -4.092  -3.073 128.790  0.00  0.00    +0.000 C 
ATOM     12  C   UNL     1      -4.392  -4.007 129.945  0.00  0.00    +0.000 C 
ATOM     13  C   UNL     1      -5.922  -3.872 130.173  0.00  0.00    +0.000 C 
BRANCH  13  14
ATOM     14  C   UNL     1      -6.024  -3.482 131.656  0.00  0.00    +0.000 C 
ATOM     15  O   UNL     1      -6.859  -2.670 132.046  0.00  0.00    +0.000 OA
ATOM     16  N   UNL     1      -5.029  -4.000 132.481  0.00  0.00    +0.000 N 
ATOM     17  H   UNL     1      -4.209  -4.393 132.054  0.00  0.00    +0.000 HD
BRANCH  16  18
ATOM     18  C   UNL     1      -5.091  -3.888 133.954  0.00  0.00    +0.000 C 
BRANCH  18  19
ATOM     19  C   UNL     1      -6.483  -4.193 134.580  0.00  0.00    +0.000 C 
ATOM     20  N   UNL     1      -7.239  -3.153 135.042  0.00  0.00    +0.000 N 
ATOM     21  O   UNL     1      -6.929  -5.334 134.697  0.00  0.00    +0.000 OA
ATOM     22  H   UNL     1      -6.995  -2.180 135.010  0.00  0.00    +0.000 HD
ATOM     23  H   UNL     1      -8.130  -3.393 135.462  0.00  0.00    +0.000 HD
ENDBRANCH  18  19
BRANCH  18  24
ATOM     24  C   UNL     1      -4.672  -2.473 134.423  0.00  0.00    +0.000 C 
BRANCH  24  25
ATOM     25  C   UNL     1      -3.354  -2.021 133.806  0.00  0.00    +0.000 C 
BRANCH  25  26
ATOM     26  C   UNL     1      -2.235  -1.782 134.778  0.00  0.00    +0.000 C 
BRANCH  26  27
ATOM     27  N   UNL     1      -1.186  -2.765 134.496  0.00  0.00    +0.000 NA
ATOM     28  C   UNL     1       0.010  -2.313 134.411  0.00  0.00    +0.000 C 
ATOM     29  N   UNL     1       0.387  -1.035 134.575  0.00  0.00    +0.000 N 
ATOM     30  N   UNL     1       1.026  -3.138 134.113  0.00  0.00    +0.000 N 
ATOM     31  H   UNL     1      -0.314  -0.345 134.795  0.00  0.00    +0.000 HD
ATOM     32  H   UNL     1       1.344  -0.732 134.548  0.00  0.00    +0.000 HD
ATOM     33  H   UNL     1       0.799  -4.117 134.004  0.00  0.00    +0.000 HD
ATOM     34  H   UNL     1       1.990  -2.857 134.111  0.00  0.00    +0.000 HD
ENDBRANCH  26  27
ENDBRANCH  25  26
ENDBRANCH  24  25
ENDBRANCH  18  24
ENDBRANCH  16  18
ENDBRANCH  13  14
ENDBRANCH   6   7
BRANCH   6  35
ATOM     35  C   UNL     1      -7.569  -2.948 126.397  0.00  0.00    +0.000 C 
BRANCH  35  36
ATOM     36  C   UNL     1      -8.612  -3.767 125.679  0.00  0.00    +0.000 C 
BRANCH  36  37
ATOM     37  C   UNL     1      -8.916  -3.243 124.306  0.00  0.00    +0.000 C 
BRANCH  37  38
ATOM     38  N   UNL     1      -7.635  -2.873 123.715  0.00  0.00    +0.000 NA
ATOM     39  C   UNL     1      -7.614  -1.763 123.079  0.00  0.00    +0.000 C 
ATOM     40  N   UNL     1      -8.645  -0.919 122.912  0.00  0.00    +0.000 N 
ATOM     41  N   UNL     1      -6.491  -1.375 122.456  0.00  0.00    +0.000 N 
ATOM     42  H   UNL     1      -9.535  -1.136 123.335  0.00  0.00    +0.000 HD
ATOM     43  H   UNL     1      -8.562  -0.033 122.447  0.00  0.00    +0.000 HD
ATOM     44  H   UNL     1      -5.661  -1.929 122.635  0.00  0.00    +0.000 HD
ATOM     45  H   UNL     1      -6.365  -0.455 122.072  0.00  0.00    +0.000 HD
ENDBRANCH  37  38
ENDBRANCH  36  37
ENDBRANCH  35  36
ENDBRANCH   6  35
ENDBRANCH   4   6
ENDBRANCH   1   2
BRANCH   1  48
ATOM     46  C   UNL     1      -7.885   3.869 127.064  0.00  0.00    +0.000 C 
ATOM     47  O   UNL     1      -8.460   4.501 126.175  0.00  0.00    +0.000 OA
ATOM     48  N   UNL     1      -7.665   2.499 127.004  0.00  0.00    +0.000 N 
ATOM     49  H   UNL     1      -7.409   1.992 127.851  0.00  0.00    +0.000 HD
BRANCH  46  50
ATOM     50  C   UNL     1      -7.595   4.706 128.315  0.00  0.00    +0.000 C 
BRANCH  50  53
ATOM     51  C   UNL     1      -9.442   5.747 129.771  0.00  0.00    +0.000 C 
ATOM     52  O   UNL     1      -9.092   6.901 129.514  0.00  0.00    +0.000 OA
ATOM     53  N   UNL     1      -8.822   4.649 129.197  0.00  0.00    +0.000 N 
ATOM     54  H   UNL     1      -9.197   3.709 129.329  0.00  0.00    +0.000 HD
BRANCH  51  55
ATOM     55  C   UNL     1     -10.590   5.523 130.792  0.00  0.00    +0.000 C 
BRANCH  55  58
ATOM     56  C   UNL     1      -9.349   3.595 132.071  0.00  0.00    +0.000 C 
ATOM     57  O   UNL     1      -9.557   2.681 131.252  0.00  0.00    +0.000 OA
ATOM     58  N   UNL     1     -10.015   4.801 131.995  0.00  0.00    +0.000 N 
ATOM     59  H   UNL     1     -10.363   5.191 132.865  0.00  0.00    +0.000 HD
BRANCH  56  60
ATOM     60  C   UNL     1      -8.518   3.167 133.290  0.00  0.00    +0.000 C 
BRANCH  60  62
ATOM     61  C   UNL     1      -7.549   4.625 135.096  0.00  0.00    +0.000 C 
ATOM     62  N   UNL     1      -7.445   4.121 133.748  0.00  0.00    +0.000 N 
ATOM     63  C   UNL     1      -6.680   4.920 132.870  0.00  0.00    +0.000 C 
ATOM     64  O   UNL     1      -7.116   5.311 131.793  0.00  0.00    +0.000 OA
BRANCH  63  65
ATOM     65  C   UNL     1      -5.261   5.266 133.407  0.00  0.00    +0.000 C 
BRANCH  65  66
ATOM     66  C   UNL     1      -4.152   5.693 132.446  0.00  0.00    +0.000 A 
ATOM     67  C   UNL     1      -4.181   6.950 131.799  0.00  0.00    +0.000 A 
ATOM     68  C   UNL     1      -3.143   7.351 130.939  0.00  0.00    +0.000 A 
ATOM     69  C   UNL     1      -2.022   6.543 130.774  0.00  0.00    +0.000 A 
ATOM     70  C   UNL     1      -1.987   5.297 131.387  0.00  0.00    +0.000 A 
ATOM     71  C   UNL     1      -3.048   4.875 132.196  0.00  0.00    +0.000 A 
ENDBRANCH  65  66
ENDBRANCH  63  65
ENDBRANCH  60  62
BRANCH  60  72
ATOM     72  C   UNL     1      -8.089   1.659 133.010  0.00  0.00    +0.000 C 
BRANCH  72  73
ATOM     73  C   UNL     1      -6.640   1.286 133.166  0.00  0.00    +0.000 A 
ATOM     74  C   UNL     1      -6.066   1.213 134.432  0.00  0.00    +0.000 A 
ATOM     75  C   UNL     1      -4.707   1.425 134.552  0.00  0.00    +0.000 A 
ATOM     76  C   UNL     1      -3.911   1.530 133.415  0.00  0.00    +0.000 A 
ATOM     77  C   UNL     1      -4.460   1.526 132.148  0.00  0.00    +0.000 A 
ATOM     78  C   UNL     1      -5.829   1.361 132.017  0.00  0.00    +0.000 A 
BRANCH  76  79
ATOM     79  O   UNL     1      -2.565   1.700 133.517  0.00  0.00    +0.000 OA
ATOM     80  H   UNL     1      -2.424   2.660 133.597  0.00  0.00    +0.000 HD
ENDBRANCH  76  79
ENDBRANCH  72  73
ENDBRANCH  60  72
ENDBRANCH  56  60
ENDBRANCH  55  58
BRANCH  55  81
ATOM     81  C   UNL     1     -11.204   6.890 131.069  0.00  0.00    +0.000 C 
BRANCH  81  82
ATOM     82  C   UNL     1     -12.247   7.322 130.067  0.00  0.00    +0.000 A 
ATOM     83  C   UNL     1     -12.563   8.681 129.849  0.00  0.00    +0.000 A 
ATOM     84  C   UNL     1     -13.152   9.085 128.656  0.00  0.00    +0.000 A 
ATOM     85  C   UNL     1     -13.668   8.129 127.799  0.00  0.00    +0.000 A 
ATOM     86  C   UNL     1     -13.574   6.777 128.136  0.00  0.00    +0.000 A 
ATOM     87  C   UNL     1     -12.804   6.365 129.223  0.00  0.00    +0.000 A 
ENDBRANCH  81  82
ENDBRANCH  55  81
ENDBRANCH  51  55
ENDBRANCH  50  53
BRANCH  50  88
ATOM     88  C   UNL     1      -6.440   3.954 128.959  0.00  0.00    +0.000 C 
BRANCH  88  89
ATOM     89  C   UNL     1      -5.156   4.733 128.857  0.00  0.00    +0.000 C 
BRANCH  89  90
ATOM     90  C   UNL     1      -3.921   3.964 128.540  0.00  0.00    +0.000 C 
ATOM     91  N   UNL     1      -3.059   4.527 127.657  0.00  0.00    +0.000 N 
ATOM     92  O   UNL     1      -3.731   2.845 129.003  0.00  0.00    +0.000 OA
ATOM     93  H   UNL     1      -3.196   5.426 127.218  0.00  0.00    +0.000 HD
ATOM     94  H   UNL     1      -2.248   3.988 127.396  0.00  0.00    +0.000 HD
ENDBRANCH  89  90
ENDBRANCH  88  89
ENDBRANCH  50  88
ENDBRANCH  46  50
ENDBRANCH   1  48
BRANCH   1  95
ATOM     95  C   UNL     1      -6.525   1.190 125.153  0.00  0.00    +0.000 C 
BRANCH  95  96
ATOM     96  C   UNL     1      -5.292   1.782 125.769  0.00  0.00    +0.000 C 
ATOM     97  N   UNL     1      -4.579   0.996 126.619  0.00  0.00    +0.000 N 
ATOM     98  O   UNL     1      -4.941   2.937 125.553  0.00  0.00    +0.000 OA
ATOM     99  H   UNL     1      -4.568   0.007 126.363  0.00  0.00    +0.000 HD
ATOM    100  H   UNL     1      -3.595   1.243 126.516  0.00  0.00    +0.000 HD
ENDBRANCH  95  96
ENDBRANCH   1  95
TORSDOF 33
ENDMDL
MODEL 3
REMARK VINA RESULT:      -8.7      2.598      5.677
REMARK  Name = CHEMBL262035
REMARK  34 active torsions:
REMARK  status: ('A' for Active; 'I' for Inactive)
REMARK    1  A    between atoms: C_1  and  N_2
REMARK    2  A    between atoms: N_2  and  C_12
REMARK    3  A    between atoms: C_3  and  C_5
REMARK    4  A    between atoms: C_5  and  C_6
REMARK    5  A    between atoms: C_12  and  C_13
REMARK    6  A    between atoms: C_12  and  C_21
REMARK    7  A    between atoms: C_13  and  C_14
REMARK    8  A    between atoms: C_17  and  O_18
REMARK    9  A    between atoms: N_23  and  C_24
REMARK   10  A    between atoms: C_24  and  C_25
REMARK   11  A    between atoms: C_24  and  C_32
REMARK   12  A    between atoms: C_25  and  C_26
REMARK   13  A    between atoms: N_34  and  C_35
REMARK   14  A    between atoms: C_35  and  C_36
REMARK   15  A    between atoms: C_35  and  C_41
REMARK   16  A    between atoms: C_36  and  C_37
REMARK   17  A    between atoms: C_37  and  C_38
REMARK   18  A    between atoms: N_43  and  C_44
REMARK   19  A    between atoms: C_44  and  C_45
REMARK   20  A    between atoms: C_44  and  C_49
REMARK   21  A    between atoms: C_45  and  C_46
REMARK   22  A    between atoms: N_51  and  C_52
REMARK   23  A    between atoms: C_52  and  C_53
REMARK   24  A    between atoms: C_52  and  C_60
REMARK   25  A    between atoms: C_53  and  C_54
REMARK   26  A    between atoms: C_54  and  C_55
REMARK   27  A    between atoms: C_55  and  N_56
REMARK   28  A    between atoms: C_66  and  C_67
REMARK   29  A    between atoms: N_69  and  C_70
REMARK   30  A    between atoms: C_70  and  C_71
REMARK   31  A    between atoms: C_70  and  C_78
REMARK   32  A    between atoms: C_71  and  C_72
REMARK   33  A    between atoms: C_72  and  C_73
REMARK   34  A    between atoms: C_73  and  N_74
REMARK                            x       y       z     vdW  Elec       q    Type
REMARK                         _______ _______ _______ _____ _____    ______ ____
ROOT
ATOM      1  C   UNL     1      -7.631   2.033 127.645  0.00  0.00    +0.000 C 
ENDROOT
BRANCH   1   2
ATOM      2  C   UNL     1      -7.887   0.898 128.687  0.00  0.00    +0.000 C 
ATOM      3  O   UNL     1      -8.450   1.212 129.740  0.00  0.00    +0.000 OA
ATOM      4  N   UNL     1      -7.463  -0.410 128.411  0.00  0.00    +0.000 N 
ATOM      5  H   UNL     1      -6.769  -0.601 127.692  0.00  0.00    +0.000 HD
BRANCH   4   6
ATOM      6  C   UNL     1      -7.845  -1.616 129.242  0.00  0.00    +0.000 C 
BRANCH   6   7
ATOM      7  C   UNL     1      -6.799  -1.995 130.394  0.00  0.00    +0.000 C 
ATOM      8  O   UNL     1      -7.195  -1.989 131.565  0.00  0.00    +0.000 OA
ATOM      9  N   UNL     1      -5.550  -2.536 130.054  0.00  0.00    +0.000 N 
ATOM     10  C   UNL     1      -4.572  -2.056 129.092  0.00  0.00    +0.000 C 
ATOM     11  C   UNL     1      -3.875  -3.329 128.678  0.00  0.00    +0.000 C 
ATOM     12  C   UNL     1      -3.666  -4.026 130.008  0.00  0.00    +0.000 C 
ATOM     13  C   UNL     1      -4.842  -3.538 130.897  0.00  0.00    +0.000 C 
BRANCH  13  14
ATOM     14  C   UNL     1      -4.133  -2.954 132.129  0.00  0.00    +0.000 C 
ATOM     15  O   UNL     1      -2.953  -2.615 132.084  0.00  0.00    +0.000 OA
ATOM     16  N   UNL     1      -4.872  -2.972 133.308  0.00  0.00    +0.000 N 
ATOM     17  H   UNL     1      -5.699  -3.541 133.348  0.00  0.00    +0.000 HD
BRANCH  16  18
ATOM     18  C   UNL     1      -4.419  -2.275 134.531  0.00  0.00    +0.000 C 
BRANCH  18  19
ATOM     19  C   UNL     1      -3.412  -3.072 135.410  0.00  0.00    +0.000 C 
ATOM     20  N   UNL     1      -2.077  -2.969 135.138  0.00  0.00    +0.000 N 
ATOM     21  O   UNL     1      -3.765  -3.811 136.329  0.00  0.00    +0.000 OA
ATOM     22  H   UNL     1      -1.657  -2.408 134.420  0.00  0.00    +0.000 HD
ATOM     23  H   UNL     1      -1.454  -3.520 135.719  0.00  0.00    +0.000 HD
ENDBRANCH  18  19
BRANCH  18  24
ATOM     24  C   UNL     1      -5.620  -1.894 135.432  0.00  0.00    +0.000 C 
BRANCH  24  25
ATOM     25  C   UNL     1      -5.720  -0.390 135.663  0.00  0.00    +0.000 C 
BRANCH  25  26
ATOM     26  C   UNL     1      -5.503   0.465 134.447  0.00  0.00    +0.000 C 
BRANCH  26  27
ATOM     27  N   UNL     1      -6.746   1.199 134.197  0.00  0.00    +0.000 NA
ATOM     28  C   UNL     1      -7.080   1.349 132.969  0.00  0.00    +0.000 C 
ATOM     29  N   UNL     1      -6.411   0.882 131.903  0.00  0.00    +0.000 N 
ATOM     30  N   UNL     1      -8.182   2.046 132.648  0.00  0.00    +0.000 N 
ATOM     31  H   UNL     1      -5.566   0.353 132.052  0.00  0.00    +0.000 HD
ATOM     32  H   UNL     1      -6.736   0.982 130.958  0.00  0.00    +0.000 HD
ATOM     33  H   UNL     1      -8.737   2.398 133.416  0.00  0.00    +0.000 HD
ATOM     34  H   UNL     1      -8.536   2.128 131.711  0.00  0.00    +0.000 HD
ENDBRANCH  26  27
ENDBRANCH  25  26
ENDBRANCH  24  25
ENDBRANCH  18  24
ENDBRANCH  16  18
ENDBRANCH  13  14
ENDBRANCH   6   7
BRANCH   6  35
ATOM     35  C   UNL     1      -8.109  -2.789 128.304  0.00  0.00    +0.000 C 
BRANCH  35  36
ATOM     36  C   UNL     1      -7.530  -2.627 126.921  0.00  0.00    +0.000 C 
BRANCH  36  37
ATOM     37  C   UNL     1      -8.444  -3.136 125.846  0.00  0.00    +0.000 C 
BRANCH  37  38
ATOM     38  N   UNL     1      -8.226  -2.282 124.683  0.00  0.00    +0.000 NA
ATOM     39  C   UNL     1      -8.938  -2.547 123.654  0.00  0.00    +0.000 C 
ATOM     40  N   UNL     1      -9.858  -3.520 123.549  0.00  0.00    +0.000 N 
ATOM     41  N   UNL     1      -8.759  -1.846 122.524  0.00  0.00    +0.000 N 
ATOM     42  H   UNL     1     -10.050  -4.107 124.347  0.00  0.00    +0.000 HD
ATOM     43  H   UNL     1     -10.428  -3.652 122.734  0.00  0.00    +0.000 HD
ATOM     44  H   UNL     1      -8.148  -1.040 122.585  0.00  0.00    +0.000 HD
ATOM     45  H   UNL     1      -9.383  -1.903 121.739  0.00  0.00    +0.000 HD
ENDBRANCH  37  38
ENDBRANCH  36  37
ENDBRANCH  35  36
ENDBRANCH   6  35
ENDBRANCH   4   6
ENDBRANCH   1   2
BRANCH   1  48
ATOM     46  C   UNL     1      -5.983   4.073 127.540  0.00  0.00    +0.000 C 
ATOM     47  O   UNL     1      -6.732   4.816 126.903  0.00  0.00    +0.000 OA
ATOM     48  N   UNL     1      -6.365   2.822 128.006  0.00  0.00    +0.000 N 
ATOM     49  H   UNL     1      -5.805   2.357 128.721  0.00  0.00    +0.000 HD
BRANCH  46  50
ATOM     50  C   UNL     1      -4.652   4.734 127.921  0.00  0.00    +0.000 C 
BRANCH  50  53
ATOM     51  C   UNL     1      -4.211   6.983 129.086  0.00  0.00    +0.000 C 
ATOM     52  O   UNL     1      -3.278   7.270 128.334  0.00  0.00    +0.000 OA
ATOM     53  N   UNL     1      -4.954   5.825 128.923  0.00  0.00    +0.000 N 
ATOM     54  H   UNL     1      -5.793   5.659 129.480  0.00  0.00    +0.000 HD
BRANCH  51  55
ATOM     55  C   UNL     1      -4.539   7.933 130.270  0.00  0.00    +0.000 C 
BRANCH  55  58
ATOM     56  C   UNL     1      -6.743   6.788 131.117  0.00  0.00    +0.000 C 
ATOM     57  O   UNL     1      -7.550   7.416 130.406  0.00  0.00    +0.000 OA
ATOM     58  N   UNL     1      -5.428   7.183 131.243  0.00  0.00    +0.000 N 
ATOM     59  H   UNL     1      -5.028   7.166 132.175  0.00  0.00    +0.000 HD
BRANCH  56  60
ATOM     60  C   UNL     1      -7.398   5.735 132.025  0.00  0.00    +0.000 C 
BRANCH  60  62
ATOM     61  C   UNL     1      -9.332   6.119 133.585  0.00  0.00    +0.000 C 
ATOM     62  N   UNL     1      -8.884   5.855 132.239  0.00  0.00    +0.000 N 
ATOM     63  C   UNL     1      -9.849   5.263 131.395  0.00  0.00    +0.000 C 
ATOM     64  O   UNL     1      -9.628   4.229 130.772  0.00  0.00    +0.000 OA
BRANCH  63  65
ATOM     65  C   UNL     1     -11.204   6.026 131.352  0.00  0.00    +0.000 C 
BRANCH  65  66
ATOM     66  C   UNL     1     -11.598   6.836 130.118  0.00  0.00    +0.000 A 
ATOM     67  C   UNL     1     -12.910   6.791 129.594  0.00  0.00    +0.000 A 
ATOM     68  C   UNL     1     -13.275   7.563 128.476  0.00  0.00    +0.000 A 
ATOM     69  C   UNL     1     -12.365   8.451 127.914  0.00  0.00    +0.000 A 
ATOM     70  C   UNL     1     -11.065   8.493 128.405  0.00  0.00    +0.000 A 
ATOM     71  C   UNL     1     -10.687   7.682 129.480  0.00  0.00    +0.000 A 
ENDBRANCH  65  66
ENDBRANCH  63  65
ENDBRANCH  60  62
BRANCH  60  72
ATOM     72  C   UNL     1      -6.474   5.648 133.319  0.00  0.00    +0.000 C 
BRANCH  72  73
ATOM     73  C   UNL     1      -5.463   4.537 133.404  0.00  0.00    +0.000 A 
ATOM     74  C   UNL     1      -4.842   4.245 134.615  0.00  0.00    +0.000 A 
ATOM     75  C   UNL     1      -3.590   3.665 134.589  0.00  0.00    +0.000 A 
ATOM     76  C   UNL     1      -3.045   3.224 133.386  0.00  0.00    +0.000 A 
ATOM     77  C   UNL     1      -3.687   3.440 132.183  0.00  0.00    +0.000 A 
ATOM     78  C   UNL     1      -4.925   4.062 132.192  0.00  0.00    +0.000 A 
BRANCH  76  79
ATOM     79  O   UNL     1      -1.829   2.616 133.350  0.00  0.00    +0.000 OA
ATOM     80  H   UNL     1      -1.529   2.678 132.426  0.00  0.00    +0.000 HD
ENDBRANCH  76  79
ENDBRANCH  72  73
ENDBRANCH  60  72
ENDBRANCH  56  60
ENDBRANCH  55  58
BRANCH  55  81
ATOM     81  C   UNL     1      -3.205   8.416 130.827  0.00  0.00    +0.000 C 
BRANCH  81  82
ATOM     82  C   UNL     1      -2.600   7.513 131.875  0.00  0.00    +0.000 A 
ATOM     83  C   UNL     1      -1.663   6.508 131.551  0.00  0.00    +0.000 A 
ATOM     84  C   UNL     1      -0.796   6.015 132.520  0.00  0.00    +0.000 A 
ATOM     85  C   UNL     1      -1.029   6.313 133.851  0.00  0.00    +0.000 A 
ATOM     86  C   UNL     1      -2.118   7.116 134.198  0.00  0.00    +0.000 A 
ATOM     87  C   UNL     1      -2.857   7.777 133.217  0.00  0.00    +0.000 A 
ENDBRANCH  81  82
ENDBRANCH  55  81
ENDBRANCH  51  55
ENDBRANCH  50  53
BRANCH  50  88
ATOM     88  C   UNL     1      -3.893   3.595 128.585  0.00  0.00    +0.000 C 
BRANCH  88  89
ATOM     89  C   UNL     1      -2.487   3.493 128.056  0.00  0.00    +0.000 C 
BRANCH  89  90
ATOM     90  C   UNL     1      -2.323   2.980 126.667  0.00  0.00    +0.000 C 
ATOM     91  N   UNL     1      -1.190   3.337 126.013  0.00  0.00    +0.000 N 
ATOM     92  O   UNL     1      -3.203   2.325 126.122  0.00  0.00    +0.000 OA
ATOM     93  H   UNL     1      -0.458   3.910 126.408  0.00  0.00    +0.000 HD
ATOM     94  H   UNL     1      -1.097   3.039 125.055  0.00  0.00    +0.000 HD
ENDBRANCH  89  90
ENDBRANCH  88  89
ENDBRANCH  50  88
ENDBRANCH  46  50
ENDBRANCH   1  48
BRANCH   1  95
ATOM     95  C   UNL     1      -7.486   1.283 126.329  0.00  0.00    +0.000 C 
BRANCH  95  96
ATOM     96  C   UNL     1      -8.402   1.706 125.218  0.00  0.00    +0.000 C 
ATOM     97  N   UNL     1      -8.222   1.121 124.004  0.00  0.00    +0.000 N 
ATOM     98  O   UNL     1      -9.264   2.565 125.370  0.00  0.00    +0.000 OA
ATOM     99  H   UNL     1      -7.933   0.142 124.050  0.00  0.00    +0.000 HD
ATOM    100  H   UNL     1      -9.137   1.042 123.560  0.00  0.00    +0.000 HD
ENDBRANCH  95  96
ENDBRANCH   1  95
TORSDOF 33
ENDMDL
MODEL 4
REMARK VINA RESULT:      -8.6      3.313     10.949
REMARK  Name = CHEMBL262035
REMARK  34 active torsions:
REMARK  status: ('A' for Active; 'I' for Inactive)
REMARK    1  A    between atoms: C_1  and  N_2
REMARK    2  A    between atoms: N_2  and  C_12
REMARK    3  A    between atoms: C_3  and  C_5
REMARK    4  A    between atoms: C_5  and  C_6
REMARK    5  A    between atoms: C_12  and  C_13
REMARK    6  A    between atoms: C_12  and  C_21
REMARK    7  A    between atoms: C_13  and  C_14
REMARK    8  A    between atoms: C_17  and  O_18
REMARK    9  A    between atoms: N_23  and  C_24
REMARK   10  A    between atoms: C_24  and  C_25
REMARK   11  A    between atoms: C_24  and  C_32
REMARK   12  A    between atoms: C_25  and  C_26
REMARK   13  A    between atoms: N_34  and  C_35
REMARK   14  A    between atoms: C_35  and  C_36
REMARK   15  A    between atoms: C_35  and  C_41
REMARK   16  A    between atoms: C_36  and  C_37
REMARK   17  A    between atoms: C_37  and  C_38
REMARK   18  A    between atoms: N_43  and  C_44
REMARK   19  A    between atoms: C_44  and  C_45
REMARK   20  A    between atoms: C_44  and  C_49
REMARK   21  A    between atoms: C_45  and  C_46
REMARK   22  A    between atoms: N_51  and  C_52
REMARK   23  A    between atoms: C_52  and  C_53
REMARK   24  A    between atoms: C_52  and  C_60
REMARK   25  A    between atoms: C_53  and  C_54
REMARK   26  A    between atoms: C_54  and  C_55
REMARK   27  A    between atoms: C_55  and  N_56
REMARK   28  A    between atoms: C_66  and  C_67
REMARK   29  A    between atoms: N_69  and  C_70
REMARK   30  A    between atoms: C_70  and  C_71
REMARK   31  A    between atoms: C_70  and  C_78
REMARK   32  A    between atoms: C_71  and  C_72
REMARK   33  A    between atoms: C_72  and  C_73
REMARK   34  A    between atoms: C_73  and  N_74
REMARK                            x       y       z     vdW  Elec       q    Type
REMARK                         _______ _______ _______ _____ _____    ______ ____
ROOT
ATOM      1  C   UNL     1      -3.748   1.946 128.700  0.00  0.00    +0.000 C 
ENDROOT
BRANCH   1   2
ATOM      2  C   UNL     1      -4.376   2.948 129.721  0.00  0.00    +0.000 C 
ATOM      3  O   UNL     1      -4.886   3.976 129.266  0.00  0.00    +0.000 OA
ATOM      4  N   UNL     1      -4.324   2.667 131.094  0.00  0.00    +0.000 N 
ATOM      5  H   UNL     1      -3.673   1.983 131.471  0.00  0.00    +0.000 HD
BRANCH   4   6
ATOM      6  C   UNL     1      -5.079   3.451 132.147  0.00  0.00    +0.000 C 
BRANCH   6   7
ATOM      7  C   UNL     1      -4.174   4.433 133.029  0.00  0.00    +0.000 C 
ATOM      8  O   UNL     1      -3.620   3.970 134.032  0.00  0.00    +0.000 OA
ATOM      9  N   UNL     1      -3.845   5.707 132.542  0.00  0.00    +0.000 N 
ATOM     10  C   UNL     1      -4.714   6.733 131.989  0.00  0.00    +0.000 C 
ATOM     11  C   UNL     1      -3.788   7.469 131.051  0.00  0.00    +0.000 C 
ATOM     12  C   UNL     1      -2.531   7.610 131.888  0.00  0.00    +0.000 C 
ATOM     13  C   UNL     1      -2.549   6.379 132.833  0.00  0.00    +0.000 C 
BRANCH  13  14
ATOM     14  C   UNL     1      -2.452   7.007 134.232  0.00  0.00    +0.000 C 
ATOM     15  O   UNL     1      -2.023   6.368 135.189  0.00  0.00    +0.000 OA
ATOM     16  N   UNL     1      -3.006   8.278 134.357  0.00  0.00    +0.000 N 
ATOM     17  H   UNL     1      -3.612   8.611 133.628  0.00  0.00    +0.000 HD
BRANCH  16  18
ATOM     18  C   UNL     1      -2.823   9.100 135.572  0.00  0.00    +0.000 C 
BRANCH  18  19
ATOM     19  C   UNL     1      -3.937   8.942 136.647  0.00  0.00    +0.000 C 
ATOM     20  N   UNL     1      -4.626  10.052 137.049  0.00  0.00    +0.000 N 
ATOM     21  O   UNL     1      -4.215   7.864 137.170  0.00  0.00    +0.000 OA
ATOM     22  H   UNL     1      -4.499  10.987 136.708  0.00  0.00    +0.000 HD
ATOM     23  H   UNL     1      -5.329   9.913 137.766  0.00  0.00    +0.000 HD
ENDBRANCH  18  19
BRANCH  18  24
ATOM     24  C   UNL     1      -2.731  10.605 135.218  0.00  0.00    +0.000 C 
BRANCH  24  25
ATOM     25  C   UNL     1      -2.259  10.839 133.787  0.00  0.00    +0.000 C 
BRANCH  25  26
ATOM     26  C   UNL     1      -1.190  11.880 133.623  0.00  0.00    +0.000 C 
BRANCH  26  27
ATOM     27  N   UNL     1      -1.850  13.136 133.256  0.00  0.00    +0.000 NA
ATOM     28  C   UNL     1      -1.741  13.498 132.032  0.00  0.00    +0.000 C 
ATOM     29  N   UNL     1      -1.101  12.828 131.061  0.00  0.00    +0.000 N 
ATOM     30  N   UNL     1      -2.279  14.657 131.619  0.00  0.00    +0.000 N 
ATOM     31  H   UNL     1      -0.662  11.949 131.285  0.00  0.00    +0.000 HD
ATOM     32  H   UNL     1      -1.084  13.125 130.102  0.00  0.00    +0.000 HD
ATOM     33  H   UNL     1      -2.795  15.190 132.306  0.00  0.00    +0.000 HD
ATOM     34  H   UNL     1      -2.295  14.953 130.660  0.00  0.00    +0.000 HD
ENDBRANCH  26  27
ENDBRANCH  25  26
ENDBRANCH  24  25
ENDBRANCH  18  24
ENDBRANCH  16  18
ENDBRANCH  13  14
ENDBRANCH   6   7
BRANCH   6  35
ATOM     35  C   UNL     1      -5.866   2.471 133.010  0.00  0.00    +0.000 C 
BRANCH  35  36
ATOM     36  C   UNL     1      -5.891   1.056 132.488  0.00  0.00    +0.000 C 
BRANCH  36  37
ATOM     37  C   UNL     1      -5.787   0.032 133.579  0.00  0.00    +0.000 C 
BRANCH  37  38
ATOM     38  N   UNL     1      -7.024  -0.739 133.538  0.00  0.00    +0.000 NA
ATOM     39  C   UNL     1      -6.938  -1.956 133.923  0.00  0.00    +0.000 C 
ATOM     40  N   UNL     1      -5.830  -2.577 134.360  0.00  0.00    +0.000 N 
ATOM     41  N   UNL     1      -8.017  -2.751 133.862  0.00  0.00    +0.000 N 
ATOM     42  H   UNL     1      -4.967  -2.060 134.427  0.00  0.00    +0.000 HD
ATOM     43  H   UNL     1      -5.827  -3.522 134.701  0.00  0.00    +0.000 HD
ATOM     44  H   UNL     1      -8.896  -2.302 133.632  0.00  0.00    +0.000 HD
ATOM     45  H   UNL     1      -8.052  -3.661 134.286  0.00  0.00    +0.000 HD
ENDBRANCH  37  38
ENDBRANCH  36  37
ENDBRANCH  35  36
ENDBRANCH   6  35
ENDBRANCH   4   6
ENDBRANCH   1   2
BRANCH   1  48
ATOM     46  C   UNL     1      -4.466  -0.464 129.451  0.00  0.00    +0.000 C 
ATOM     47  O   UNL     1      -3.800  -0.483 130.489  0.00  0.00    +0.000 OA
ATOM     48  N   UNL     1      -4.573   0.653 128.634  0.00  0.00    +0.000 N 
ATOM     49  H   UNL     1      -5.313   0.697 127.933  0.00  0.00    +0.000 HD
BRANCH  46  50
ATOM     50  C   UNL     1      -5.302  -1.733 129.244  0.00  0.00    +0.000 C 
BRANCH  50  53
ATOM     51  C   UNL     1      -7.638  -1.977 128.197  0.00  0.00    +0.000 C 
ATOM     52  O   UNL     1      -8.035  -2.733 129.086  0.00  0.00    +0.000 OA
ATOM     53  N   UNL     1      -6.373  -1.412 128.226  0.00  0.00    +0.000 N 
ATOM     54  H   UNL     1      -6.103  -0.701 127.546  0.00  0.00    +0.000 HD
BRANCH  51  55
ATOM     55  C   UNL     1      -8.574  -1.681 126.994  0.00  0.00    +0.000 C 
BRANCH  55  58
ATOM     56  C   UNL     1      -8.775   0.654 125.810  0.00  0.00    +0.000 C 
ATOM     57  O   UNL     1      -9.943   0.539 125.397  0.00  0.00    +0.000 OA
ATOM     58  N   UNL     1      -8.073  -0.425 126.307  0.00  0.00    +0.000 N 
ATOM     59  H   UNL     1      -7.107  -0.521 126.012  0.00  0.00    +0.000 HD
BRANCH  56  60
ATOM     60  C   UNL     1      -8.119   2.001 125.469  0.00  0.00    +0.000 C 
BRANCH  60  62
ATOM     61  C   UNL     1      -7.385   4.266 126.279  0.00  0.00    +0.000 C 
ATOM     62  N   UNL     1      -7.947   2.977 126.604  0.00  0.00    +0.000 N 
ATOM     63  C   UNL     1      -7.812   2.592 127.956  0.00  0.00    +0.000 C 
ATOM     64  O   UNL     1      -7.316   1.519 128.285  0.00  0.00    +0.000 OA
BRANCH  63  65
ATOM     65  C   UNL     1      -8.328   3.653 128.969  0.00  0.00    +0.000 C 
BRANCH  65  66
ATOM     66  C   UNL     1      -8.718   3.244 130.389  0.00  0.00    +0.000 A 
ATOM     67  C   UNL     1      -8.729   4.180 131.449  0.00  0.00    +0.000 A 
ATOM     68  C   UNL     1      -9.118   3.804 132.748  0.00  0.00    +0.000 A 
ATOM     69  C   UNL     1      -9.580   2.515 132.993  0.00  0.00    +0.000 A 
ATOM     70  C   UNL     1      -9.557   1.579 131.966  0.00  0.00    +0.000 A 
ATOM     71  C   UNL     1      -9.115   1.938 130.689  0.00  0.00    +0.000 A 
ENDBRANCH  65  66
ENDBRANCH  63  65
ENDBRANCH  60  62
BRANCH  60  72
ATOM     72  C   UNL     1      -8.861   2.521 124.160  0.00  0.00    +0.000 C 
BRANCH  72  73
ATOM     73  C   UNL     1      -8.058   2.682 122.897  0.00  0.00    +0.000 A 
ATOM     74  C   UNL     1      -6.668   2.722 122.950  0.00  0.00    +0.000 A 
ATOM     75  C   UNL     1      -5.992   3.398 121.954  0.00  0.00    +0.000 A 
ATOM     76  C   UNL     1      -6.675   3.870 120.837  0.00  0.00    +0.000 A 
ATOM     77  C   UNL     1      -8.048   3.767 120.736  0.00  0.00    +0.000 A 
ATOM     78  C   UNL     1      -8.744   3.131 121.752  0.00  0.00    +0.000 A 
BRANCH  76  79
ATOM     79  O   UNL     1      -6.016   4.503 119.830  0.00  0.00    +0.000 OA
ATOM     80  H   UNL     1      -5.594   5.280 120.236  0.00  0.00    +0.000 HD
ENDBRANCH  76  79
ENDBRANCH  72  73
ENDBRANCH  60  72
ENDBRANCH  56  60
ENDBRANCH  55  58
BRANCH  55  81
ATOM     81  C   UNL     1      -8.600  -2.940 126.136  0.00  0.00    +0.000 C 
BRANCH  81  82
ATOM     82  C   UNL     1      -7.902  -2.805 124.804  0.00  0.00    +0.000 A 
ATOM     83  C   UNL     1      -8.583  -2.401 123.635  0.00  0.00    +0.000 A 
ATOM     84  C   UNL     1      -7.883  -1.849 122.568  0.00  0.00    +0.000 A 
ATOM     85  C   UNL     1      -6.503  -1.942 122.543  0.00  0.00    +0.000 A 
ATOM     86  C   UNL     1      -5.835  -2.570 123.597  0.00  0.00    +0.000 A 
ATOM     87  C   UNL     1      -6.516  -2.934 124.758  0.00  0.00    +0.000 A 
ENDBRANCH  81  82
ENDBRANCH  55  81
ENDBRANCH  51  55
ENDBRANCH  50  53
BRANCH  50  88
ATOM     88  C   UNL     1      -4.290  -2.708 128.662  0.00  0.00    +0.000 C 
BRANCH  88  89
ATOM     89  C   UNL     1      -3.941  -3.789 129.651  0.00  0.00    +0.000 C 
BRANCH  89  90
ATOM     90  C   UNL     1      -4.933  -4.068 130.726  0.00  0.00    +0.000 C 
ATOM     91  N   UNL     1      -6.037  -4.772 130.373  0.00  0.00    +0.000 N 
ATOM     92  O   UNL     1      -4.788  -3.621 131.858  0.00  0.00    +0.000 OA
ATOM     93  H   UNL     1      -6.219  -5.121 129.443  0.00  0.00    +0.000 HD
ATOM     94  H   UNL     1      -6.739  -4.917 131.082  0.00  0.00    +0.000 HD
ENDBRANCH  89  90
ENDBRANCH  88  89
ENDBRANCH  50  88
ENDBRANCH  46  50
ENDBRANCH   1  48
BRANCH   1  95
ATOM     95  C   UNL     1      -3.774   2.713 127.386  0.00  0.00    +0.000 C 
BRANCH  95  96
ATOM     96  C   UNL     1      -2.473   3.311 126.940  0.00  0.00    +0.000 C 
ATOM     97  N   UNL     1      -2.205   4.585 127.333  0.00  0.00    +0.000 N 
ATOM     98  O   UNL     1      -1.683   2.705 126.224  0.00  0.00    +0.000 OA
ATOM     99  H   UNL     1      -2.553   4.818 128.264  0.00  0.00    +0.000 HD
ATOM    100  H   UNL     1      -1.196   4.661 127.468  0.00  0.00    +0.000 HD
ENDBRANCH  95  96
ENDBRANCH   1  95
TORSDOF 33
ENDMDL
MODEL 5
REMARK VINA RESULT:      -8.5      1.974      3.177
REMARK  Name = CHEMBL262035
REMARK  34 active torsions:
REMARK  status: ('A' for Active; 'I' for Inactive)
REMARK    1  A    between atoms: C_1  and  N_2
REMARK    2  A    between atoms: N_2  and  C_12
REMARK    3  A    between atoms: C_3  and  C_5
REMARK    4  A    between atoms: C_5  and  C_6
REMARK    5  A    between atoms: C_12  and  C_13
REMARK    6  A    between atoms: C_12  and  C_21
REMARK    7  A    between atoms: C_13  and  C_14
REMARK    8  A    between atoms: C_17  and  O_18
REMARK    9  A    between atoms: N_23  and  C_24
REMARK   10  A    between atoms: C_24  and  C_25
REMARK   11  A    between atoms: C_24  and  C_32
REMARK   12  A    between atoms: C_25  and  C_26
REMARK   13  A    between atoms: N_34  and  C_35
REMARK   14  A    between atoms: C_35  and  C_36
REMARK   15  A    between atoms: C_35  and  C_41
REMARK   16  A    between atoms: C_36  and  C_37
REMARK   17  A    between atoms: C_37  and  C_38
REMARK   18  A    between atoms: N_43  and  C_44
REMARK   19  A    between atoms: C_44  and  C_45
REMARK   20  A    between atoms: C_44  and  C_49
REMARK   21  A    between atoms: C_45  and  C_46
REMARK   22  A    between atoms: N_51  and  C_52
REMARK   23  A    between atoms: C_52  and  C_53
REMARK   24  A    between atoms: C_52  and  C_60
REMARK   25  A    between atoms: C_53  and  C_54
REMARK   26  A    between atoms: C_54  and  C_55
REMARK   27  A    between atoms: C_55  and  N_56
REMARK   28  A    between atoms: C_66  and  C_67
REMARK   29  A    between atoms: N_69  and  C_70
REMARK   30  A    between atoms: C_70  and  C_71
REMARK   31  A    between atoms: C_70  and  C_78
REMARK   32  A    between atoms: C_71  and  C_72
REMARK   33  A    between atoms: C_72  and  C_73
REMARK   34  A    between atoms: C_73  and  N_74
REMARK                            x       y       z     vdW  Elec       q    Type
REMARK                         _______ _______ _______ _____ _____    ______ ____
ROOT
ATOM      1  C   UNL     1      -5.643   4.312 127.951  0.00  0.00    +0.000 C 
ENDROOT
BRANCH   1   2
ATOM      2  C   UNL     1      -6.636   3.138 128.226  0.00  0.00    +0.000 C 
ATOM      3  O   UNL     1      -7.538   3.339 129.046  0.00  0.00    +0.000 OA
ATOM      4  N   UNL     1      -6.467   1.913 127.565  0.00  0.00    +0.000 N 
ATOM      5  H   UNL     1      -5.586   1.668 127.121  0.00  0.00    +0.000 HD
BRANCH   4   6
ATOM      6  C   UNL     1      -7.483   0.791 127.591  0.00  0.00    +0.000 C 
BRANCH   6   7
ATOM      7  C   UNL     1      -7.055  -0.480 128.465  0.00  0.00    +0.000 C 
ATOM      8  O   UNL     1      -6.399  -0.285 129.495  0.00  0.00    +0.000 OA
ATOM      9  N   UNL     1      -7.608  -1.740 128.187  0.00  0.00    +0.000 N 
ATOM     10  C   UNL     1      -7.709  -2.438 126.916  0.00  0.00    +0.000 C 
ATOM     11  C   UNL     1      -8.938  -3.292 127.115  0.00  0.00    +0.000 C 
ATOM     12  C   UNL     1      -8.721  -3.844 128.510  0.00  0.00    +0.000 C 
ATOM     13  C   UNL     1      -7.888  -2.755 129.238  0.00  0.00    +0.000 C 
BRANCH  13  14
ATOM     14  C   UNL     1      -6.654  -3.526 129.731  0.00  0.00    +0.000 C 
ATOM     15  O   UNL     1      -6.567  -4.744 129.593  0.00  0.00    +0.000 OA
ATOM     16  N   UNL     1      -5.730  -2.778 130.453  0.00  0.00    +0.000 N 
ATOM     17  H   UNL     1      -6.007  -1.875 130.796  0.00  0.00    +0.000 HD
BRANCH  16  18
ATOM     18  C   UNL     1      -4.403  -3.313 130.826  0.00  0.00    +0.000 C 
BRANCH  18  19
ATOM     19  C   UNL     1      -4.337  -3.997 132.222  0.00  0.00    +0.000 C 
ATOM     20  N   UNL     1      -3.114  -4.242 132.779  0.00  0.00    +0.000 N 
ATOM     21  O   UNL     1      -5.340  -4.349 132.843  0.00  0.00    +0.000 OA
ATOM     22  H   UNL     1      -2.222  -4.010 132.381  0.00  0.00    +0.000 HD
ATOM     23  H   UNL     1      -3.111  -4.708 133.680  0.00  0.00    +0.000 HD
ENDBRANCH  18  19
BRANCH  18  24
ATOM     24  C   UNL     1      -3.327  -2.199 130.806  0.00  0.00    +0.000 C 
BRANCH  24  25
ATOM     25  C   UNL     1      -3.853  -0.872 131.339  0.00  0.00    +0.000 C 
BRANCH  25  26
ATOM     26  C   UNL     1      -3.232  -0.402 132.623  0.00  0.00    +0.000 C 
BRANCH  26  27
ATOM     27  N   UNL     1      -3.394   1.053 132.686  0.00  0.00    +0.000 NA
ATOM     28  C   UNL     1      -3.465   1.568 133.857  0.00  0.00    +0.000 C 
ATOM     29  N   UNL     1      -3.385   0.903 135.021  0.00  0.00    +0.000 N 
ATOM     30  N   UNL     1      -3.657   2.888 134.005  0.00  0.00    +0.000 N 
ATOM     31  H   UNL     1      -3.248  -0.095 135.002  0.00  0.00    +0.000 HD
ATOM     32  H   UNL     1      -3.397   1.354 135.918  0.00  0.00    +0.000 HD
ATOM     33  H   UNL     1      -3.698   3.440 133.159  0.00  0.00    +0.000 HD
ATOM     34  H   UNL     1      -3.641   3.357 134.893  0.00  0.00    +0.000 HD
ENDBRANCH  26  27
ENDBRANCH  25  26
ENDBRANCH  24  25
ENDBRANCH  18  24
ENDBRANCH  16  18
ENDBRANCH  13  14
ENDBRANCH   6   7
BRANCH   6  35
ATOM     35  C   UNL     1      -7.820   0.407 126.154  0.00  0.00    +0.000 C 
BRANCH  35  36
ATOM     36  C   UNL     1      -9.217   0.776 125.719  0.00  0.00    +0.000 C 
BRANCH  36  37
ATOM     37  C   UNL     1      -9.231   1.788 124.612  0.00  0.00    +0.000 C 
BRANCH  37  38
ATOM     38  N   UNL     1      -8.164   2.737 124.909  0.00  0.00    +0.000 NA
ATOM     39  C   UNL     1      -7.773   3.463 123.931  0.00  0.00    +0.000 C 
ATOM     40  N   UNL     1      -8.250   3.434 122.676  0.00  0.00    +0.000 N 
ATOM     41  N   UNL     1      -6.757   4.322 124.105  0.00  0.00    +0.000 N 
ATOM     42  H   UNL     1      -9.007   2.808 122.449  0.00  0.00    +0.000 HD
ATOM     43  H   UNL     1      -7.942   4.063 121.956  0.00  0.00    +0.000 HD
ATOM     44  H   UNL     1      -6.431   4.449 125.057  0.00  0.00    +0.000 HD
ATOM     45  H   UNL     1      -6.505   5.019 123.427  0.00  0.00    +0.000 HD
ENDBRANCH  37  38
ENDBRANCH  36  37
ENDBRANCH  35  36
ENDBRANCH   6  35
ENDBRANCH   4   6
ENDBRANCH   1   2
BRANCH   1  48
ATOM     46  C   UNL     1      -4.319   6.004 129.459  0.00  0.00    +0.000 C 
ATOM     47  O   UNL     1      -4.198   6.880 128.600  0.00  0.00    +0.000 OA
ATOM     48  N   UNL     1      -5.058   4.844 129.266  0.00  0.00    +0.000 N 
ATOM     49  H   UNL     1      -5.324   4.276 130.071  0.00  0.00    +0.000 HD
BRANCH  46  50
ATOM     50  C   UNL     1      -3.723   6.398 130.816  0.00  0.00    +0.000 C 
BRANCH  50  53
ATOM     51  C   UNL     1      -4.676   6.526 133.201  0.00  0.00    +0.000 C 
ATOM     52  O   UNL     1      -3.705   7.151 133.632  0.00  0.00    +0.000 OA
ATOM     53  N   UNL     1      -4.791   6.180 131.864  0.00  0.00    +0.000 N 
ATOM     54  H   UNL     1      -5.651   5.766 131.503  0.00  0.00    +0.000 HD
BRANCH  51  55
ATOM     55  C   UNL     1      -5.785   6.087 134.196  0.00  0.00    +0.000 C 
BRANCH  55  58
ATOM     56  C   UNL     1      -8.040   5.332 133.085  0.00  0.00    +0.000 C 
ATOM     57  O   UNL     1      -8.805   6.086 133.715  0.00  0.00    +0.000 OA
ATOM     58  N   UNL     1      -6.727   5.149 133.466  0.00  0.00    +0.000 N 
ATOM     59  H   UNL     1      -6.372   4.199 133.453  0.00  0.00    +0.000 HD
BRANCH  56  60
ATOM     60  C   UNL     1      -8.749   4.446 132.048  0.00  0.00    +0.000 C 
BRANCH  60  62
ATOM     61  C   UNL     1     -10.871   4.288 130.708  0.00  0.00    +0.000 C 
ATOM     62  N   UNL     1      -9.787   5.113 131.183  0.00  0.00    +0.000 N 
ATOM     63  C   UNL     1      -9.541   6.274 130.418  0.00  0.00    +0.000 C 
ATOM     64  O   UNL     1      -8.431   6.540 129.969  0.00  0.00    +0.000 OA
BRANCH  63  65
ATOM     65  C   UNL     1     -10.802   7.155 130.186  0.00  0.00    +0.000 C 
BRANCH  65  66
ATOM     66  C   UNL     1     -11.451   7.231 128.805  0.00  0.00    +0.000 A 
ATOM     67  C   UNL     1     -10.692   7.527 127.649  0.00  0.00    +0.000 A 
ATOM     68  C   UNL     1     -11.289   7.565 126.375  0.00  0.00    +0.000 A 
ATOM     69  C   UNL     1     -12.630   7.229 126.223  0.00  0.00    +0.000 A 
ATOM     70  C   UNL     1     -13.394   6.956 127.351  0.00  0.00    +0.000 A 
ATOM     71  C   UNL     1     -12.813   6.975 128.623  0.00  0.00    +0.000 A 
ENDBRANCH  65  66
ENDBRANCH  63  65
ENDBRANCH  60  62
BRANCH  60  72
ATOM     72  C   UNL     1      -9.181   3.129 132.831  0.00  0.00    +0.000 C 
BRANCH  72  73
ATOM     73  C   UNL     1      -8.527   1.826 132.459  0.00  0.00    +0.000 A 
ATOM     74  C   UNL     1      -9.257   0.835 131.810  0.00  0.00    +0.000 A 
ATOM     75  C   UNL     1      -8.868  -0.480 131.969  0.00  0.00    +0.000 A 
ATOM     76  C   UNL     1      -7.673  -0.784 132.616  0.00  0.00    +0.000 A 
ATOM     77  C   UNL     1      -6.899   0.199 133.199  0.00  0.00    +0.000 A 
ATOM     78  C   UNL     1      -7.304   1.519 133.085  0.00  0.00    +0.000 A 
BRANCH  76  79
ATOM     79  O   UNL     1      -7.257  -2.073 132.746  0.00  0.00    +0.000 OA
ATOM     80  H   UNL     1      -7.939  -2.519 133.278  0.00  0.00    +0.000 HD
ENDBRANCH  76  79
ENDBRANCH  72  73
ENDBRANCH  60  72
ENDBRANCH  56  60
ENDBRANCH  55  58
BRANCH  55  81
ATOM     81  C   UNL     1      -5.077   5.502 135.412  0.00  0.00    +0.000 C 
BRANCH  81  82
ATOM     82  C   UNL     1      -5.704   5.866 136.736  0.00  0.00    +0.000 A 
ATOM     83  C   UNL     1      -6.853   6.681 136.826  0.00  0.00    +0.000 A 
ATOM     84  C   UNL     1      -7.666   6.633 137.953  0.00  0.00    +0.000 A 
ATOM     85  C   UNL     1      -7.207   5.990 139.089  0.00  0.00    +0.000 A 
ATOM     86  C   UNL     1      -5.947   5.387 139.081  0.00  0.00    +0.000 A 
ATOM     87  C   UNL     1      -5.228   5.256 137.893  0.00  0.00    +0.000 A 
ENDBRANCH  81  82
ENDBRANCH  55  81
ENDBRANCH  51  55
ENDBRANCH  50  53
BRANCH  50  88
ATOM     88  C   UNL     1      -2.594   5.392 130.989  0.00  0.00    +0.000 C 
BRANCH  88  89
ATOM     89  C   UNL     1      -1.264   6.083 131.127  0.00  0.00    +0.000 C 
BRANCH  89  90
ATOM     90  C   UNL     1      -0.763   6.316 132.510  0.00  0.00    +0.000 C 
ATOM     91  N   UNL     1      -1.239   5.496 133.480  0.00  0.00    +0.000 N 
ATOM     92  O   UNL     1      -0.010   7.249 132.767  0.00  0.00    +0.000 OA
ATOM     93  H   UNL     1      -1.893   4.743 133.321  0.00  0.00    +0.000 HD
ATOM     94  H   UNL     1      -0.947   5.682 134.426  0.00  0.00    +0.000 HD
ENDBRANCH  89  90
ENDBRANCH  88  89
ENDBRANCH  50  88
ENDBRANCH  46  50
ENDBRANCH   1  48
BRANCH   1  95
ATOM     95  C   UNL     1      -4.582   3.680 127.063  0.00  0.00    +0.000 C 
BRANCH  95  96
ATOM     96  C   UNL     1      -3.338   3.200 127.750  0.00  0.00    +0.000 C 
ATOM     97  N   UNL     1      -2.150   3.693 127.309  0.00  0.00    +0.000 N 
ATOM     98  O   UNL     1      -3.367   2.373 128.656  0.00  0.00    +0.000 OA
ATOM     99  H   UNL     1      -2.190   4.666 127.000  0.00  0.00    +0.000 HD
ATOM    100  H   UNL     1      -1.526   3.761 128.112  0.00  0.00    +0.000 HD
ENDBRANCH  95  96
ENDBRANCH   1  95
TORSDOF 33
ENDMDL
MODEL 6
REMARK VINA RESULT:      -8.4      2.681      8.570
REMARK  Name = CHEMBL262035
REMARK  34 active torsions:
REMARK  status: ('A' for Active; 'I' for Inactive)
REMARK    1  A    between atoms: C_1  and  N_2
REMARK    2  A    between atoms: N_2  and  C_12
REMARK    3  A    between atoms: C_3  and  C_5
REMARK    4  A    between atoms: C_5  and  C_6
REMARK    5  A    between atoms: C_12  and  C_13
REMARK    6  A    between atoms: C_12  and  C_21
REMARK    7  A    between atoms: C_13  and  C_14
REMARK    8  A    between atoms: C_17  and  O_18
REMARK    9  A    between atoms: N_23  and  C_24
REMARK   10  A    between atoms: C_24  and  C_25
REMARK   11  A    between atoms: C_24  and  C_32
REMARK   12  A    between atoms: C_25  and  C_26
REMARK   13  A    between atoms: N_34  and  C_35
REMARK   14  A    between atoms: C_35  and  C_36
REMARK   15  A    between atoms: C_35  and  C_41
REMARK   16  A    between atoms: C_36  and  C_37
REMARK   17  A    between atoms: C_37  and  C_38
REMARK   18  A    between atoms: N_43  and  C_44
REMARK   19  A    between atoms: C_44  and  C_45
REMARK   20  A    between atoms: C_44  and  C_49
REMARK   21  A    between atoms: C_45  and  C_46
REMARK   22  A    between atoms: N_51  and  C_52
REMARK   23  A    between atoms: C_52  and  C_53
REMARK   24  A    between atoms: C_52  and  C_60
REMARK   25  A    between atoms: C_53  and  C_54
REMARK   26  A    between atoms: C_54  and  C_55
REMARK   27  A    between atoms: C_55  and  N_56
REMARK   28  A    between atoms: C_66  and  C_67
REMARK   29  A    between atoms: N_69  and  C_70
REMARK   30  A    between atoms: C_70  and  C_71
REMARK   31  A    between atoms: C_70  and  C_78
REMARK   32  A    between atoms: C_71  and  C_72
REMARK   33  A    between atoms: C_72  and  C_73
REMARK   34  A    between atoms: C_73  and  N_74
REMARK                            x       y       z     vdW  Elec       q    Type
REMARK                         _______ _______ _______ _____ _____    ______ ____
ROOT
ATOM      1  C   UNL     1      -2.291   5.326 129.548  0.00  0.00    +0.000 C 
ENDROOT
BRANCH   1   2
ATOM      2  C   UNL     1      -2.868   5.544 130.984  0.00  0.00    +0.000 C 
ATOM      3  O   UNL     1      -2.063   5.792 131.887  0.00  0.00    +0.000 OA
ATOM      4  N   UNL     1      -4.249   5.434 131.204  0.00  0.00    +0.000 N 
ATOM      5  H   UNL     1      -4.856   4.964 130.537  0.00  0.00    +0.000 HD
BRANCH   4   6
ATOM      6  C   UNL     1      -4.934   5.832 132.495  0.00  0.00    +0.000 C 
BRANCH   6   7
ATOM      7  C   UNL     1      -4.650   4.858 133.732  0.00  0.00    +0.000 C 
ATOM      8  O   UNL     1      -4.380   3.676 133.492  0.00  0.00    +0.000 OA
ATOM      9  N   UNL     1      -4.488   5.391 135.020  0.00  0.00    +0.000 N 
ATOM     10  C   UNL     1      -5.333   6.330 135.738  0.00  0.00    +0.000 C 
ATOM     11  C   UNL     1      -4.346   7.021 136.648  0.00  0.00    +0.000 C 
ATOM     12  C   UNL     1      -3.526   5.858 137.172  0.00  0.00    +0.000 C 
ATOM     13  C   UNL     1      -3.571   4.802 136.034  0.00  0.00    +0.000 C 
BRANCH  13  14
ATOM     14  C   UNL     1      -4.114   3.549 136.739  0.00  0.00    +0.000 C 
ATOM     15  O   UNL     1      -4.609   3.614 137.862  0.00  0.00    +0.000 OA
ATOM     16  N   UNL     1      -3.879   2.345 136.083  0.00  0.00    +0.000 N 
ATOM     17  H   UNL     1      -3.205   2.327 135.339  0.00  0.00    +0.000 HD
BRANCH  16  18
ATOM     18  C   UNL     1      -4.501   1.076 136.519  0.00  0.00    +0.000 C 
BRANCH  18  19
ATOM     19  C   UNL     1      -3.547   0.095 137.261  0.00  0.00    +0.000 C 
ATOM     20  N   UNL     1      -3.570   0.061 138.626  0.00  0.00    +0.000 N 
ATOM     21  O   UNL     1      -2.754  -0.640 136.673  0.00  0.00    +0.000 OA
ATOM     22  H   UNL     1      -4.162   0.606 139.225  0.00  0.00    +0.000 HD
ATOM     23  H   UNL     1      -2.920  -0.576 139.074  0.00  0.00    +0.000 HD
ENDBRANCH  18  19
BRANCH  18  24
ATOM     24  C   UNL     1      -5.109   0.311 135.318  0.00  0.00    +0.000 C 
BRANCH  24  25
ATOM     25  C   UNL     1      -4.357   0.575 134.019  0.00  0.00    +0.000 C 
BRANCH  25  26
ATOM     26  C   UNL     1      -3.789  -0.641 133.344  0.00  0.00    +0.000 C 
BRANCH  26  27
ATOM     27  N   UNL     1      -4.158  -0.571 131.927  0.00  0.00    +0.000 NA
ATOM     28  C   UNL     1      -3.564  -1.393 131.145  0.00  0.00    +0.000 C 
ATOM     29  N   UNL     1      -2.658  -2.317 131.505  0.00  0.00    +0.000 N 
ATOM     30  N   UNL     1      -3.810  -1.370 129.825  0.00  0.00    +0.000 N 
ATOM     31  H   UNL     1      -2.408  -2.400 132.478  0.00  0.00    +0.000 HD
ATOM     32  H   UNL     1      -2.254  -2.975 130.864  0.00  0.00    +0.000 HD
ATOM     33  H   UNL     1      -4.505  -0.709 129.504  0.00  0.00    +0.000 HD
ATOM     34  H   UNL     1      -3.437  -2.039 129.176  0.00  0.00    +0.000 HD
ENDBRANCH  26  27
ENDBRANCH  25  26
ENDBRANCH  24  25
ENDBRANCH  18  24
ENDBRANCH  16  18
ENDBRANCH  13  14
ENDBRANCH   6   7
BRANCH   6  35
ATOM     35  C   UNL     1      -6.426   5.989 132.223  0.00  0.00    +0.000 C 
BRANCH  35  36
ATOM     36  C   UNL     1      -6.766   7.003 131.159  0.00  0.00    +0.000 C 
BRANCH  36  37
ATOM     37  C   UNL     1      -8.166   6.854 130.642  0.00  0.00    +0.000 C 
BRANCH  37  38
ATOM     38  N   UNL     1      -9.002   6.557 131.800  0.00  0.00    +0.000 NA
ATOM     39  C   UNL     1     -10.252   6.418 131.566  0.00  0.00    +0.000 C 
ATOM     40  N   UNL     1     -10.855   6.513 130.369  0.00  0.00    +0.000 N 
ATOM     41  N   UNL     1     -11.099   6.200 132.583  0.00  0.00    +0.000 N 
ATOM     42  H   UNL     1     -10.297   6.689 129.547  0.00  0.00    +0.000 HD
ATOM     43  H   UNL     1     -11.835   6.343 130.232  0.00  0.00    +0.000 HD
ATOM     44  H   UNL     1     -10.680   6.023 133.489  0.00  0.00    +0.000 HD
ATOM     45  H   UNL     1     -12.058   5.935 132.451  0.00  0.00    +0.000 HD
ENDBRANCH  37  38
ENDBRANCH  36  37
ENDBRANCH  35  36
ENDBRANCH   6  35
ENDBRANCH   4   6
ENDBRANCH   1   2
BRANCH   1  48
ATOM     46  C   UNL     1      -2.928   3.764 127.538  0.00  0.00    +0.000 C 
ATOM     47  O   UNL     1      -1.788   3.666 127.080  0.00  0.00    +0.000 OA
ATOM     48  N   UNL     1      -3.219   4.423 128.725  0.00  0.00    +0.000 N 
ATOM     49  H   UNL     1      -4.121   4.272 129.178  0.00  0.00    +0.000 HD
BRANCH  46  50
ATOM     50  C   UNL     1      -3.966   2.941 126.764  0.00  0.00    +0.000 C 
BRANCH  50  53
ATOM     51  C   UNL     1      -5.123   1.889 128.805  0.00  0.00    +0.000 C 
ATOM     52  O   UNL     1      -4.086   1.357 129.208  0.00  0.00    +0.000 OA
ATOM     53  N   UNL     1      -5.141   2.705 127.685  0.00  0.00    +0.000 N 
ATOM     54  H   UNL     1      -5.980   3.229 127.434  0.00  0.00    +0.000 HD
BRANCH  51  55
ATOM     55  C   UNL     1      -6.451   1.608 129.559  0.00  0.00    +0.000 C 
BRANCH  55  58
ATOM     56  C   UNL     1      -7.281  -0.421 128.116  0.00  0.00    +0.000 C 
ATOM     57  O   UNL     1      -7.884   0.225 127.239  0.00  0.00    +0.000 OA
ATOM     58  N   UNL     1      -6.852   0.171 129.285  0.00  0.00    +0.000 N 
ATOM     59  H   UNL     1      -7.004  -0.344 130.146  0.00  0.00    +0.000 HD
BRANCH  56  60
ATOM     60  C   UNL     1      -7.307  -1.943 127.901  0.00  0.00    +0.000 C 
BRANCH  60  62
ATOM     61  C   UNL     1      -8.713  -3.356 126.368  0.00  0.00    +0.000 C 
ATOM     62  N   UNL     1      -7.620  -2.425 126.508  0.00  0.00    +0.000 N 
ATOM     63  C   UNL     1      -6.678  -2.449 125.456  0.00  0.00    +0.000 C 
ATOM     64  O   UNL     1      -5.476  -2.591 125.657  0.00  0.00    +0.000 OA
BRANCH  63  65
ATOM     65  C   UNL     1      -7.307  -2.302 124.041  0.00  0.00    +0.000 C 
BRANCH  65  66
ATOM     66  C   UNL     1      -8.034  -1.017 123.646  0.00  0.00    +0.000 A 
ATOM     67  C   UNL     1      -7.428   0.251 123.806  0.00  0.00    +0.000 A 
ATOM     68  C   UNL     1      -8.089   1.429 123.412  0.00  0.00    +0.000 A 
ATOM     69  C   UNL     1      -9.326   1.357 122.780  0.00  0.00    +0.000 A 
ATOM     70  C   UNL     1      -9.943   0.120 122.633  0.00  0.00    +0.000 A 
ATOM     71  C   UNL     1      -9.310  -1.045 123.078  0.00  0.00    +0.000 A 
ENDBRANCH  65  66
ENDBRANCH  63  65
ENDBRANCH  60  62
BRANCH  60  72
ATOM     72  C   UNL     1      -8.180  -2.531 129.095  0.00  0.00    +0.000 C 
BRANCH  72  73
ATOM     73  C   UNL     1      -7.483  -3.314 130.175  0.00  0.00    +0.000 A 
ATOM     74  C   UNL     1      -7.571  -2.908 131.503  0.00  0.00    +0.000 A 
ATOM     75  C   UNL     1      -6.546  -3.247 132.363  0.00  0.00    +0.000 A 
ATOM     76  C   UNL     1      -5.544  -4.122 131.951  0.00  0.00    +0.000 A 
ATOM     77  C   UNL     1      -5.488  -4.594 130.655  0.00  0.00    +0.000 A 
ATOM     78  C   UNL     1      -6.487  -4.223 129.769  0.00  0.00    +0.000 A 
BRANCH  76  79
ATOM     79  O   UNL     1      -4.549  -4.495 132.800  0.00  0.00    +0.000 OA
ATOM     80  H   UNL     1      -4.220  -3.672 133.202  0.00  0.00    +0.000 HD
ENDBRANCH  76  79
ENDBRANCH  72  73
ENDBRANCH  60  72
ENDBRANCH  56  60
ENDBRANCH  55  58
BRANCH  55  81
ATOM     81  C   UNL     1      -6.208   1.961 131.022  0.00  0.00    +0.000 C 
BRANCH  81  82
ATOM     82  C   UNL     1      -7.403   2.553 131.729  0.00  0.00    +0.000 A 
ATOM     83  C   UNL     1      -8.626   2.796 131.066  0.00  0.00    +0.000 A 
ATOM     84  C   UNL     1      -9.811   2.895 131.787  0.00  0.00    +0.000 A 
ATOM     85  C   UNL     1      -9.756   3.022 133.164  0.00  0.00    +0.000 A 
ATOM     86  C   UNL     1      -8.516   3.030 133.808  0.00  0.00    +0.000 A 
ATOM     87  C   UNL     1      -7.349   2.722 133.110  0.00  0.00    +0.000 A 
ENDBRANCH  81  82
ENDBRANCH  55  81
ENDBRANCH  51  55
ENDBRANCH  50  53
BRANCH  50  88
ATOM     88  C   UNL     1      -4.357   3.879 125.631  0.00  0.00    +0.000 C 
BRANCH  88  89
ATOM     89  C   UNL     1      -5.795   3.683 125.232  0.00  0.00    +0.000 C 
BRANCH  89  90
ATOM     90  C   UNL     1      -6.648   4.901 125.155  0.00  0.00    +0.000 C 
ATOM     91  N   UNL     1      -7.990   4.709 125.142  0.00  0.00    +0.000 N 
ATOM     92  O   UNL     1      -6.155   6.018 125.039  0.00  0.00    +0.000 OA
ATOM     93  H   UNL     1      -8.439   3.806 125.192  0.00  0.00    +0.000 HD
ATOM     94  H   UNL     1      -8.572   5.525 125.035  0.00  0.00    +0.000 HD
ENDBRANCH  89  90
ENDBRANCH  88  89
ENDBRANCH  50  88
ENDBRANCH  46  50
ENDBRANCH   1  48
BRANCH   1  95
ATOM     95  C   UNL     1      -2.206   6.735 128.981  0.00  0.00    +0.000 C 
BRANCH  95  96
ATOM     96  C   UNL     1      -3.498   7.350 128.531  0.00  0.00    +0.000 C 
ATOM     97  N   UNL     1      -3.891   8.497 129.146  0.00  0.00    +0.000 N 
ATOM     98  O   UNL     1      -4.201   6.839 127.666  0.00  0.00    +0.000 OA
ATOM     99  H   UNL     1      -3.122   9.117 129.406  0.00  0.00    +0.000 HD
ATOM    100  H   UNL     1      -4.384   9.064 128.456  0.00  0.00    +0.000 HD
ENDBRANCH  95  96
ENDBRANCH   1  95
TORSDOF 33
ENDMDL
MODEL 7
REMARK VINA RESULT:      -8.4      2.861      7.318
REMARK  Name = CHEMBL262035
REMARK  34 active torsions:
REMARK  status: ('A' for Active; 'I' for Inactive)
REMARK    1  A    between atoms: C_1  and  N_2
REMARK    2  A    between atoms: N_2  and  C_12
REMARK    3  A    between atoms: C_3  and  C_5
REMARK    4  A    between atoms: C_5  and  C_6
REMARK    5  A    between atoms: C_12  and  C_13
REMARK    6  A    between atoms: C_12  and  C_21
REMARK    7  A    between atoms: C_13  and  C_14
REMARK    8  A    between atoms: C_17  and  O_18
REMARK    9  A    between atoms: N_23  and  C_24
REMARK   10  A    between atoms: C_24  and  C_25
REMARK   11  A    between atoms: C_24  and  C_32
REMARK   12  A    between atoms: C_25  and  C_26
REMARK   13  A    between atoms: N_34  and  C_35
REMARK   14  A    between atoms: C_35  and  C_36
REMARK   15  A    between atoms: C_35  and  C_41
REMARK   16  A    between atoms: C_36  and  C_37
REMARK   17  A    between atoms: C_37  and  C_38
REMARK   18  A    between atoms: N_43  and  C_44
REMARK   19  A    between atoms: C_44  and  C_45
REMARK   20  A    between atoms: C_44  and  C_49
REMARK   21  A    between atoms: C_45  and  C_46
REMARK   22  A    between atoms: N_51  and  C_52
REMARK   23  A    between atoms: C_52  and  C_53
REMARK   24  A    between atoms: C_52  and  C_60
REMARK   25  A    between atoms: C_53  and  C_54
REMARK   26  A    between atoms: C_54  and  C_55
REMARK   27  A    between atoms: C_55  and  N_56
REMARK   28  A    between atoms: C_66  and  C_67
REMARK   29  A    between atoms: N_69  and  C_70
REMARK   30  A    between atoms: C_70  and  C_71
REMARK   31  A    between atoms: C_70  and  C_78
REMARK   32  A    between atoms: C_71  and  C_72
REMARK   33  A    between atoms: C_72  and  C_73
REMARK   34  A    between atoms: C_73  and  N_74
REMARK                            x       y       z     vdW  Elec       q    Type
REMARK                         _______ _______ _______ _____ _____    ______ ____
ROOT
ATOM      1  C   UNL     1      -4.507   4.511 128.347  0.00  0.00    +0.000 C 
ENDROOT
BRANCH   1   2
ATOM      2  C   UNL     1      -5.481   3.289 128.383  0.00  0.00    +0.000 C 
ATOM      3  O   UNL     1      -5.053   2.238 128.869  0.00  0.00    +0.000 OA
ATOM      4  N   UNL     1      -6.775   3.414 127.857  0.00  0.00    +0.000 N 
ATOM      5  H   UNL     1      -7.018   4.170 127.222  0.00  0.00    +0.000 HD
BRANCH   4   6
ATOM      6  C   UNL     1      -7.862   2.374 128.031  0.00  0.00    +0.000 C 
BRANCH   6   7
ATOM      7  C   UNL     1      -8.428   1.761 126.665  0.00  0.00    +0.000 C 
ATOM      8  O   UNL     1      -9.521   1.186 126.694  0.00  0.00    +0.000 OA
ATOM      9  N   UNL     1      -7.807   2.076 125.446  0.00  0.00    +0.000 N 
ATOM     10  C   UNL     1      -6.400   2.010 125.088  0.00  0.00    +0.000 C 
ATOM     11  C   UNL     1      -6.287   3.076 124.026  0.00  0.00    +0.000 C 
ATOM     12  C   UNL     1      -7.516   2.815 123.178  0.00  0.00    +0.000 C 
ATOM     13  C   UNL     1      -8.552   2.211 124.165  0.00  0.00    +0.000 C 
BRANCH  13  14
ATOM     14  C   UNL     1      -8.934   0.879 123.502  0.00  0.00    +0.000 C 
ATOM     15  O   UNL     1      -9.807   0.825 122.638  0.00  0.00    +0.000 OA
ATOM     16  N   UNL     1      -8.331  -0.253 124.041  0.00  0.00    +0.000 N 
ATOM     17  H   UNL     1      -7.877  -0.176 124.933  0.00  0.00    +0.000 HD
BRANCH  16  18
ATOM     18  C   UNL     1      -8.433  -1.581 123.399  0.00  0.00    +0.000 C 
BRANCH  18  19
ATOM     19  C   UNL     1      -9.360  -2.596 124.130  0.00  0.00    +0.000 C 
ATOM     20  N   UNL     1      -9.919  -3.613 123.409  0.00  0.00    +0.000 N 
ATOM     21  O   UNL     1      -9.630  -2.513 125.327  0.00  0.00    +0.000 OA
ATOM     22  H   UNL     1      -9.785  -3.794 122.432  0.00  0.00    +0.000 HD
ATOM     23  H   UNL     1     -10.533  -4.242 123.916  0.00  0.00    +0.000 HD
ENDBRANCH  18  19
BRANCH  18  24
ATOM     24  C   UNL     1      -7.040  -2.243 123.260  0.00  0.00    +0.000 C 
BRANCH  24  25
ATOM     25  C   UNL     1      -6.006  -1.622 124.192  0.00  0.00    +0.000 C 
BRANCH  25  26
ATOM     26  C   UNL     1      -5.868  -2.284 125.533  0.00  0.00    +0.000 C 
BRANCH  26  27
ATOM     27  N   UNL     1      -6.440  -1.379 126.534  0.00  0.00    +0.000 NA
ATOM     28  C   UNL     1      -5.870  -1.366 127.680  0.00  0.00    +0.000 C 
ATOM     29  N   UNL     1      -4.793  -2.083 128.039  0.00  0.00    +0.000 N 
ATOM     30  N   UNL     1      -6.355  -0.597 128.668  0.00  0.00    +0.000 N 
ATOM     31  H   UNL     1      -4.367  -2.694 127.359  0.00  0.00    +0.000 HD
ATOM     32  H   UNL     1      -4.348  -2.004 128.935  0.00  0.00    +0.000 HD
ATOM     33  H   UNL     1      -7.151  -0.016 128.443  0.00  0.00    +0.000 HD
ATOM     34  H   UNL     1      -5.905  -0.485 129.559  0.00  0.00    +0.000 HD
ENDBRANCH  26  27
ENDBRANCH  25  26
ENDBRANCH  24  25
ENDBRANCH  18  24
ENDBRANCH  16  18
ENDBRANCH  13  14
ENDBRANCH   6   7
BRANCH   6  35
ATOM     35  C   UNL     1      -8.971   2.971 128.891  0.00  0.00    +0.000 C 
BRANCH  35  36
ATOM     36  C   UNL     1      -8.651   4.324 129.476  0.00  0.00    +0.000 C 
BRANCH  36  37
ATOM     37  C   UNL     1      -9.753   4.858 130.341  0.00  0.00    +0.000 C 
BRANCH  37  38
ATOM     38  N   UNL     1     -10.766   5.387 129.435  0.00  0.00    +0.000 NA
ATOM     39  C   UNL     1     -11.769   5.956 129.990  0.00  0.00    +0.000 C 
ATOM     40  N   UNL     1     -11.969   6.112 131.308  0.00  0.00    +0.000 N 
ATOM     41  N   UNL     1     -12.774   6.419 129.231  0.00  0.00    +0.000 N 
ATOM     42  H   UNL     1     -11.271   5.781 131.957  0.00  0.00    +0.000 HD
ATOM     43  H   UNL     1     -12.750   6.614 131.691  0.00  0.00    +0.000 HD
ATOM     44  H   UNL     1     -12.623   6.412 128.228  0.00  0.00    +0.000 HD
ATOM     45  H   UNL     1     -13.508   7.003 129.589  0.00  0.00    +0.000 HD
ENDBRANCH  37  38
ENDBRANCH  36  37
ENDBRANCH  35  36
ENDBRANCH   6  35
ENDBRANCH   4   6
ENDBRANCH   1   2
BRANCH   1  48
ATOM     46  C   UNL     1      -4.117   6.627 129.850  0.00  0.00    +0.000 C 
ATOM     47  O   UNL     1      -3.470   7.263 129.016  0.00  0.00    +0.000 OA
ATOM     48  N   UNL     1      -4.713   5.402 129.579  0.00  0.00    +0.000 N 
ATOM     49  H   UNL     1      -5.427   5.038 130.211  0.00  0.00    +0.000 HD
BRANCH  46  50
ATOM     50  C   UNL     1      -4.349   7.397 131.156  0.00  0.00    +0.000 C 
BRANCH  50  53
ATOM     51  C   UNL     1      -6.125   6.096 132.485  0.00  0.00    +0.000 C 
ATOM     52  O   UNL     1      -7.058   6.551 131.819  0.00  0.00    +0.000 OA
ATOM     53  N   UNL     1      -4.804   6.401 132.198  0.00  0.00    +0.000 N 
ATOM     54  H   UNL     1      -4.041   5.927 132.683  0.00  0.00    +0.000 HD
BRANCH  51  55
ATOM     55  C   UNL     1      -6.446   5.182 133.698  0.00  0.00    +0.000 C 
BRANCH  55  58
ATOM     56  C   UNL     1      -5.048   6.425 135.538  0.00  0.00    +0.000 C 
ATOM     57  O   UNL     1      -3.975   5.812 135.386  0.00  0.00    +0.000 OA
ATOM     58  N   UNL     1      -6.222   5.985 134.964  0.00  0.00    +0.000 N 
ATOM     59  H   UNL     1      -7.055   6.008 135.543  0.00  0.00    +0.000 HD
BRANCH  56  60
ATOM     60  C   UNL     1      -4.994   7.521 136.614  0.00  0.00    +0.000 C 
BRANCH  60  62
ATOM     61  C   UNL     1      -2.743   7.400 137.729  0.00  0.00    +0.000 C 
ATOM     62  N   UNL     1      -3.647   8.141 136.883  0.00  0.00    +0.000 N 
ATOM     63  C   UNL     1      -3.393   9.528 136.810  0.00  0.00    +0.000 C 
ATOM     64  O   UNL     1      -4.260  10.366 137.039  0.00  0.00    +0.000 OA
BRANCH  63  65
ATOM     65  C   UNL     1      -1.925   9.883 136.438  0.00  0.00    +0.000 C 
BRANCH  65  66
ATOM     66  C   UNL     1      -1.589  10.434 135.053  0.00  0.00    +0.000 A 
ATOM     67  C   UNL     1      -2.548  11.134 134.285  0.00  0.00    +0.000 A 
ATOM     68  C   UNL     1      -2.224  11.665 133.023  0.00  0.00    +0.000 A 
ATOM     69  C   UNL     1      -0.922  11.581 132.544  0.00  0.00    +0.000 A 
ATOM     70  C   UNL     1       0.028  10.879 133.277  0.00  0.00    +0.000 A 
ATOM     71  C   UNL     1      -0.310  10.300 134.505  0.00  0.00    +0.000 A 
ENDBRANCH  65  66
ENDBRANCH  63  65
ENDBRANCH  60  62
BRANCH  60  72
ATOM     72  C   UNL     1      -5.798   6.941 137.860  0.00  0.00    +0.000 C 
BRANCH  72  73
ATOM     73  C   UNL     1      -7.101   7.592 138.239  0.00  0.00    +0.000 A 
ATOM     74  C   UNL     1      -8.309   6.971 137.935  0.00  0.00    +0.000 A 
ATOM     75  C   UNL     1      -9.429   7.760 137.766  0.00  0.00    +0.000 A 
ATOM     76  C   UNL     1      -9.383   9.118 138.068  0.00  0.00    +0.000 A 
ATOM     77  C   UNL     1      -8.205   9.733 138.446  0.00  0.00    +0.000 A 
ATOM     78  C   UNL     1      -7.063   8.959 138.574  0.00  0.00    +0.000 A 
BRANCH  76  79
ATOM     79  O   UNL     1     -10.489   9.900 137.943  0.00  0.00    +0.000 OA
ATOM     80  H   UNL     1     -11.238   9.287 137.850  0.00  0.00    +0.000 HD
ENDBRANCH  76  79
ENDBRANCH  72  73
ENDBRANCH  60  72
ENDBRANCH  56  60
ENDBRANCH  55  58
BRANCH  55  81
ATOM     81  C   UNL     1      -7.861   4.655 133.488  0.00  0.00    +0.000 C 
BRANCH  81  82
ATOM     82  C   UNL     1      -7.933   3.210 133.058  0.00  0.00    +0.000 A 
ATOM     83  C   UNL     1      -9.153   2.499 133.009  0.00  0.00    +0.000 A 
ATOM     84  C   UNL     1      -9.279   1.372 132.206  0.00  0.00    +0.000 A 
ATOM     85  C   UNL     1      -8.144   0.795 131.666  0.00  0.00    +0.000 A 
ATOM     86  C   UNL     1      -6.893   1.363 131.921  0.00  0.00    +0.000 A 
ATOM     87  C   UNL     1      -6.788   2.604 132.548  0.00  0.00    +0.000 A 
ENDBRANCH  81  82
ENDBRANCH  55  81
ENDBRANCH  51  55
ENDBRANCH  50  53
BRANCH  50  88
ATOM     88  C   UNL     1      -2.958   7.917 131.486  0.00  0.00    +0.000 C 
BRANCH  88  89
ATOM     89  C   UNL     1      -2.629   7.711 132.941  0.00  0.00    +0.000 C 
BRANCH  89  90
ATOM     90  C   UNL     1      -1.338   7.038 133.255  0.00  0.00    +0.000 C 
ATOM     91  N   UNL     1      -1.278   6.340 134.416  0.00  0.00    +0.000 N 
ATOM     92  O   UNL     1      -0.359   7.167 132.529  0.00  0.00    +0.000 OA
ATOM     93  H   UNL     1      -2.046   6.243 135.065  0.00  0.00    +0.000 HD
ATOM     94  H   UNL     1      -0.392   5.928 134.661  0.00  0.00    +0.000 HD
ENDBRANCH  89  90
ENDBRANCH  88  89
ENDBRANCH  50  88
ENDBRANCH  46  50
ENDBRANCH   1  48
BRANCH   1  95
ATOM     95  C   UNL     1      -3.129   3.867 128.326  0.00  0.00    +0.000 C 
BRANCH  95  96
ATOM     96  C   UNL     1      -2.587   3.501 126.976  0.00  0.00    +0.000 C 
ATOM     97  N   UNL     1      -1.450   2.756 126.940  0.00  0.00    +0.000 N 
ATOM     98  O   UNL     1      -3.115   3.873 125.934  0.00  0.00    +0.000 OA
ATOM     99  H   UNL     1      -1.374   2.073 127.697  0.00  0.00    +0.000 HD
ATOM    100  H   UNL     1      -1.504   2.147 126.123  0.00  0.00    +0.000 HD
ENDBRANCH  95  96
ENDBRANCH   1  95
TORSDOF 33
ENDMDL
MODEL 8
REMARK VINA RESULT:      -8.3      2.703     10.833
REMARK  Name = CHEMBL262035
REMARK  34 active torsions:
REMARK  status: ('A' for Active; 'I' for Inactive)
REMARK    1  A    between atoms: C_1  and  N_2
REMARK    2  A    between atoms: N_2  and  C_12
REMARK    3  A    between atoms: C_3  and  C_5
REMARK    4  A    between atoms: C_5  and  C_6
REMARK    5  A    between atoms: C_12  and  C_13
REMARK    6  A    between atoms: C_12  and  C_21
REMARK    7  A    between atoms: C_13  and  C_14
REMARK    8  A    between atoms: C_17  and  O_18
REMARK    9  A    between atoms: N_23  and  C_24
REMARK   10  A    between atoms: C_24  and  C_25
REMARK   11  A    between atoms: C_24  and  C_32
REMARK   12  A    between atoms: C_25  and  C_26
REMARK   13  A    between atoms: N_34  and  C_35
REMARK   14  A    between atoms: C_35  and  C_36
REMARK   15  A    between atoms: C_35  and  C_41
REMARK   16  A    between atoms: C_36  and  C_37
REMARK   17  A    between atoms: C_37  and  C_38
REMARK   18  A    between atoms: N_43  and  C_44
REMARK   19  A    between atoms: C_44  and  C_45
REMARK   20  A    between atoms: C_44  and  C_49
REMARK   21  A    between atoms: C_45  and  C_46
REMARK   22  A    between atoms: N_51  and  C_52
REMARK   23  A    between atoms: C_52  and  C_53
REMARK   24  A    between atoms: C_52  and  C_60
REMARK   25  A    between atoms: C_53  and  C_54
REMARK   26  A    between atoms: C_54  and  C_55
REMARK   27  A    between atoms: C_55  and  N_56
REMARK   28  A    between atoms: C_66  and  C_67
REMARK   29  A    between atoms: N_69  and  C_70
REMARK   30  A    between atoms: C_70  and  C_71
REMARK   31  A    between atoms: C_70  and  C_78
REMARK   32  A    between atoms: C_71  and  C_72
REMARK   33  A    between atoms: C_72  and  C_73
REMARK   34  A    between atoms: C_73  and  N_74
REMARK                            x       y       z     vdW  Elec       q    Type
REMARK                         _______ _______ _______ _____ _____    ______ ____
ROOT
ATOM      1  C   UNL     1      -7.261  -2.510 134.121  0.00  0.00    +0.000 C 
ENDROOT
BRANCH   1   2
ATOM      2  C   UNL     1      -6.033  -1.636 134.534  0.00  0.00    +0.000 C 
ATOM      3  O   UNL     1      -5.446  -1.941 135.576  0.00  0.00    +0.000 OA
ATOM      4  N   UNL     1      -5.656  -0.545 133.738  0.00  0.00    +0.000 N 
ATOM      5  H   UNL     1      -6.294  -0.140 133.058  0.00  0.00    +0.000 HD
BRANCH   4   6
ATOM      6  C   UNL     1      -4.369   0.231 133.922  0.00  0.00    +0.000 C 
BRANCH   6   7
ATOM      7  C   UNL     1      -4.525   1.821 133.818  0.00  0.00    +0.000 C 
ATOM      8  O   UNL     1      -4.483   2.479 134.864  0.00  0.00    +0.000 OA
ATOM      9  N   UNL     1      -4.476   2.448 132.564  0.00  0.00    +0.000 N 
ATOM     10  C   UNL     1      -5.207   2.130 131.349  0.00  0.00    +0.000 C 
ATOM     11  C   UNL     1      -4.266   2.613 130.271  0.00  0.00    +0.000 C 
ATOM     12  C   UNL     1      -3.824   3.959 130.813  0.00  0.00    +0.000 C 
ATOM     13  C   UNL     1      -3.902   3.805 132.356  0.00  0.00    +0.000 C 
BRANCH  13  14
ATOM     14  C   UNL     1      -4.819   4.963 132.779  0.00  0.00    +0.000 C 
ATOM     15  O   UNL     1      -4.458   5.791 133.611  0.00  0.00    +0.000 OA
ATOM     16  N   UNL     1      -6.112   4.920 132.264  0.00  0.00    +0.000 N 
ATOM     17  H   UNL     1      -6.435   4.064 131.851  0.00  0.00    +0.000 HD
BRANCH  16  18
ATOM     18  C   UNL     1      -7.054   6.051 132.409  0.00  0.00    +0.000 C 
BRANCH  18  19
ATOM     19  C   UNL     1      -8.289   5.767 133.313  0.00  0.00    +0.000 C 
ATOM     20  N   UNL     1      -8.266   4.675 134.134  0.00  0.00    +0.000 N 
ATOM     21  O   UNL     1      -9.298   6.471 133.308  0.00  0.00    +0.000 OA
ATOM     22  H   UNL     1      -7.512   4.021 134.234  0.00  0.00    +0.000 HD
ATOM     23  H   UNL     1      -9.097   4.511 134.693  0.00  0.00    +0.000 HD
ENDBRANCH  18  19
BRANCH  18  24
ATOM     24  C   UNL     1      -7.586   6.513 131.030  0.00  0.00    +0.000 C 
BRANCH  24  25
ATOM     25  C   UNL     1      -9.076   6.834 131.060  0.00  0.00    +0.000 C 
BRANCH  25  26
ATOM     26  C   UNL     1      -9.753   6.874 129.720  0.00  0.00    +0.000 C 
BRANCH  26  27
ATOM     27  N   UNL     1     -11.100   7.416 129.922  0.00  0.00    +0.000 NA
ATOM     28  C   UNL     1     -11.495   8.288 129.071  0.00  0.00    +0.000 C 
ATOM     29  N   UNL     1     -10.802   8.731 128.010  0.00  0.00    +0.000 N 
ATOM     30  N   UNL     1     -12.699   8.867 129.205  0.00  0.00    +0.000 N 
ATOM     31  H   UNL     1      -9.883   8.354 127.837  0.00  0.00    +0.000 HD
ATOM     32  H   UNL     1     -11.171   9.381 127.340  0.00  0.00    +0.000 HD
ATOM     33  H   UNL     1     -13.273   8.550 129.974  0.00  0.00    +0.000 HD
ATOM     34  H   UNL     1     -13.093   9.495 128.528  0.00  0.00    +0.000 HD
ENDBRANCH  26  27
ENDBRANCH  25  26
ENDBRANCH  24  25
ENDBRANCH  18  24
ENDBRANCH  16  18
ENDBRANCH  13  14
ENDBRANCH   6   7
BRANCH   6  35
ATOM     35  C   UNL     1      -3.333  -0.306 132.941  0.00  0.00    +0.000 C 
BRANCH  35  36
ATOM     36  C   UNL     1      -2.788  -1.668 133.288  0.00  0.00    +0.000 C 
BRANCH  36  37
ATOM     37  C   UNL     1      -1.741  -1.618 134.362  0.00  0.00    +0.000 C 
BRANCH  37  38
ATOM     38  N   UNL     1      -0.786  -2.677 134.054  0.00  0.00    +0.000 NA
ATOM     39  C   UNL     1       0.171  -2.826 134.890  0.00  0.00    +0.000 C 
ATOM     40  N   UNL     1       0.370  -2.112 136.010  0.00  0.00    +0.000 N 
ATOM     41  N   UNL     1       1.124  -3.739 134.652  0.00  0.00    +0.000 N 
ATOM     42  H   UNL     1      -0.291  -1.393 136.263  0.00  0.00    +0.000 HD
ATOM     43  H   UNL     1       1.110  -2.305 136.661  0.00  0.00    +0.000 HD
ATOM     44  H   UNL     1       0.964  -4.367 133.873  0.00  0.00    +0.000 HD
ATOM     45  H   UNL     1       1.811  -4.007 135.335  0.00  0.00    +0.000 HD
ENDBRANCH  37  38
ENDBRANCH  36  37
ENDBRANCH  35  36
ENDBRANCH   6  35
ENDBRANCH   4   6
ENDBRANCH   1   2
BRANCH   1  48
ATOM     46  C   UNL     1      -6.736  -2.982 131.594  0.00  0.00    +0.000 C 
ATOM     47  O   UNL     1      -6.637  -1.801 131.256  0.00  0.00    +0.000 OA
ATOM     48  N   UNL     1      -6.918  -3.387 132.909  0.00  0.00    +0.000 N 
ATOM     49  H   UNL     1      -6.753  -4.361 133.165  0.00  0.00    +0.000 HD
BRANCH  46  50
ATOM     50  C   UNL     1      -6.464  -3.966 130.449  0.00  0.00    +0.000 C 
BRANCH  50  53
ATOM     51  C   UNL     1      -8.132  -3.278 128.617  0.00  0.00    +0.000 C 
ATOM     52  O   UNL     1      -9.097  -3.756 129.218  0.00  0.00    +0.000 OA
ATOM     53  N   UNL     1      -6.857  -3.284 129.158  0.00  0.00    +0.000 N 
ATOM     54  H   UNL     1      -6.093  -2.783 128.701  0.00  0.00    +0.000 HD
BRANCH  51  55
ATOM     55  C   UNL     1      -8.353  -2.684 127.200  0.00  0.00    +0.000 C 
BRANCH  55  58
ATOM     56  C   UNL     1      -8.207  -0.128 126.620  0.00  0.00    +0.000 C 
ATOM     57  O   UNL     1      -8.973  -0.128 125.639  0.00  0.00    +0.000 OA
ATOM     58  N   UNL     1      -7.731  -1.301 127.168  0.00  0.00    +0.000 N 
ATOM     59  H   UNL     1      -6.747  -1.329 127.415  0.00  0.00    +0.000 HD
BRANCH  56  60
ATOM     60  C   UNL     1      -7.642   1.258 126.973  0.00  0.00    +0.000 C 
BRANCH  60  62
ATOM     61  C   UNL     1      -5.235   1.439 126.271  0.00  0.00    +0.000 C 
ATOM     62  N   UNL     1      -6.606   1.825 126.039  0.00  0.00    +0.000 N 
ATOM     63  C   UNL     1      -6.773   3.028 125.319  0.00  0.00    +0.000 C 
ATOM     64  O   UNL     1      -7.468   3.949 125.735  0.00  0.00    +0.000 OA
BRANCH  63  65
ATOM     65  C   UNL     1      -5.985   3.076 123.978  0.00  0.00    +0.000 C 
BRANCH  65  66
ATOM     66  C   UNL     1      -6.702   3.408 122.670  0.00  0.00    +0.000 A 
ATOM     67  C   UNL     1      -5.994   3.875 121.539  0.00  0.00    +0.000 A 
ATOM     68  C   UNL     1      -6.655   4.150 120.328  0.00  0.00    +0.000 A 
ATOM     69  C   UNL     1      -8.015   3.888 120.199  0.00  0.00    +0.000 A 
ATOM     70  C   UNL     1      -8.729   3.448 121.307  0.00  0.00    +0.000 A 
ATOM     71  C   UNL     1      -8.081   3.230 122.528  0.00  0.00    +0.000 A 
ENDBRANCH  65  66
ENDBRANCH  63  65
ENDBRANCH  60  62
BRANCH  60  72
ATOM     72  C   UNL     1      -7.278   1.192 128.522  0.00  0.00    +0.000 C 
BRANCH  72  73
ATOM     73  C   UNL     1      -8.355   1.503 129.526  0.00  0.00    +0.000 A 
ATOM     74  C   UNL     1      -8.889   2.786 129.605  0.00  0.00    +0.000 A 
ATOM     75  C   UNL     1      -9.417   3.204 130.810  0.00  0.00    +0.000 A 
ATOM     76  C   UNL     1      -9.571   2.303 131.860  0.00  0.00    +0.000 A 
ATOM     77  C   UNL     1      -9.114   1.004 131.766  0.00  0.00    +0.000 A 
ATOM     78  C   UNL     1      -8.539   0.585 130.577  0.00  0.00    +0.000 A 
BRANCH  76  79
ATOM     79  O   UNL     1     -10.125   2.691 133.040  0.00  0.00    +0.000 OA
ATOM     80  H   UNL     1      -9.947   1.969 133.667  0.00  0.00    +0.000 HD
ENDBRANCH  76  79
ENDBRANCH  72  73
ENDBRANCH  60  72
ENDBRANCH  56  60
ENDBRANCH  55  58
BRANCH  55  81
ATOM     81  C   UNL     1      -7.782  -3.690 126.208  0.00  0.00    +0.000 C 
BRANCH  81  82
ATOM     82  C   UNL     1      -7.926  -3.291 124.759  0.00  0.00    +0.000 A 
ATOM     83  C   UNL     1      -9.169  -3.318 124.090  0.00  0.00    +0.000 A 
ATOM     84  C   UNL     1      -9.376  -2.543 122.955  0.00  0.00    +0.000 A 
ATOM     85  C   UNL     1      -8.290  -1.956 122.330  0.00  0.00    +0.000 A 
ATOM     86  C   UNL     1      -7.009  -2.136 122.858  0.00  0.00    +0.000 A 
ATOM     87  C   UNL     1      -6.830  -2.734 124.105  0.00  0.00    +0.000 A 
ENDBRANCH  81  82
ENDBRANCH  55  81
ENDBRANCH  51  55
ENDBRANCH  50  53
BRANCH  50  88
ATOM     88  C   UNL     1      -4.954  -4.147 130.518  0.00  0.00    +0.000 C 
BRANCH  88  89
ATOM     89  C   UNL     1      -4.270  -3.478 129.355  0.00  0.00    +0.000 C 
BRANCH  89  90
ATOM     90  C   UNL     1      -3.494  -2.241 129.647  0.00  0.00    +0.000 C 
ATOM     91  N   UNL     1      -4.138  -1.060 129.478  0.00  0.00    +0.000 N 
ATOM     92  O   UNL     1      -2.309  -2.291 129.958  0.00  0.00    +0.000 OA
ATOM     93  H   UNL     1      -5.099  -0.970 129.182  0.00  0.00    +0.000 HD
ATOM     94  H   UNL     1      -3.603  -0.217 129.621  0.00  0.00    +0.000 HD
ENDBRANCH  89  90
ENDBRANCH  88  89
ENDBRANCH  50  88
ENDBRANCH  46  50
ENDBRANCH   1  48
BRANCH   1  95
ATOM     95  C   UNL     1      -7.545  -3.336 135.367  0.00  0.00    +0.000 C 
BRANCH  95  96
ATOM     96  C   UNL     1      -7.011  -4.737 135.373  0.00  0.00    +0.000 C 
ATOM     97  N   UNL     1      -5.694  -4.902 135.670  0.00  0.00    +0.000 N 
ATOM     98  O   UNL     1      -7.708  -5.707 135.093  0.00  0.00    +0.000 OA
ATOM     99  H   UNL     1      -5.336  -4.242 136.363  0.00  0.00    +0.000 HD
ATOM    100  H   UNL     1      -5.597  -5.789 136.166  0.00  0.00    +0.000 HD
ENDBRANCH  95  96
ENDBRANCH   1  95
TORSDOF 33
ENDMDL
MODEL 9
REMARK VINA RESULT:      -8.3      2.305      7.919
REMARK  Name = CHEMBL262035
REMARK  34 active torsions:
REMARK  status: ('A' for Active; 'I' for Inactive)
REMARK    1  A    between atoms: C_1  and  N_2
REMARK    2  A    between atoms: N_2  and  C_12
REMARK    3  A    between atoms: C_3  and  C_5
REMARK    4  A    between atoms: C_5  and  C_6
REMARK    5  A    between atoms: C_12  and  C_13
REMARK    6  A    between atoms: C_12  and  C_21
REMARK    7  A    between atoms: C_13  and  C_14
REMARK    8  A    between atoms: C_17  and  O_18
REMARK    9  A    between atoms: N_23  and  C_24
REMARK   10  A    between atoms: C_24  and  C_25
REMARK   11  A    between atoms: C_24  and  C_32
REMARK   12  A    between atoms: C_25  and  C_26
REMARK   13  A    between atoms: N_34  and  C_35
REMARK   14  A    between atoms: C_35  and  C_36
REMARK   15  A    between atoms: C_35  and  C_41
REMARK   16  A    between atoms: C_36  and  C_37
REMARK   17  A    between atoms: C_37  and  C_38
REMARK   18  A    between atoms: N_43  and  C_44
REMARK   19  A    between atoms: C_44  and  C_45
REMARK   20  A    between atoms: C_44  and  C_49
REMARK   21  A    between atoms: C_45  and  C_46
REMARK   22  A    between atoms: N_51  and  C_52
REMARK   23  A    between atoms: C_52  and  C_53
REMARK   24  A    between atoms: C_52  and  C_60
REMARK   25  A    between atoms: C_53  and  C_54
REMARK   26  A    between atoms: C_54  and  C_55
REMARK   27  A    between atoms: C_55  and  N_56
REMARK   28  A    between atoms: C_66  and  C_67
REMARK   29  A    between atoms: N_69  and  C_70
REMARK   30  A    between atoms: C_70  and  C_71
REMARK   31  A    between atoms: C_70  and  C_78
REMARK   32  A    between atoms: C_71  and  C_72
REMARK   33  A    between atoms: C_72  and  C_73
REMARK   34  A    between atoms: C_73  and  N_74
REMARK                            x       y       z     vdW  Elec       q    Type
REMARK                         _______ _______ _______ _____ _____    ______ ____
ROOT
ATOM      1  C   UNL     1      -3.853  -3.595 131.506  0.00  0.00    +0.000 C 
ENDROOT
BRANCH   1   2
ATOM      2  C   UNL     1      -5.123  -3.822 130.624  0.00  0.00    +0.000 C 
ATOM      3  O   UNL     1      -5.658  -4.933 130.678  0.00  0.00    +0.000 OA
ATOM      4  N   UNL     1      -5.594  -2.788 129.802  0.00  0.00    +0.000 N 
ATOM      5  H   UNL     1      -5.004  -1.998 129.554  0.00  0.00    +0.000 HD
BRANCH   4   6
ATOM      6  C   UNL     1      -6.922  -2.824 129.076  0.00  0.00    +0.000 C 
BRANCH   6   7
ATOM      7  C   UNL     1      -7.088  -1.722 127.928  0.00  0.00    +0.000 C 
ATOM      8  O   UNL     1      -6.519  -0.635 128.077  0.00  0.00    +0.000 OA
ATOM      9  N   UNL     1      -7.667  -2.073 126.699  0.00  0.00    +0.000 N 
ATOM     10  C   UNL     1      -8.913  -2.775 126.437  0.00  0.00    +0.000 C 
ATOM     11  C   UNL     1      -8.633  -3.446 125.114  0.00  0.00    +0.000 C 
ATOM     12  C   UNL     1      -7.962  -2.337 124.329  0.00  0.00    +0.000 C 
ATOM     13  C   UNL     1      -7.257  -1.466 125.404  0.00  0.00    +0.000 C 
BRANCH  13  14
ATOM     14  C   UNL     1      -7.824  -0.061 125.145  0.00  0.00    +0.000 C 
ATOM     15  O   UNL     1      -8.769   0.375 125.799  0.00  0.00    +0.000 OA
ATOM     16  N   UNL     1      -7.290   0.608 124.048  0.00  0.00    +0.000 N 
ATOM     17  H   UNL     1      -6.756   0.082 123.379  0.00  0.00    +0.000 HD
BRANCH  16  18
ATOM     18  C   UNL     1      -7.577   2.033 123.778  0.00  0.00    +0.000 C 
BRANCH  18  19
ATOM     19  C   UNL     1      -8.811   2.295 122.867  0.00  0.00    +0.000 C 
ATOM     20  N   UNL     1      -9.845   1.402 122.887  0.00  0.00    +0.000 N 
ATOM     21  O   UNL     1      -8.891   3.261 122.110  0.00  0.00    +0.000 OA
ATOM     22  H   UNL     1      -9.907   0.575 123.452  0.00  0.00    +0.000 HD
ATOM     23  H   UNL     1     -10.623   1.595 122.265  0.00  0.00    +0.000 HD
ENDBRANCH  18  19
BRANCH  18  24
ATOM     24  C   UNL     1      -6.361   2.733 123.123  0.00  0.00    +0.000 C 
BRANCH  24  25
ATOM     25  C   UNL     1      -5.916   3.969 123.895  0.00  0.00    +0.000 C 
BRANCH  25  26
ATOM     26  C   UNL     1      -4.933   3.719 125.003  0.00  0.00    +0.000 C 
BRANCH  26  27
ATOM     27  N   UNL     1      -5.697   3.564 126.244  0.00  0.00    +0.000 NA
ATOM     28  C   UNL     1      -5.524   2.469 126.886  0.00  0.00    +0.000 C 
ATOM     29  N   UNL     1      -4.699   1.468 126.538  0.00  0.00    +0.000 N 
ATOM     30  N   UNL     1      -6.216   2.227 128.010  0.00  0.00    +0.000 N 
ATOM     31  H   UNL     1      -4.145   1.564 125.701  0.00  0.00    +0.000 HD
ATOM     32  H   UNL     1      -4.558   0.647 127.097  0.00  0.00    +0.000 HD
ATOM     33  H   UNL     1      -6.834   2.960 128.331  0.00  0.00    +0.000 HD
ATOM     34  H   UNL     1      -6.065   1.425 128.596  0.00  0.00    +0.000 HD
ENDBRANCH  26  27
ENDBRANCH  25  26
ENDBRANCH  24  25
ENDBRANCH  18  24
ENDBRANCH  16  18
ENDBRANCH  13  14
ENDBRANCH   6   7
BRANCH   6  35
ATOM     35  C   UNL     1      -8.041  -2.745 130.109  0.00  0.00    +0.000 C 
BRANCH  35  36
ATOM     36  C   UNL     1      -8.114  -1.436 130.855  0.00  0.00    +0.000 C 
BRANCH  36  37
ATOM     37  C   UNL     1      -8.273  -1.619 132.335  0.00  0.00    +0.000 C 
BRANCH  37  38
ATOM     38  N   UNL     1      -7.313  -2.645 132.727  0.00  0.00    +0.000 NA
ATOM     39  C   UNL     1      -7.630  -3.345 133.751  0.00  0.00    +0.000 C 
ATOM     40  N   UNL     1      -8.750  -3.226 134.483  0.00  0.00    +0.000 N 
ATOM     41  N   UNL     1      -6.777  -4.271 134.212  0.00  0.00    +0.000 N 
ATOM     42  H   UNL     1      -9.444  -2.543 134.217  0.00  0.00    +0.000 HD
ATOM     43  H   UNL     1      -8.975  -3.836 135.247  0.00  0.00    +0.000 HD
ATOM     44  H   UNL     1      -5.965  -4.465 133.636  0.00  0.00    +0.000 HD
ATOM     45  H   UNL     1      -7.028  -4.949 134.910  0.00  0.00    +0.000 HD
ENDBRANCH  37  38
ENDBRANCH  36  37
ENDBRANCH  35  36
ENDBRANCH   6  35
ENDBRANCH   4   6
ENDBRANCH   1   2
BRANCH   1  48
ATOM     46  C   UNL     1      -3.777  -0.980 131.714  0.00  0.00    +0.000 C 
ATOM     47  O   UNL     1      -3.725  -0.753 130.503  0.00  0.00    +0.000 OA
ATOM     48  N   UNL     1      -3.941  -2.252 132.244  0.00  0.00    +0.000 N 
ATOM     49  H   UNL     1      -4.217  -2.360 133.221  0.00  0.00    +0.000 HD
BRANCH  46  50
ATOM     50  C   UNL     1      -3.818   0.293 132.569  0.00  0.00    +0.000 C 
BRANCH  50  53
ATOM     51  C   UNL     1      -3.708   2.800 132.011  0.00  0.00    +0.000 C 
ATOM     52  O   UNL     1      -3.450   3.120 133.173  0.00  0.00    +0.000 OA
ATOM     53  N   UNL     1      -3.841   1.475 131.628  0.00  0.00    +0.000 N 
ATOM     54  H   UNL     1      -3.939   1.223 130.644  0.00  0.00    +0.000 HD
BRANCH  51  55
ATOM     55  C   UNL     1      -3.922   3.920 130.957  0.00  0.00    +0.000 C 
BRANCH  55  58
ATOM     56  C   UNL     1      -6.318   4.903 130.530  0.00  0.00    +0.000 C 
ATOM     57  O   UNL     1      -6.244   5.009 129.291  0.00  0.00    +0.000 OA
ATOM     58  N   UNL     1      -5.204   4.653 131.303  0.00  0.00    +0.000 N 
ATOM     59  H   UNL     1      -5.107   5.189 132.159  0.00  0.00    +0.000 HD
BRANCH  56  60
ATOM     60  C   UNL     1      -7.671   5.338 131.115  0.00  0.00    +0.000 C 
BRANCH  60  62
ATOM     61  C   UNL     1      -8.298   3.332 132.497  0.00  0.00    +0.000 C 
ATOM     62  N   UNL     1      -8.049   4.753 132.452  0.00  0.00    +0.000 N 
ATOM     63  C   UNL     1      -8.647   5.497 133.492  0.00  0.00    +0.000 C 
ATOM     64  O   UNL     1      -9.365   6.468 133.275  0.00  0.00    +0.000 OA
BRANCH  63  65
ATOM     65  C   UNL     1      -8.328   4.958 134.917  0.00  0.00    +0.000 C 
BRANCH  65  66
ATOM     66  C   UNL     1      -7.419   5.748 135.857  0.00  0.00    +0.000 A 
ATOM     67  C   UNL     1      -7.920   6.348 137.036  0.00  0.00    +0.000 A 
ATOM     68  C   UNL     1      -7.072   7.048 137.914  0.00  0.00    +0.000 A 
ATOM     69  C   UNL     1      -5.703   7.091 137.676  0.00  0.00    +0.000 A 
ATOM     70  C   UNL     1      -5.197   6.524 136.512  0.00  0.00    +0.000 A 
ATOM     71  C   UNL     1      -6.050   5.879 135.610  0.00  0.00    +0.000 A 
ENDBRANCH  65  66
ENDBRANCH  63  65
ENDBRANCH  60  62
BRANCH  60  72
ATOM     72  C   UNL     1      -8.721   5.195 129.927  0.00  0.00    +0.000 C 
BRANCH  72  73
ATOM     73  C   UNL     1      -9.948   6.065 129.946  0.00  0.00    +0.000 A 
ATOM     74  C   UNL     1     -11.213   5.492 130.033  0.00  0.00    +0.000 A 
ATOM     75  C   UNL     1     -12.286   6.183 129.507  0.00  0.00    +0.000 A 
ATOM     76  C   UNL     1     -12.128   7.493 129.065  0.00  0.00    +0.000 A 
ATOM     77  C   UNL     1     -10.889   8.102 129.045  0.00  0.00    +0.000 A 
ATOM     78  C   UNL     1      -9.796   7.401 129.528  0.00  0.00    +0.000 A 
BRANCH  76  79
ATOM     79  O   UNL     1     -13.184   8.200 128.580  0.00  0.00    +0.000 OA
ATOM     80  H   UNL     1     -12.908   9.134 128.597  0.00  0.00    +0.000 HD
ENDBRANCH  76  79
ENDBRANCH  72  73
ENDBRANCH  60  72
ENDBRANCH  56  60
ENDBRANCH  55  58
BRANCH  55  81
ATOM     81  C   UNL     1      -2.655   4.766 130.952  0.00  0.00    +0.000 C 
BRANCH  81  82
ATOM     82  C   UNL     1      -2.860   6.198 130.519  0.00  0.00    +0.000 A 
ATOM     83  C   UNL     1      -3.047   6.555 129.166  0.00  0.00    +0.000 A 
ATOM     84  C   UNL     1      -3.674   7.751 128.833  0.00  0.00    +0.000 A 
ATOM     85  C   UNL     1      -3.872   8.706 129.814  0.00  0.00    +0.000 A 
ATOM     86  C   UNL     1      -3.456   8.449 131.123  0.00  0.00    +0.000 A 
ATOM     87  C   UNL     1      -3.022   7.177 131.495  0.00  0.00    +0.000 A 
ENDBRANCH  81  82
ENDBRANCH  55  81
ENDBRANCH  51  55
ENDBRANCH  50  53
BRANCH  50  88
ATOM     88  C   UNL     1      -5.150   0.163 133.294  0.00  0.00    +0.000 C 
BRANCH  88  89
ATOM     89  C   UNL     1      -4.960   0.147 134.788  0.00  0.00    +0.000 C 
BRANCH  89  90
ATOM     90  C   UNL     1      -5.229  -1.138 135.491  0.00  0.00    +0.000 C 
ATOM     91  N   UNL     1      -6.085  -1.093 136.541  0.00  0.00    +0.000 N 
ATOM     92  O   UNL     1      -4.648  -2.170 135.175  0.00  0.00    +0.000 OA
ATOM     93  H   UNL     1      -6.551  -0.257 136.863  0.00  0.00    +0.000 HD
ATOM     94  H   UNL     1      -6.229  -1.947 137.056  0.00  0.00    +0.000 HD
ENDBRANCH  89  90
ENDBRANCH  88  89
ENDBRANCH  50  88
ENDBRANCH  46  50
ENDBRANCH   1  48
BRANCH   1  95
ATOM     95  C   UNL     1      -3.866  -4.779 132.462  0.00  0.00    +0.000 C 
BRANCH  95  96
ATOM     96  C   UNL     1      -2.721  -4.868 133.426  0.00  0.00    +0.000 C 
ATOM     97  N   UNL     1      -2.349  -6.109 133.840  0.00  0.00    +0.000 N 
ATOM     98  O   UNL     1      -2.149  -3.874 133.859  0.00  0.00    +0.000 OA
ATOM     99  H   UNL     1      -2.441  -6.833 133.125  0.00  0.00    +0.000 HD
ATOM    100  H   UNL     1      -1.339  -6.096 133.987  0.00  0.00    +0.000 HD
ENDBRANCH  95  96
ENDBRANCH   1  95
TORSDOF 33
ENDMDL
