MODEL 1
REMARK VINA RESULT:      -8.8      0.000      0.000
REMARK  Name = CHEMBL482323
REMARK  7 active torsions:
REMARK  status: ('A' for Active; 'I' for Inactive)
REMARK    1  A    between atoms: C_1  and  C_2
REMARK    2  A    between atoms: C_8  and  C_9
REMARK    3  A    between atoms: C_12  and  C_13
REMARK    4  A    between atoms: N_15  and  C_16
REMARK    5  A    between atoms: N_15  and  C_23
REMARK    6  A    between atoms: C_16  and  C_17
REMARK    7  A    between atoms: C_23  and  C_24
REMARK                            x       y       z     vdW  Elec       q    Type
REMARK                         _______ _______ _______ _____ _____    ______ ____
ROOT
ATOM      1  C   UNL     1      -8.795   0.277 125.490  0.00  0.00    +0.000 C 
ATOM      2  O   UNL     1      -9.198   1.315 126.090  0.00  0.00    +0.000 OA
ATOM      3  N   UNL     1      -9.106   0.109 124.093  0.00  0.00    +0.000 N 
ENDROOT
BRANCH   1   7
ATOM      4  C   UNL     1      -6.844  -2.377 128.436  0.00  0.00    +0.000 A 
ATOM      5  C   UNL     1      -6.048  -1.556 127.622  0.00  0.00    +0.000 A 
ATOM      6  C   UNL     1      -6.613  -0.692 126.602  0.00  0.00    +0.000 A 
ATOM      7  C   UNL     1      -7.988  -0.660 126.362  0.00  0.00    +0.000 A 
ATOM      8  C   UNL     1      -8.642  -1.675 126.985  0.00  0.00    +0.000 A 
ATOM      9  C   UNL     1      -8.108  -2.510 127.948  0.00  0.00    +0.000 A 
BRANCH   4  17
ATOM     10  C   UNL     1      -7.785  -1.297 131.257  0.00  0.00    +0.000 C 
ATOM     11  C   UNL     1      -7.032  -2.586 131.010  0.00  0.00    +0.000 A 
ATOM     12  C   UNL     1      -6.805  -3.349 132.164  0.00  0.00    +0.000 A 
ATOM     13  C   UNL     1      -6.008  -4.476 132.113  0.00  0.00    +0.000 A 
ATOM     14  F   UNL     1      -5.897  -5.245 133.203  0.00  0.00    +0.000 F 
ATOM     15  C   UNL     1      -5.325  -4.806 130.953  0.00  0.00    +0.000 A 
ATOM     16  C   UNL     1      -5.553  -4.068 129.784  0.00  0.00    +0.000 A 
ATOM     17  C   UNL     1      -6.506  -3.022 129.746  0.00  0.00    +0.000 A 
ENDBRANCH   4  17
ENDBRANCH   1   7
BRANCH   3  18
ATOM     18  C   UNL     1      -8.894  -1.037 123.166  0.00  0.00    +0.000 C 
BRANCH  18  19
ATOM     19  C   UNL     1      -7.797  -2.040 123.290  0.00  0.00    +0.000 A 
ATOM     20  C   UNL     1      -6.464  -1.606 123.058  0.00  0.00    +0.000 A 
ATOM     21  C   UNL     1      -5.406  -2.385 123.501  0.00  0.00    +0.000 A 
ATOM     22  C   UNL     1      -5.681  -3.548 124.229  0.00  0.00    +0.000 A 
ATOM     23  C   UNL     1      -7.000  -3.957 124.466  0.00  0.00    +0.000 A 
ATOM     24  C   UNL     1      -8.064  -3.249 123.926  0.00  0.00    +0.000 A 
ENDBRANCH  18  19
ENDBRANCH   3  18
BRANCH   3  25
ATOM     25  C   UNL     1      -9.647   1.323 123.386  0.00  0.00    +0.000 C 
BRANCH  25  26
ATOM     26  C   UNL     1      -8.634   2.476 123.055  0.00  0.00    +0.000 C 
ATOM     27  C   UNL     1      -7.188   2.003 122.920  0.00  0.00    +0.000 C 
ATOM     28  C   UNL     1      -6.385   3.222 123.248  0.00  0.00    +0.000 C 
ATOM     29  C   UNL     1      -7.247   3.916 124.271  0.00  0.00    +0.000 C 
ATOM     30  O   UNL     1      -8.608   3.502 124.064  0.00  0.00    +0.000 OA
ENDBRANCH  25  26
ENDBRANCH   3  25
TORSDOF 6
ENDMDL
MODEL 2
REMARK VINA RESULT:      -8.7      5.461      7.835
REMARK  Name = CHEMBL482323
REMARK  7 active torsions:
REMARK  status: ('A' for Active; 'I' for Inactive)
REMARK    1  A    between atoms: C_1  and  C_2
REMARK    2  A    between atoms: C_8  and  C_9
REMARK    3  A    between atoms: C_12  and  C_13
REMARK    4  A    between atoms: N_15  and  C_16
REMARK    5  A    between atoms: N_15  and  C_23
REMARK    6  A    between atoms: C_16  and  C_17
REMARK    7  A    between atoms: C_23  and  C_24
REMARK                            x       y       z     vdW  Elec       q    Type
REMARK                         _______ _______ _______ _____ _____    ______ ____
ROOT
ATOM      1  C   UNL     1     -10.668   3.885 130.636  0.00  0.00    +0.000 C 
ATOM      2  O   UNL     1     -11.738   3.566 130.043  0.00  0.00    +0.000 OA
ATOM      3  N   UNL     1     -10.441   5.267 130.978  0.00  0.00    +0.000 N 
ENDROOT
BRANCH   1   7
ATOM      4  C   UNL     1      -8.109   0.297 130.962  0.00  0.00    +0.000 A 
ATOM      5  C   UNL     1      -8.907   0.671 132.055  0.00  0.00    +0.000 A 
ATOM      6  C   UNL     1      -9.738   1.860 132.039  0.00  0.00    +0.000 A 
ATOM      7  C   UNL     1      -9.760   2.712 130.934  0.00  0.00    +0.000 A 
ATOM      8  C   UNL     1      -8.762   2.436 130.053  0.00  0.00    +0.000 A 
ATOM      9  C   UNL     1      -7.958   1.312 130.068  0.00  0.00    +0.000 A 
BRANCH   4  17
ATOM     10  C   UNL     1      -5.255  -0.653 131.942  0.00  0.00    +0.000 C 
ATOM     11  C   UNL     1      -6.258  -1.499 131.190  0.00  0.00    +0.000 A 
ATOM     12  C   UNL     1      -5.851  -2.825 130.983  0.00  0.00    +0.000 A 
ATOM     13  C   UNL     1      -6.600  -3.672 130.189  0.00  0.00    +0.000 A 
ATOM     14  F   UNL     1      -6.247  -4.959 130.097  0.00  0.00    +0.000 F 
ATOM     15  C   UNL     1      -7.698  -3.197 129.490  0.00  0.00    +0.000 A 
ATOM     16  C   UNL     1      -8.132  -1.882 129.697  0.00  0.00    +0.000 A 
ATOM     17  C   UNL     1      -7.506  -1.038 130.645  0.00  0.00    +0.000 A 
ENDBRANCH   4  17
ENDBRANCH   1   7
BRANCH   3  18
ATOM     18  C   UNL     1      -9.249   5.960 131.543  0.00  0.00    +0.000 C 
BRANCH  18  19
ATOM     19  C   UNL     1      -8.263   5.336 132.471  0.00  0.00    +0.000 A 
ATOM     20  C   UNL     1      -8.714   4.938 133.758  0.00  0.00    +0.000 A 
ATOM     21  C   UNL     1      -7.953   4.051 134.504  0.00  0.00    +0.000 A 
ATOM     22  C   UNL     1      -6.791   3.516 133.938  0.00  0.00    +0.000 A 
ATOM     23  C   UNL     1      -6.365   3.903 132.661  0.00  0.00    +0.000 A 
ATOM     24  C   UNL     1      -7.055   4.878 131.955  0.00  0.00    +0.000 A 
ENDBRANCH  18  19
ENDBRANCH   3  18
BRANCH   3  25
ATOM     25  C   UNL     1     -11.629   6.183 130.853  0.00  0.00    +0.000 C 
BRANCH  25  26
ATOM     26  C   UNL     1     -11.701   7.100 129.581  0.00  0.00    +0.000 C 
ATOM     27  C   UNL     1     -12.572   8.341 129.766  0.00  0.00    +0.000 C 
ATOM     28  C   UNL     1     -13.007   8.679 128.374  0.00  0.00    +0.000 C 
ATOM     29  C   UNL     1     -13.111   7.321 127.726  0.00  0.00    +0.000 C 
ATOM     30  O   UNL     1     -12.242   6.420 128.433  0.00  0.00    +0.000 OA
ENDBRANCH  25  26
ENDBRANCH   3  25
TORSDOF 6
ENDMDL
MODEL 3
REMARK VINA RESULT:      -8.4      7.377      9.237
REMARK  Name = CHEMBL482323
REMARK  7 active torsions:
REMARK  status: ('A' for Active; 'I' for Inactive)
REMARK    1  A    between atoms: C_1  and  C_2
REMARK    2  A    between atoms: C_8  and  C_9
REMARK    3  A    between atoms: C_12  and  C_13
REMARK    4  A    between atoms: N_15  and  C_16
REMARK    5  A    between atoms: N_15  and  C_23
REMARK    6  A    between atoms: C_16  and  C_17
REMARK    7  A    between atoms: C_23  and  C_24
REMARK                            x       y       z     vdW  Elec       q    Type
REMARK                         _______ _______ _______ _____ _____    ______ ____
ROOT
ATOM      1  C   UNL     1     -10.445   6.082 131.637  0.00  0.00    +0.000 C 
ATOM      2  O   UNL     1     -11.182   7.012 132.075  0.00  0.00    +0.000 OA
ATOM      3  N   UNL     1     -10.995   5.134 130.701  0.00  0.00    +0.000 N 
ENDROOT
BRANCH   1   7
ATOM      4  C   UNL     1      -6.150   5.971 132.674  0.00  0.00    +0.000 A 
ATOM      5  C   UNL     1      -7.102   5.684 133.666  0.00  0.00    +0.000 A 
ATOM      6  C   UNL     1      -8.530   5.744 133.413  0.00  0.00    +0.000 A 
ATOM      7  C   UNL     1      -9.028   6.123 132.165  0.00  0.00    +0.000 A 
ATOM      8  C   UNL     1      -8.063   6.650 131.366  0.00  0.00    +0.000 A 
ATOM      9  C   UNL     1      -6.703   6.608 131.605  0.00  0.00    +0.000 A 
BRANCH   4  17
ATOM     10  C   UNL     1      -4.026   6.804 134.865  0.00  0.00    +0.000 C 
ATOM     11  C   UNL     1      -3.767   5.897 133.683  0.00  0.00    +0.000 A 
ATOM     12  C   UNL     1      -2.469   5.369 133.636  0.00  0.00    +0.000 A 
ATOM     13  C   UNL     1      -2.047   4.642 132.540  0.00  0.00    +0.000 A 
ATOM     14  F   UNL     1      -0.843   4.061 132.569  0.00  0.00    +0.000 F 
ATOM     15  C   UNL     1      -2.855   4.520 131.421  0.00  0.00    +0.000 A 
ATOM     16  C   UNL     1      -4.162   5.022 131.454  0.00  0.00    +0.000 A 
ATOM     17  C   UNL     1      -4.698   5.608 132.626  0.00  0.00    +0.000 A 
ENDBRANCH   4  17
ENDBRANCH   1   7
BRANCH   3  18
ATOM     18  C   UNL     1     -10.435   3.880 130.124  0.00  0.00    +0.000 C 
BRANCH  18  19
ATOM     19  C   UNL     1      -9.368   3.054 130.758  0.00  0.00    +0.000 A 
ATOM     20  C   UNL     1      -8.044   3.169 130.257  0.00  0.00    +0.000 A 
ATOM     21  C   UNL     1      -6.982   2.711 131.022  0.00  0.00    +0.000 A 
ATOM     22  C   UNL     1      -7.238   2.210 132.303  0.00  0.00    +0.000 A 
ATOM     23  C   UNL     1      -8.547   2.116 132.794  0.00  0.00    +0.000 A 
ATOM     24  C   UNL     1      -9.625   2.461 131.991  0.00  0.00    +0.000 A 
ENDBRANCH  18  19
ENDBRANCH   3  18
BRANCH   3  25
ATOM     25  C   UNL     1     -12.327   5.495 130.100  0.00  0.00    +0.000 C 
BRANCH  25  26
ATOM     26  C   UNL     1     -12.334   6.578 128.963  0.00  0.00    +0.000 C 
ATOM     27  C   UNL     1     -10.939   7.012 128.519  0.00  0.00    +0.000 C 
ATOM     28  C   UNL     1     -11.153   8.390 127.976  0.00  0.00    +0.000 C 
ATOM     29  C   UNL     1     -12.267   8.914 128.846  0.00  0.00    +0.000 C 
ATOM     30  O   UNL     1     -13.006   7.790 129.352  0.00  0.00    +0.000 OA
ENDBRANCH  25  26
ENDBRANCH   3  25
TORSDOF 6
ENDMDL
MODEL 4
REMARK VINA RESULT:      -8.2      1.466      1.682
REMARK  Name = CHEMBL482323
REMARK  7 active torsions:
REMARK  status: ('A' for Active; 'I' for Inactive)
REMARK    1  A    between atoms: C_1  and  C_2
REMARK    2  A    between atoms: C_8  and  C_9
REMARK    3  A    between atoms: C_12  and  C_13
REMARK    4  A    between atoms: N_15  and  C_16
REMARK    5  A    between atoms: N_15  and  C_23
REMARK    6  A    between atoms: C_16  and  C_17
REMARK    7  A    between atoms: C_23  and  C_24
REMARK                            x       y       z     vdW  Elec       q    Type
REMARK                         _______ _______ _______ _____ _____    ______ ____
ROOT
ATOM      1  C   UNL     1      -7.398   0.872 126.133  0.00  0.00    +0.000 C 
ATOM      2  O   UNL     1      -7.209   1.966 126.739  0.00  0.00    +0.000 OA
ATOM      3  N   UNL     1      -8.067   0.883 124.857  0.00  0.00    +0.000 N 
ENDROOT
BRANCH   1   7
ATOM      4  C   UNL     1      -5.932  -2.380 128.743  0.00  0.00    +0.000 A 
ATOM      5  C   UNL     1      -5.204  -2.046 127.589  0.00  0.00    +0.000 A 
ATOM      6  C   UNL     1      -5.645  -1.022 126.661  0.00  0.00    +0.000 A 
ATOM      7  C   UNL     1      -6.843  -0.334 126.861  0.00  0.00    +0.000 A 
ATOM      8  C   UNL     1      -7.610  -0.907 127.825  0.00  0.00    +0.000 A 
ATOM      9  C   UNL     1      -7.202  -1.891 128.704  0.00  0.00    +0.000 A 
BRANCH   4  17
ATOM     10  C   UNL     1      -3.799  -1.253 130.788  0.00  0.00    +0.000 C 
ATOM     11  C   UNL     1      -4.590  -2.531 130.951  0.00  0.00    +0.000 A 
ATOM     12  C   UNL     1      -4.351  -3.205 132.158  0.00  0.00    +0.000 A 
ATOM     13  C   UNL     1      -4.893  -4.456 132.380  0.00  0.00    +0.000 A 
ATOM     14  F   UNL     1      -4.738  -5.028 133.580  0.00  0.00    +0.000 F 
ATOM     15  C   UNL     1      -5.582  -5.116 131.375  0.00  0.00    +0.000 A 
ATOM     16  C   UNL     1      -5.849  -4.453 130.171  0.00  0.00    +0.000 A 
ATOM     17  C   UNL     1      -5.474  -3.103 129.973  0.00  0.00    +0.000 A 
ENDBRANCH   4  17
ENDBRANCH   1   7
BRANCH   3  18
ATOM     18  C   UNL     1      -8.544  -0.225 123.984  0.00  0.00    +0.000 C 
BRANCH  18  19
ATOM     19  C   UNL     1      -7.803  -1.496 123.741  0.00  0.00    +0.000 A 
ATOM     20  C   UNL     1      -6.514  -1.417 123.150  0.00  0.00    +0.000 A 
ATOM     21  C   UNL     1      -5.656  -2.504 123.232  0.00  0.00    +0.000 A 
ATOM     22  C   UNL     1      -6.060  -3.629 123.959  0.00  0.00    +0.000 A 
ATOM     23  C   UNL     1      -7.328  -3.690 124.552  0.00  0.00    +0.000 A 
ATOM     24  C   UNL     1      -8.237  -2.656 124.375  0.00  0.00    +0.000 A 
ENDBRANCH  18  19
ENDBRANCH   3  18
BRANCH   3  25
ATOM     25  C   UNL     1      -8.237   2.233 124.212  0.00  0.00    +0.000 C 
BRANCH  25  26
ATOM     26  C   UNL     1      -7.912   2.345 122.680  0.00  0.00    +0.000 C 
ATOM     27  C   UNL     1      -6.746   3.282 122.367  0.00  0.00    +0.000 C 
ATOM     28  C   UNL     1      -7.017   3.725 120.963  0.00  0.00    +0.000 C 
ATOM     29  C   UNL     1      -8.524   3.753 120.914  0.00  0.00    +0.000 C 
ATOM     30  O   UNL     1      -9.021   2.842 121.909  0.00  0.00    +0.000 OA
ENDBRANCH  25  26
ENDBRANCH   3  25
TORSDOF 6
ENDMDL
MODEL 5
REMARK VINA RESULT:      -8.2      5.556      7.925
REMARK  Name = CHEMBL482323
REMARK  7 active torsions:
REMARK  status: ('A' for Active; 'I' for Inactive)
REMARK    1  A    between atoms: C_1  and  C_2
REMARK    2  A    between atoms: C_8  and  C_9
REMARK    3  A    between atoms: C_12  and  C_13
REMARK    4  A    between atoms: N_15  and  C_16
REMARK    5  A    between atoms: N_15  and  C_23
REMARK    6  A    between atoms: C_16  and  C_17
REMARK    7  A    between atoms: C_23  and  C_24
REMARK                            x       y       z     vdW  Elec       q    Type
REMARK                         _______ _______ _______ _____ _____    ______ ____
ROOT
ATOM      1  C   UNL     1     -10.621   4.292 130.495  0.00  0.00    +0.000 C 
ATOM      2  O   UNL     1     -11.776   4.177 129.993  0.00  0.00    +0.000 OA
ATOM      3  N   UNL     1     -10.180   5.585 130.952  0.00  0.00    +0.000 N 
ENDROOT
BRANCH   1   7
ATOM      4  C   UNL     1      -8.270   0.627 131.254  0.00  0.00    +0.000 A 
ATOM      5  C   UNL     1      -8.150   1.273 130.013  0.00  0.00    +0.000 A 
ATOM      6  C   UNL     1      -8.922   2.454 129.674  0.00  0.00    +0.000 A 
ATOM      7  C   UNL     1      -9.852   2.990 130.566  0.00  0.00    +0.000 A 
ATOM      8  C   UNL     1     -10.107   2.154 131.607  0.00  0.00    +0.000 A 
ATOM      9  C   UNL     1      -9.384   1.021 131.930  0.00  0.00    +0.000 A 
BRANCH   4  17
ATOM     10  C   UNL     1      -7.730  -2.327 130.258  0.00  0.00    +0.000 C 
ATOM     11  C   UNL     1      -7.007  -1.629 131.388  0.00  0.00    +0.000 A 
ATOM     12  C   UNL     1      -5.984  -2.390 131.972  0.00  0.00    +0.000 A 
ATOM     13  C   UNL     1      -5.335  -1.938 133.106  0.00  0.00    +0.000 A 
ATOM     14  F   UNL     1      -4.293  -2.632 133.579  0.00  0.00    +0.000 F 
ATOM     15  C   UNL     1      -5.760  -0.788 133.751  0.00  0.00    +0.000 A 
ATOM     16  C   UNL     1      -6.766  -0.003 133.173  0.00  0.00    +0.000 A 
ATOM     17  C   UNL     1      -7.327  -0.331 131.915  0.00  0.00    +0.000 A 
ENDBRANCH   4  17
ENDBRANCH   1   7
BRANCH   3  18
ATOM     18  C   UNL     1      -8.858   6.058 131.452  0.00  0.00    +0.000 C 
BRANCH  18  19
ATOM     19  C   UNL     1      -8.021   5.337 132.453  0.00  0.00    +0.000 A 
ATOM     20  C   UNL     1      -8.577   5.085 133.735  0.00  0.00    +0.000 A 
ATOM     21  C   UNL     1      -7.997   4.130 134.557  0.00  0.00    +0.000 A 
ATOM     22  C   UNL     1      -6.915   3.388 134.070  0.00  0.00    +0.000 A 
ATOM     23  C   UNL     1      -6.385   3.634 132.797  0.00  0.00    +0.000 A 
ATOM     24  C   UNL     1      -6.883   4.665 132.015  0.00  0.00    +0.000 A 
ENDBRANCH  18  19
ENDBRANCH   3  18
BRANCH   3  25
ATOM     25  C   UNL     1     -11.242   6.647 131.055  0.00  0.00    +0.000 C 
BRANCH  25  26
ATOM     26  C   UNL     1     -11.325   7.699 129.893  0.00  0.00    +0.000 C 
ATOM     27  C   UNL     1     -12.620   8.510 129.888  0.00  0.00    +0.000 C 
ATOM     28  C   UNL     1     -12.771   8.925 128.458  0.00  0.00    +0.000 C 
ATOM     29  C   UNL     1     -12.175   7.757 127.714  0.00  0.00    +0.000 C 
ATOM     30  O   UNL     1     -11.244   7.097 128.588  0.00  0.00    +0.000 OA
ENDBRANCH  25  26
ENDBRANCH   3  25
TORSDOF 6
ENDMDL
MODEL 6
REMARK VINA RESULT:      -8.0      1.871      2.439
REMARK  Name = CHEMBL482323
REMARK  7 active torsions:
REMARK  status: ('A' for Active; 'I' for Inactive)
REMARK    1  A    between atoms: C_1  and  C_2
REMARK    2  A    between atoms: C_8  and  C_9
REMARK    3  A    between atoms: C_12  and  C_13
REMARK    4  A    between atoms: N_15  and  C_16
REMARK    5  A    between atoms: N_15  and  C_23
REMARK    6  A    between atoms: C_16  and  C_17
REMARK    7  A    between atoms: C_23  and  C_24
REMARK                            x       y       z     vdW  Elec       q    Type
REMARK                         _______ _______ _______ _____ _____    ______ ____
ROOT
ATOM      1  C   UNL     1      -7.666   2.578 125.800  0.00  0.00    +0.000 C 
ATOM      2  O   UNL     1      -7.413   3.799 126.008  0.00  0.00    +0.000 OA
ATOM      3  N   UNL     1      -8.132   2.170 124.499  0.00  0.00    +0.000 N 
ENDROOT
BRANCH   1   7
ATOM      4  C   UNL     1      -6.640  -0.381 128.919  0.00  0.00    +0.000 A 
ATOM      5  C   UNL     1      -7.880   0.275 128.978  0.00  0.00    +0.000 A 
ATOM      6  C   UNL     1      -8.269   1.290 128.016  0.00  0.00    +0.000 A 
ATOM      7  C   UNL     1      -7.405   1.686 126.995  0.00  0.00    +0.000 A 
ATOM      8  C   UNL     1      -6.143   1.218 127.179  0.00  0.00    +0.000 A 
ATOM      9  C   UNL     1      -5.761   0.261 128.099  0.00  0.00    +0.000 A 
BRANCH   4  17
ATOM     10  C   UNL     1      -7.778  -1.475 131.660  0.00  0.00    +0.000 C 
ATOM     11  C   UNL     1      -6.828  -2.210 130.741  0.00  0.00    +0.000 A 
ATOM     12  C   UNL     1      -6.500  -3.505 131.169  0.00  0.00    +0.000 A 
ATOM     13  C   UNL     1      -5.534  -4.238 130.507  0.00  0.00    +0.000 A 
ATOM     14  F   UNL     1      -5.318  -5.507 130.870  0.00  0.00    +0.000 F 
ATOM     15  C   UNL     1      -4.792  -3.668 129.485  0.00  0.00    +0.000 A 
ATOM     16  C   UNL     1      -5.117  -2.384 129.029  0.00  0.00    +0.000 A 
ATOM     17  C   UNL     1      -6.222  -1.672 129.554  0.00  0.00    +0.000 A 
ENDBRANCH   4  17
ENDBRANCH   1   7
BRANCH   3  18
ATOM     18  C   UNL     1      -8.631   0.860 123.995  0.00  0.00    +0.000 C 
BRANCH  18  19
ATOM     19  C   UNL     1      -8.101  -0.470 124.415  0.00  0.00    +0.000 A 
ATOM     20  C   UNL     1      -6.735  -0.759 124.154  0.00  0.00    +0.000 A 
ATOM     21  C   UNL     1      -6.117  -1.803 124.826  0.00  0.00    +0.000 A 
ATOM     22  C   UNL     1      -6.841  -2.502 125.799  0.00  0.00    +0.000 A 
ATOM     23  C   UNL     1      -8.183  -2.197 126.059  0.00  0.00    +0.000 A 
ATOM     24  C   UNL     1      -8.843  -1.234 125.310  0.00  0.00    +0.000 A 
ENDBRANCH  18  19
ENDBRANCH   3  18
BRANCH   3  25
ATOM     25  C   UNL     1      -8.009   3.194 123.402  0.00  0.00    +0.000 C 
BRANCH  25  26
ATOM     26  C   UNL     1      -6.707   3.157 122.525  0.00  0.00    +0.000 C 
ATOM     27  C   UNL     1      -5.668   4.203 122.924  0.00  0.00    +0.000 C 
ATOM     28  C   UNL     1      -4.886   4.423 121.667  0.00  0.00    +0.000 C 
ATOM     29  C   UNL     1      -5.930   4.231 120.596  0.00  0.00    +0.000 C 
ATOM     30  O   UNL     1      -6.968   3.391 121.129  0.00  0.00    +0.000 OA
ENDBRANCH  25  26
ENDBRANCH   3  25
TORSDOF 6
ENDMDL
MODEL 7
REMARK VINA RESULT:      -7.8      6.839      8.924
REMARK  Name = CHEMBL482323
REMARK  7 active torsions:
REMARK  status: ('A' for Active; 'I' for Inactive)
REMARK    1  A    between atoms: C_1  and  C_2
REMARK    2  A    between atoms: C_8  and  C_9
REMARK    3  A    between atoms: C_12  and  C_13
REMARK    4  A    between atoms: N_15  and  C_16
REMARK    5  A    between atoms: N_15  and  C_23
REMARK    6  A    between atoms: C_16  and  C_17
REMARK    7  A    between atoms: C_23  and  C_24
REMARK                            x       y       z     vdW  Elec       q    Type
REMARK                         _______ _______ _______ _____ _____    ______ ____
ROOT
ATOM      1  C   UNL     1      -8.990   5.699 132.244  0.00  0.00    +0.000 C 
ATOM      2  O   UNL     1      -8.990   6.510 133.213  0.00  0.00    +0.000 OA
ATOM      3  N   UNL     1     -10.246   5.304 131.659  0.00  0.00    +0.000 N 
ENDROOT
BRANCH   1   7
ATOM      4  C   UNL     1      -5.114   4.581 130.438  0.00  0.00    +0.000 A 
ATOM      5  C   UNL     1      -5.639   3.793 131.474  0.00  0.00    +0.000 A 
ATOM      6  C   UNL     1      -6.883   4.122 132.146  0.00  0.00    +0.000 A 
ATOM      7  C   UNL     1      -7.606   5.266 131.808  0.00  0.00    +0.000 A 
ATOM      8  C   UNL     1      -6.896   6.106 131.011  0.00  0.00    +0.000 A 
ATOM      9  C   UNL     1      -5.705   5.806 130.377  0.00  0.00    +0.000 A 
BRANCH   4  17
ATOM     10  C   UNL     1      -4.467   1.625 129.515  0.00  0.00    +0.000 C 
ATOM     11  C   UNL     1      -3.889   2.886 128.912  0.00  0.00    +0.000 A 
ATOM     12  C   UNL     1      -3.038   2.662 127.819  0.00  0.00    +0.000 A 
ATOM     13  C   UNL     1      -2.328   3.707 127.260  0.00  0.00    +0.000 A 
ATOM     14  F   UNL     1      -1.609   3.486 126.154  0.00  0.00    +0.000 F 
ATOM     15  C   UNL     1      -2.350   4.965 127.839  0.00  0.00    +0.000 A 
ATOM     16  C   UNL     1      -3.208   5.215 128.917  0.00  0.00    +0.000 A 
ATOM     17  C   UNL     1      -4.093   4.221 129.402  0.00  0.00    +0.000 A 
ENDBRANCH   4  17
ENDBRANCH   1   7
BRANCH   3  18
ATOM     18  C   UNL     1     -10.575   4.287 130.621  0.00  0.00    +0.000 C 
BRANCH  18  19
ATOM     19  C   UNL     1      -9.969   2.927 130.541  0.00  0.00    +0.000 A 
ATOM     20  C   UNL     1      -9.031   2.671 129.505  0.00  0.00    +0.000 A 
ATOM     21  C   UNL     1      -8.191   1.572 129.600  0.00  0.00    +0.000 A 
ATOM     22  C   UNL     1      -8.242   0.780 130.752  0.00  0.00    +0.000 A 
ATOM     23  C   UNL     1      -9.160   1.051 131.776  0.00  0.00    +0.000 A 
ATOM     24  C   UNL     1     -10.084   2.077 131.638  0.00  0.00    +0.000 A 
ENDBRANCH  18  19
ENDBRANCH   3  18
BRANCH   3  25
ATOM     25  C   UNL     1     -11.449   6.112 132.068  0.00  0.00    +0.000 C 
BRANCH  25  26
ATOM     26  C   UNL     1     -12.238   6.854 130.932  0.00  0.00    +0.000 C 
ATOM     27  C   UNL     1     -11.339   7.514 129.888  0.00  0.00    +0.000 C 
ATOM     28  C   UNL     1     -12.185   8.620 129.341  0.00  0.00    +0.000 C 
ATOM     29  C   UNL     1     -13.001   9.031 130.540  0.00  0.00    +0.000 C 
ATOM     30  O   UNL     1     -13.079   7.909 131.435  0.00  0.00    +0.000 OA
ENDBRANCH  25  26
ENDBRANCH   3  25
TORSDOF 6
ENDMDL
MODEL 8
REMARK VINA RESULT:      -7.8      5.532      9.391
REMARK  Name = CHEMBL482323
REMARK  7 active torsions:
REMARK  status: ('A' for Active; 'I' for Inactive)
REMARK    1  A    between atoms: C_1  and  C_2
REMARK    2  A    between atoms: C_8  and  C_9
REMARK    3  A    between atoms: C_12  and  C_13
REMARK    4  A    between atoms: N_15  and  C_16
REMARK    5  A    between atoms: N_15  and  C_23
REMARK    6  A    between atoms: C_16  and  C_17
REMARK    7  A    between atoms: C_23  and  C_24
REMARK                            x       y       z     vdW  Elec       q    Type
REMARK                         _______ _______ _______ _____ _____    ______ ____
ROOT
ATOM      1  C   UNL     1      -7.492   2.800 128.688  0.00  0.00    +0.000 C 
ATOM      2  O   UNL     1      -8.752   2.851 128.781  0.00  0.00    +0.000 OA
ATOM      3  N   UNL     1      -6.705   2.668 129.887  0.00  0.00    +0.000 N 
ENDROOT
BRANCH   1   7
ATOM      4  C   UNL     1      -6.499   3.236 124.403  0.00  0.00    +0.000 A 
ATOM      5  C   UNL     1      -6.105   2.072 125.082  0.00  0.00    +0.000 A 
ATOM      6  C   UNL     1      -6.356   1.877 126.498  0.00  0.00    +0.000 A 
ATOM      7  C   UNL     1      -6.981   2.862 127.265  0.00  0.00    +0.000 A 
ATOM      8  C   UNL     1      -7.068   4.047 126.605  0.00  0.00    +0.000 A 
ATOM      9  C   UNL     1      -6.819   4.245 125.260  0.00  0.00    +0.000 A 
BRANCH   4  17
ATOM     10  C   UNL     1      -9.034   2.328 122.743  0.00  0.00    +0.000 C 
ATOM     11  C   UNL     1      -7.875   3.142 122.212  0.00  0.00    +0.000 A 
ATOM     12  C   UNL     1      -8.018   3.542 120.876  0.00  0.00    +0.000 A 
ATOM     13  C   UNL     1      -6.977   4.167 120.217  0.00  0.00    +0.000 A 
ATOM     14  F   UNL     1      -7.177   4.634 118.979  0.00  0.00    +0.000 F 
ATOM     15  C   UNL     1      -5.738   4.303 120.822  0.00  0.00    +0.000 A 
ATOM     16  C   UNL     1      -5.580   3.928 122.162  0.00  0.00    +0.000 A 
ATOM     17  C   UNL     1      -6.671   3.459 122.932  0.00  0.00    +0.000 A 
ENDBRANCH   4  17
ENDBRANCH   1   7
BRANCH   3  18
ATOM     18  C   UNL     1      -5.233   2.715 130.111  0.00  0.00    +0.000 C 
BRANCH  18  19
ATOM     19  C   UNL     1      -4.260   3.421 129.228  0.00  0.00    +0.000 A 
ATOM     20  C   UNL     1      -3.491   2.643 128.322  0.00  0.00    +0.000 A 
ATOM     21  C   UNL     1      -2.855   3.264 127.257  0.00  0.00    +0.000 A 
ATOM     22  C   UNL     1      -3.046   4.637 127.064  0.00  0.00    +0.000 A 
ATOM     23  C   UNL     1      -3.821   5.391 127.955  0.00  0.00    +0.000 A 
ATOM     24  C   UNL     1      -4.364   4.802 129.087  0.00  0.00    +0.000 A 
ENDBRANCH  18  19
ENDBRANCH   3  18
BRANCH   3  25
ATOM     25  C   UNL     1      -7.462   2.314 131.140  0.00  0.00    +0.000 C 
BRANCH  25  26
ATOM     26  C   UNL     1      -7.676   3.454 132.197  0.00  0.00    +0.000 C 
ATOM     27  C   UNL     1      -7.701   2.956 133.641  0.00  0.00    +0.000 C 
ATOM     28  C   UNL     1      -8.511   3.991 134.358  0.00  0.00    +0.000 C 
ATOM     29  C   UNL     1      -9.497   4.423 133.303  0.00  0.00    +0.000 C 
ATOM     30  O   UNL     1      -8.917   4.160 132.014  0.00  0.00    +0.000 OA
ENDBRANCH  25  26
ENDBRANCH   3  25
TORSDOF 6
ENDMDL
MODEL 9
REMARK VINA RESULT:      -7.7      8.513     11.535
REMARK  Name = CHEMBL482323
REMARK  7 active torsions:
REMARK  status: ('A' for Active; 'I' for Inactive)
REMARK    1  A    between atoms: C_1  and  C_2
REMARK    2  A    between atoms: C_8  and  C_9
REMARK    3  A    between atoms: C_12  and  C_13
REMARK    4  A    between atoms: N_15  and  C_16
REMARK    5  A    between atoms: N_15  and  C_23
REMARK    6  A    between atoms: C_16  and  C_17
REMARK    7  A    between atoms: C_23  and  C_24
REMARK                            x       y       z     vdW  Elec       q    Type
REMARK                         _______ _______ _______ _____ _____    ______ ____
ROOT
ATOM      1  C   UNL     1      -5.024   5.471 130.729  0.00  0.00    +0.000 C 
ATOM      2  O   UNL     1      -4.393   6.067 129.810  0.00  0.00    +0.000 OA
ATOM      3  N   UNL     1      -4.295   4.652 131.663  0.00  0.00    +0.000 N 
ENDROOT
BRANCH   1   7
ATOM      4  C   UNL     1      -9.327   6.294 130.141  0.00  0.00    +0.000 A 
ATOM      5  C   UNL     1      -8.666   6.856 131.245  0.00  0.00    +0.000 A 
ATOM      6  C   UNL     1      -7.267   6.596 131.528  0.00  0.00    +0.000 A 
ATOM      7  C   UNL     1      -6.514   5.740 130.723  0.00  0.00    +0.000 A 
ATOM      8  C   UNL     1      -7.289   5.029 129.863  0.00  0.00    +0.000 A 
ATOM      9  C   UNL     1      -8.624   5.263 129.596  0.00  0.00    +0.000 A 
BRANCH   4  17
ATOM     10  C   UNL     1     -12.097   6.595 131.639  0.00  0.00    +0.000 C 
ATOM     11  C   UNL     1     -11.827   6.965 130.197  0.00  0.00    +0.000 A 
ATOM     12  C   UNL     1     -12.924   7.532 129.534  0.00  0.00    +0.000 A 
ATOM     13  C   UNL     1     -12.868   7.786 128.177  0.00  0.00    +0.000 A 
ATOM     14  F   UNL     1     -13.887   8.426 127.592  0.00  0.00    +0.000 F 
ATOM     15  C   UNL     1     -11.777   7.378 127.428  0.00  0.00    +0.000 A 
ATOM     16  C   UNL     1     -10.662   6.828 128.073  0.00  0.00    +0.000 A 
ATOM     17  C   UNL     1     -10.603   6.724 129.483  0.00  0.00    +0.000 A 
ENDBRANCH   4  17
ENDBRANCH   1   7
BRANCH   3  18
ATOM     18  C   UNL     1      -4.757   3.737 132.745  0.00  0.00    +0.000 C 
BRANCH  18  19
ATOM     19  C   UNL     1      -5.767   4.092 133.784  0.00  0.00    +0.000 A 
ATOM     20  C   UNL     1      -5.540   5.252 134.571  0.00  0.00    +0.000 A 
ATOM     21  C   UNL     1      -6.591   5.813 135.280  0.00  0.00    +0.000 A 
ATOM     22  C   UNL     1      -7.868   5.259 135.145  0.00  0.00    +0.000 A 
ATOM     23  C   UNL     1      -8.084   4.124 134.353  0.00  0.00    +0.000 A 
ATOM     24  C   UNL     1      -7.019   3.486 133.734  0.00  0.00    +0.000 A 
ENDBRANCH  18  19
ENDBRANCH   3  18
BRANCH   3  25
ATOM     25  C   UNL     1      -2.796   4.799 131.642  0.00  0.00    +0.000 C 
BRANCH  25  26
ATOM     26  C   UNL     1      -2.150   5.737 132.721  0.00  0.00    +0.000 C 
ATOM     27  C   UNL     1      -2.689   7.167 132.695  0.00  0.00    +0.000 C 
ATOM     28  C   UNL     1      -1.573   7.976 133.279  0.00  0.00    +0.000 C 
ATOM     29  C   UNL     1      -0.349   7.229 132.812  0.00  0.00    +0.000 C 
ATOM     30  O   UNL     1      -0.724   5.863 132.569  0.00  0.00    +0.000 OA
ENDBRANCH  25  26
ENDBRANCH   3  25
TORSDOF 6
ENDMDL
