MODEL 1
REMARK VINA RESULT:      -8.1      0.000      0.000
REMARK  Name = CHEMBL1643585
REMARK  14 active torsions:
REMARK  status: ('A' for Active; 'I' for Inactive)
REMARK    1  A    between atoms: C_1  and  O_2
REMARK    2  A    between atoms: O_2  and  C_3
REMARK    3  A    between atoms: C_6  and  S_7
REMARK    4  A    between atoms: S_7  and  N_10
REMARK    5  A    between atoms: N_10  and  C_11
REMARK    6  A    between atoms: N_10  and  C_29
REMARK    7  A    between atoms: C_11  and  C_12
REMARK    8  A    between atoms: C_15  and  C_16
REMARK    9  A    between atoms: C_19  and  C_20
REMARK   10  A    between atoms: C_20  and  N_21
REMARK   11  A    between atoms: N_21  and  C_22
REMARK   12  A    between atoms: C_22  and  C_23
REMARK   13  A    between atoms: C_23  and  C_24
REMARK   14  A    between atoms: C_23  and  C_25
REMARK                            x       y       z     vdW  Elec       q    Type
REMARK                         _______ _______ _______ _____ _____    ______ ____
ROOT
ATOM      1  C   UNL     1      -8.931   1.280 123.748  0.00  0.00    +0.000 C 
ENDROOT
BRANCH   1   2
ATOM      2  C   UNL     1      -8.690  -0.310 123.826  0.00  0.00    +0.000 A 
ATOM      3  C   UNL     1      -9.130  -1.264 122.915  0.00  0.00    +0.000 A 
ATOM      4  S   UNL     1      -9.007  -2.889 123.729  0.00  0.00    +0.000 S 
ATOM      5  C   UNL     1      -7.814  -2.230 125.033  0.00  0.00    +0.000 A 
ATOM      6  N   UNL     1      -7.691  -0.910 124.719  0.00  0.00    +0.000 NA
BRANCH   5   7
ATOM      7  C   UNL     1      -7.540  -2.837 126.747  0.00  0.00    +0.000 A 
ATOM      8  C   UNL     1      -8.586  -3.295 127.471  0.00  0.00    +0.000 A 
ATOM      9  C   UNL     1      -8.440  -3.340 128.924  0.00  0.00    +0.000 A 
ATOM     10  C   UNL     1      -7.283  -2.932 129.747  0.00  0.00    +0.000 A 
ATOM     11  C   UNL     1      -6.125  -2.581 129.112  0.00  0.00    +0.000 A 
ATOM     12  C   UNL     1      -6.203  -2.715 127.715  0.00  0.00    +0.000 A 
BRANCH  10  13
ATOM     13  C   UNL     1      -7.452  -2.568 131.203  0.00  0.00    +0.000 C 
BRANCH  13  14
ATOM     14  N   UNL     1      -7.052  -1.193 131.502  0.00  0.00    +0.000 NA
ATOM     15  H   UNL     1      -6.194  -0.941 131.010  0.00  0.00    +0.000 HD
BRANCH  14  16
ATOM     16  C   UNL     1      -8.123  -0.292 131.151  0.00  0.00    +0.000 C 
BRANCH  16  17
ATOM     17  C   UNL     1      -7.583   0.851 130.299  0.00  0.00    +0.000 C 
ATOM     18  C   UNL     1      -6.065   0.986 130.424  0.00  0.00    +0.000 C 
ATOM     19  C   UNL     1      -7.986   0.542 128.865  0.00  0.00    +0.000 C 
ENDBRANCH  16  17
ENDBRANCH  14  16
ENDBRANCH  13  14
ENDBRANCH  10  13
ENDBRANCH   5   7
ENDBRANCH   1   2
BRANCH   1  20
ATOM     20  N   UNL     1      -7.759   2.316 123.967  0.00  0.00    +0.000 NA
BRANCH  20  21
ATOM     21  C   UNL     1      -7.645   3.307 122.798  0.00  0.00    +0.000 C 
ATOM     22  C   UNL     1      -6.368   3.106 121.970  0.00  0.00    +0.000 C 
ATOM     23  C   UNL     1      -6.612   3.892 120.691  0.00  0.00    +0.000 C 
ATOM     24  C   UNL     1      -8.117   3.847 120.473  0.00  0.00    +0.000 C 
ATOM     25  C   UNL     1      -8.712   3.186 121.716  0.00  0.00    +0.000 C 
ENDBRANCH  20  21
BRANCH  20  26
ATOM     26  S   UNL     1      -7.817   3.391 125.464  0.00  0.00    +0.000 S 
ATOM     27  O   UNL     1      -8.526   2.614 126.495  0.00  0.00    +0.000 OA
ATOM     28  O   UNL     1      -8.196   4.706 125.061  0.00  0.00    +0.000 OA
BRANCH  26  32
ATOM     29  C   UNL     1      -3.809   4.682 127.223  0.00  0.00    +0.000 A 
ATOM     30  C   UNL     1      -3.747   3.822 126.175  0.00  0.00    +0.000 A 
ATOM     31  C   UNL     1      -4.949   3.393 125.490  0.00  0.00    +0.000 A 
ATOM     32  C   UNL     1      -6.223   3.571 126.029  0.00  0.00    +0.000 A 
ATOM     33  C   UNL     1      -6.265   3.884 127.281  0.00  0.00    +0.000 A 
ATOM     34  C   UNL     1      -5.124   4.565 127.638  0.00  0.00    +0.000 A 
BRANCH  29  36
ATOM     35  C   UNL     1      -2.329   6.418 128.428  0.00  0.00    +0.000 C 
ATOM     36  O   UNL     1      -2.629   5.202 127.711  0.00  0.00    +0.000 OA
ENDBRANCH  29  36
ENDBRANCH  26  32
ENDBRANCH  20  26
ENDBRANCH   1  20
TORSDOF 11
ENDMDL
MODEL 2
REMARK VINA RESULT:      -7.9      3.174      6.837
REMARK  Name = CHEMBL1643585
REMARK  14 active torsions:
REMARK  status: ('A' for Active; 'I' for Inactive)
REMARK    1  A    between atoms: C_1  and  O_2
REMARK    2  A    between atoms: O_2  and  C_3
REMARK    3  A    between atoms: C_6  and  S_7
REMARK    4  A    between atoms: S_7  and  N_10
REMARK    5  A    between atoms: N_10  and  C_11
REMARK    6  A    between atoms: N_10  and  C_29
REMARK    7  A    between atoms: C_11  and  C_12
REMARK    8  A    between atoms: C_15  and  C_16
REMARK    9  A    between atoms: C_19  and  C_20
REMARK   10  A    between atoms: C_20  and  N_21
REMARK   11  A    between atoms: N_21  and  C_22
REMARK   12  A    between atoms: C_22  and  C_23
REMARK   13  A    between atoms: C_23  and  C_24
REMARK   14  A    between atoms: C_23  and  C_25
REMARK                            x       y       z     vdW  Elec       q    Type
REMARK                         _______ _______ _______ _____ _____    ______ ____
ROOT
ATOM      1  C   UNL     1      -7.814   2.951 131.090  0.00  0.00    +0.000 C 
ENDROOT
BRANCH   1   2
ATOM      2  C   UNL     1      -7.505   1.419 131.478  0.00  0.00    +0.000 A 
ATOM      3  C   UNL     1      -6.812   0.967 132.596  0.00  0.00    +0.000 A 
ATOM      4  S   UNL     1      -6.347  -0.766 132.282  0.00  0.00    +0.000 S 
ATOM      5  C   UNL     1      -7.633  -0.942 130.912  0.00  0.00    +0.000 A 
ATOM      6  N   UNL     1      -8.205   0.293 130.847  0.00  0.00    +0.000 NA
BRANCH   5   7
ATOM      7  C   UNL     1      -7.611  -2.066 129.458  0.00  0.00    +0.000 A 
ATOM      8  C   UNL     1      -6.815  -1.781 128.402  0.00  0.00    +0.000 A 
ATOM      9  C   UNL     1      -7.137  -2.403 127.119  0.00  0.00    +0.000 A 
ATOM     10  C   UNL     1      -8.251  -3.317 126.792  0.00  0.00    +0.000 A 
ATOM     11  C   UNL     1      -9.035  -3.778 127.813  0.00  0.00    +0.000 A 
ATOM     12  C   UNL     1      -8.613  -3.326 129.076  0.00  0.00    +0.000 A 
BRANCH  10  13
ATOM     13  C   UNL     1      -8.741  -3.472 125.373  0.00  0.00    +0.000 C 
BRANCH  13  14
ATOM     14  N   UNL     1      -7.667  -3.758 124.422  0.00  0.00    +0.000 NA
ATOM     15  H   UNL     1      -7.821  -4.648 123.945  0.00  0.00    +0.000 HD
BRANCH  14  16
ATOM     16  C   UNL     1      -7.566  -2.681 123.468  0.00  0.00    +0.000 C 
BRANCH  16  17
ATOM     17  C   UNL     1      -6.138  -2.150 123.432  0.00  0.00    +0.000 C 
ATOM     18  C   UNL     1      -5.933  -0.999 124.417  0.00  0.00    +0.000 C 
ATOM     19  C   UNL     1      -5.236  -3.326 123.774  0.00  0.00    +0.000 C 
ENDBRANCH  16  17
ENDBRANCH  14  16
ENDBRANCH  13  14
ENDBRANCH  10  13
ENDBRANCH   5   7
ENDBRANCH   1   2
BRANCH   1  20
ATOM     20  N   UNL     1      -8.424   3.353 129.690  0.00  0.00    +0.000 NA
BRANCH  20  21
ATOM     21  C   UNL     1      -8.993   4.780 129.702  0.00  0.00    +0.000 C 
ATOM     22  C   UNL     1     -10.364   4.868 130.388  0.00  0.00    +0.000 C 
ATOM     23  C   UNL     1     -10.577   6.355 130.629  0.00  0.00    +0.000 C 
ATOM     24  C   UNL     1      -9.183   6.937 130.814  0.00  0.00    +0.000 C 
ATOM     25  C   UNL     1      -8.202   5.806 130.506  0.00  0.00    +0.000 C 
ENDBRANCH  20  21
BRANCH  20  26
ATOM     26  S   UNL     1      -7.314   3.324 128.217  0.00  0.00    +0.000 S 
ATOM     27  O   UNL     1      -6.015   2.822 128.697  0.00  0.00    +0.000 OA
ATOM     28  O   UNL     1      -7.478   4.549 127.505  0.00  0.00    +0.000 OA
BRANCH  26  32
ATOM     29  C   UNL     1      -9.147   0.836 124.859  0.00  0.00    +0.000 A 
ATOM     30  C   UNL     1      -9.232   0.304 126.106  0.00  0.00    +0.000 A 
ATOM     31  C   UNL     1      -8.747   1.030 127.261  0.00  0.00    +0.000 A 
ATOM     32  C   UNL     1      -7.907   2.139 127.152  0.00  0.00    +0.000 A 
ATOM     33  C   UNL     1      -7.363   2.320 125.994  0.00  0.00    +0.000 A 
ATOM     34  C   UNL     1      -8.169   1.804 125.006  0.00  0.00    +0.000 A 
BRANCH  29  36
ATOM     35  C   UNL     1     -10.238   0.635 122.530  0.00  0.00    +0.000 C 
ATOM     36  O   UNL     1      -9.794   0.188 123.828  0.00  0.00    +0.000 OA
ENDBRANCH  29  36
ENDBRANCH  26  32
ENDBRANCH  20  26
ENDBRANCH   1  20
TORSDOF 11
ENDMDL
MODEL 3
REMARK VINA RESULT:      -7.9      1.988      3.583
REMARK  Name = CHEMBL1643585
REMARK  14 active torsions:
REMARK  status: ('A' for Active; 'I' for Inactive)
REMARK    1  A    between atoms: C_1  and  O_2
REMARK    2  A    between atoms: O_2  and  C_3
REMARK    3  A    between atoms: C_6  and  S_7
REMARK    4  A    between atoms: S_7  and  N_10
REMARK    5  A    between atoms: N_10  and  C_11
REMARK    6  A    between atoms: N_10  and  C_29
REMARK    7  A    between atoms: C_11  and  C_12
REMARK    8  A    between atoms: C_15  and  C_16
REMARK    9  A    between atoms: C_19  and  C_20
REMARK   10  A    between atoms: C_20  and  N_21
REMARK   11  A    between atoms: N_21  and  C_22
REMARK   12  A    between atoms: C_22  and  C_23
REMARK   13  A    between atoms: C_23  and  C_24
REMARK   14  A    between atoms: C_23  and  C_25
REMARK                            x       y       z     vdW  Elec       q    Type
REMARK                         _______ _______ _______ _____ _____    ______ ____
ROOT
ATOM      1  C   UNL     1      -8.480   1.208 123.184  0.00  0.00    +0.000 C 
ENDROOT
BRANCH   1   2
ATOM      2  C   UNL     1      -8.357  -0.330 123.644  0.00  0.00    +0.000 A 
ATOM      3  C   UNL     1      -8.992  -1.425 123.066  0.00  0.00    +0.000 A 
ATOM      4  S   UNL     1      -8.888  -2.802 124.254  0.00  0.00    +0.000 S 
ATOM      5  C   UNL     1      -7.479  -1.978 125.201  0.00  0.00    +0.000 A 
ATOM      6  N   UNL     1      -7.296  -0.799 124.544  0.00  0.00    +0.000 NA
BRANCH   5   7
ATOM      7  C   UNL     1      -7.022  -2.171 126.971  0.00  0.00    +0.000 A 
ATOM      8  C   UNL     1      -5.720  -2.141 127.335  0.00  0.00    +0.000 A 
ATOM      9  C   UNL     1      -5.359  -2.730 128.622  0.00  0.00    +0.000 A 
ATOM     10  C   UNL     1      -6.235  -3.389 129.612  0.00  0.00    +0.000 A 
ATOM     11  C   UNL     1      -7.586  -3.355 129.409  0.00  0.00    +0.000 A 
ATOM     12  C   UNL     1      -7.951  -2.626 128.263  0.00  0.00    +0.000 A 
BRANCH  10  13
ATOM     13  C   UNL     1      -5.677  -4.364 130.621  0.00  0.00    +0.000 C 
BRANCH  13  14
ATOM     14  N   UNL     1      -5.466  -3.768 131.940  0.00  0.00    +0.000 NA
ATOM     15  H   UNL     1      -6.028  -2.924 132.060  0.00  0.00    +0.000 HD
BRANCH  14  16
ATOM     16  C   UNL     1      -5.779  -4.736 132.963  0.00  0.00    +0.000 C 
BRANCH  16  17
ATOM     17  C   UNL     1      -6.582  -4.076 134.077  0.00  0.00    +0.000 C 
ATOM     18  C   UNL     1      -7.768  -3.281 133.529  0.00  0.00    +0.000 C 
ATOM     19  C   UNL     1      -7.054  -5.199 134.987  0.00  0.00    +0.000 C 
ENDBRANCH  16  17
ENDBRANCH  14  16
ENDBRANCH  13  14
ENDBRANCH  10  13
ENDBRANCH   5   7
ENDBRANCH   1   2
BRANCH   1  20
ATOM     20  N   UNL     1      -7.383   2.281 123.555  0.00  0.00    +0.000 NA
BRANCH  20  21
ATOM     21  C   UNL     1      -7.213   3.332 122.446  0.00  0.00    +0.000 C 
ATOM     22  C   UNL     1      -5.984   3.072 121.563  0.00  0.00    +0.000 C 
ATOM     23  C   UNL     1      -6.193   3.958 120.345  0.00  0.00    +0.000 C 
ATOM     24  C   UNL     1      -7.702   4.063 120.177  0.00  0.00    +0.000 C 
ATOM     25  C   UNL     1      -8.317   3.378 121.397  0.00  0.00    +0.000 C 
ENDBRANCH  20  21
BRANCH  20  26
ATOM     26  S   UNL     1      -7.625   3.280 125.086  0.00  0.00    +0.000 S 
ATOM     27  O   UNL     1      -9.066   3.579 125.152  0.00  0.00    +0.000 OA
ATOM     28  O   UNL     1      -6.604   4.274 125.143  0.00  0.00    +0.000 OA
BRANCH  26  32
ATOM     29  C   UNL     1      -7.389   1.032 129.051  0.00  0.00    +0.000 A 
ATOM     30  C   UNL     1      -6.224   1.149 128.365  0.00  0.00    +0.000 A 
ATOM     31  C   UNL     1      -6.158   1.898 127.128  0.00  0.00    +0.000 A 
ATOM     32  C   UNL     1      -7.298   2.270 126.414  0.00  0.00    +0.000 A 
ATOM     33  C   UNL     1      -8.394   1.681 126.761  0.00  0.00    +0.000 A 
ATOM     34  C   UNL     1      -8.341   1.323 128.088  0.00  0.00    +0.000 A 
BRANCH  29  36
ATOM     35  C   UNL     1      -8.366  -0.155 131.123  0.00  0.00    +0.000 C 
ATOM     36  O   UNL     1      -7.352   0.474 130.311  0.00  0.00    +0.000 OA
ENDBRANCH  29  36
ENDBRANCH  26  32
ENDBRANCH  20  26
ENDBRANCH   1  20
TORSDOF 11
ENDMDL
MODEL 4
REMARK VINA RESULT:      -7.9      3.821      6.768
REMARK  Name = CHEMBL1643585
REMARK  14 active torsions:
REMARK  status: ('A' for Active; 'I' for Inactive)
REMARK    1  A    between atoms: C_1  and  O_2
REMARK    2  A    between atoms: O_2  and  C_3
REMARK    3  A    between atoms: C_6  and  S_7
REMARK    4  A    between atoms: S_7  and  N_10
REMARK    5  A    between atoms: N_10  and  C_11
REMARK    6  A    between atoms: N_10  and  C_29
REMARK    7  A    between atoms: C_11  and  C_12
REMARK    8  A    between atoms: C_15  and  C_16
REMARK    9  A    between atoms: C_19  and  C_20
REMARK   10  A    between atoms: C_20  and  N_21
REMARK   11  A    between atoms: N_21  and  C_22
REMARK   12  A    between atoms: C_22  and  C_23
REMARK   13  A    between atoms: C_23  and  C_24
REMARK   14  A    between atoms: C_23  and  C_25
REMARK                            x       y       z     vdW  Elec       q    Type
REMARK                         _______ _______ _______ _____ _____    ______ ____
ROOT
ATOM      1  C   UNL     1      -8.077  -2.208 126.793  0.00  0.00    +0.000 C 
ENDROOT
BRANCH   1   2
ATOM      2  C   UNL     1      -7.738  -1.788 128.310  0.00  0.00    +0.000 A 
ATOM      3  C   UNL     1      -7.431  -2.645 129.362  0.00  0.00    +0.000 A 
ATOM      4  S   UNL     1      -7.620  -1.698 130.907  0.00  0.00    +0.000 S 
ATOM      5  C   UNL     1      -7.527  -0.049 129.995  0.00  0.00    +0.000 A 
ATOM      6  N   UNL     1      -7.403  -0.409 128.688  0.00  0.00    +0.000 NA
BRANCH   5   7
ATOM      7  C   UNL     1      -8.255   1.569 130.478  0.00  0.00    +0.000 A 
ATOM      8  C   UNL     1      -9.211   1.616 131.434  0.00  0.00    +0.000 A 
ATOM      9  C   UNL     1     -10.071   2.797 131.479  0.00  0.00    +0.000 A 
ATOM     10  C   UNL     1     -10.059   3.980 130.595  0.00  0.00    +0.000 A 
ATOM     11  C   UNL     1      -9.049   4.099 129.682  0.00  0.00    +0.000 A 
ATOM     12  C   UNL     1      -8.112   3.054 129.760  0.00  0.00    +0.000 A 
BRANCH  10  13
ATOM     13  C   UNL     1     -11.282   4.853 130.443  0.00  0.00    +0.000 C 
BRANCH  13  14
ATOM     14  N   UNL     1     -10.998   6.130 129.787  0.00  0.00    +0.000 NA
ATOM     15  H   UNL     1     -10.245   6.036 129.104  0.00  0.00    +0.000 HD
BRANCH  14  16
ATOM     16  C   UNL     1     -12.197   6.625 129.156  0.00  0.00    +0.000 C 
BRANCH  16  17
ATOM     17  C   UNL     1     -11.890   7.903 128.386  0.00  0.00    +0.000 C 
ATOM     18  C   UNL     1     -12.738   9.079 128.871  0.00  0.00    +0.000 C 
ATOM     19  C   UNL     1     -10.409   8.181 128.591  0.00  0.00    +0.000 C 
ENDBRANCH  16  17
ENDBRANCH  14  16
ENDBRANCH  13  14
ENDBRANCH  10  13
ENDBRANCH   5   7
ENDBRANCH   1   2
BRANCH   1  20
ATOM     20  N   UNL     1      -7.690  -1.293 125.566  0.00  0.00    +0.000 NA
BRANCH  20  21
ATOM     21  C   UNL     1      -6.903  -2.069 124.498  0.00  0.00    +0.000 C 
ATOM     22  C   UNL     1      -5.393  -1.796 124.556  0.00  0.00    +0.000 C 
ATOM     23  C   UNL     1      -4.772  -2.897 123.710  0.00  0.00    +0.000 C 
ATOM     24  C   UNL     1      -5.709  -4.088 123.849  0.00  0.00    +0.000 C 
ATOM     25  C   UNL     1      -6.926  -3.588 124.627  0.00  0.00    +0.000 C 
ENDBRANCH  20  21
BRANCH  20  26
ATOM     26  S   UNL     1      -9.051  -0.483 124.621  0.00  0.00    +0.000 S 
ATOM     27  O   UNL     1     -10.009   0.006 125.628  0.00  0.00    +0.000 OA
ATOM     28  O   UNL     1      -9.409  -1.329 123.531  0.00  0.00    +0.000 OA
BRANCH  26  32
ATOM     29  C   UNL     1      -7.856   3.024 121.957  0.00  0.00    +0.000 A 
ATOM     30  C   UNL     1      -6.886   2.544 122.776  0.00  0.00    +0.000 A 
ATOM     31  C   UNL     1      -7.124   1.391 123.620  0.00  0.00    +0.000 A 
ATOM     32  C   UNL     1      -8.406   0.904 123.879  0.00  0.00    +0.000 A 
ATOM     33  C   UNL     1      -9.381   1.688 123.558  0.00  0.00    +0.000 A 
ATOM     34  C   UNL     1      -9.011   2.500 122.511  0.00  0.00    +0.000 A 
BRANCH  29  36
ATOM     35  C   UNL     1      -6.523   4.038 119.994  0.00  0.00    +0.000 C 
ATOM     36  O   UNL     1      -7.515   3.998 121.042  0.00  0.00    +0.000 OA
ENDBRANCH  29  36
ENDBRANCH  26  32
ENDBRANCH  20  26
ENDBRANCH   1  20
TORSDOF 11
ENDMDL
MODEL 5
REMARK VINA RESULT:      -7.9      3.392      6.027
REMARK  Name = CHEMBL1643585
REMARK  14 active torsions:
REMARK  status: ('A' for Active; 'I' for Inactive)
REMARK    1  A    between atoms: C_1  and  O_2
REMARK    2  A    between atoms: O_2  and  C_3
REMARK    3  A    between atoms: C_6  and  S_7
REMARK    4  A    between atoms: S_7  and  N_10
REMARK    5  A    between atoms: N_10  and  C_11
REMARK    6  A    between atoms: N_10  and  C_29
REMARK    7  A    between atoms: C_11  and  C_12
REMARK    8  A    between atoms: C_15  and  C_16
REMARK    9  A    between atoms: C_19  and  C_20
REMARK   10  A    between atoms: C_20  and  N_21
REMARK   11  A    between atoms: N_21  and  C_22
REMARK   12  A    between atoms: C_22  and  C_23
REMARK   13  A    between atoms: C_23  and  C_24
REMARK   14  A    between atoms: C_23  and  C_25
REMARK                            x       y       z     vdW  Elec       q    Type
REMARK                         _______ _______ _______ _____ _____    ______ ____
ROOT
ATOM      1  C   UNL     1      -8.194  -1.719 127.188  0.00  0.00    +0.000 C 
ENDROOT
BRANCH   1   2
ATOM      2  C   UNL     1      -7.665  -1.883 128.700  0.00  0.00    +0.000 A 
ATOM      3  C   UNL     1      -7.195  -3.050 129.295  0.00  0.00    +0.000 A 
ATOM      4  S   UNL     1      -7.199  -2.779 131.097  0.00  0.00    +0.000 S 
ATOM      5  C   UNL     1      -7.274  -0.905 130.891  0.00  0.00    +0.000 A 
ATOM      6  N   UNL     1      -7.319  -0.731 129.541  0.00  0.00    +0.000 NA
BRANCH   5   7
ATOM      7  C   UNL     1      -7.973   0.346 132.043  0.00  0.00    +0.000 A 
ATOM      8  C   UNL     1      -9.221   0.826 131.835  0.00  0.00    +0.000 A 
ATOM      9  C   UNL     1      -9.572   2.100 132.458  0.00  0.00    +0.000 A 
ATOM     10  C   UNL     1      -8.732   2.978 133.299  0.00  0.00    +0.000 A 
ATOM     11  C   UNL     1      -7.501   2.525 133.683  0.00  0.00    +0.000 A 
ATOM     12  C   UNL     1      -7.232   1.219 133.237  0.00  0.00    +0.000 A 
BRANCH  10  13
ATOM     13  C   UNL     1      -9.045   4.448 133.447  0.00  0.00    +0.000 C 
BRANCH  13  14
ATOM     14  N   UNL     1     -10.274   4.846 132.759  0.00  0.00    +0.000 NA
ATOM     15  H   UNL     1     -11.074   4.830 133.393  0.00  0.00    +0.000 HD
BRANCH  14  16
ATOM     16  C   UNL     1     -10.104   6.158 132.186  0.00  0.00    +0.000 C 
BRANCH  16  17
ATOM     17  C   UNL     1     -11.025   6.325 130.984  0.00  0.00    +0.000 C 
ATOM     18  C   UNL     1     -10.430   7.265 129.936  0.00  0.00    +0.000 C 
ATOM     19  C   UNL     1     -11.235   4.932 130.410  0.00  0.00    +0.000 C 
ENDBRANCH  16  17
ENDBRANCH  14  16
ENDBRANCH  13  14
ENDBRANCH  10  13
ENDBRANCH   5   7
ENDBRANCH   1   2
BRANCH   1  20
ATOM     20  N   UNL     1      -7.819  -0.467 126.303  0.00  0.00    +0.000 NA
BRANCH  20  21
ATOM     21  C   UNL     1      -7.514  -0.863 124.850  0.00  0.00    +0.000 C 
ATOM     22  C   UNL     1      -6.062  -1.322 124.652  0.00  0.00    +0.000 C 
ATOM     23  C   UNL     1      -6.059  -2.006 123.293  0.00  0.00    +0.000 C 
ATOM     24  C   UNL     1      -7.457  -2.583 123.129  0.00  0.00    +0.000 C 
ATOM     25  C   UNL     1      -8.274  -2.072 124.316  0.00  0.00    +0.000 C 
ENDBRANCH  20  21
BRANCH  20  26
ATOM     26  S   UNL     1      -9.058   0.890 126.146  0.00  0.00    +0.000 S 
ATOM     27  O   UNL     1      -9.009   1.634 127.418  0.00  0.00    +0.000 OA
ATOM     28  O   UNL     1     -10.254   0.348 125.590  0.00  0.00    +0.000 OA
BRANCH  26  32
ATOM     29  C   UNL     1      -7.697   3.102 122.394  0.00  0.00    +0.000 A 
ATOM     30  C   UNL     1      -7.065   3.444 123.546  0.00  0.00    +0.000 A 
ATOM     31  C   UNL     1      -7.363   2.764 124.790  0.00  0.00    +0.000 A 
ATOM     32  C   UNL     1      -8.494   1.965 124.956  0.00  0.00    +0.000 A 
ATOM     33  C   UNL     1      -9.402   2.080 124.044  0.00  0.00    +0.000 A 
ATOM     34  C   UNL     1      -8.829   2.448 122.849  0.00  0.00    +0.000 A 
BRANCH  29  36
ATOM     35  C   UNL     1      -5.950   3.614 120.566  0.00  0.00    +0.000 C 
ATOM     36  O   UNL     1      -7.240   3.647 121.213  0.00  0.00    +0.000 OA
ENDBRANCH  29  36
ENDBRANCH  26  32
ENDBRANCH  20  26
ENDBRANCH   1  20
TORSDOF 11
ENDMDL
MODEL 6
REMARK VINA RESULT:      -7.9      2.660      6.242
REMARK  Name = CHEMBL1643585
REMARK  14 active torsions:
REMARK  status: ('A' for Active; 'I' for Inactive)
REMARK    1  A    between atoms: C_1  and  O_2
REMARK    2  A    between atoms: O_2  and  C_3
REMARK    3  A    between atoms: C_6  and  S_7
REMARK    4  A    between atoms: S_7  and  N_10
REMARK    5  A    between atoms: N_10  and  C_11
REMARK    6  A    between atoms: N_10  and  C_29
REMARK    7  A    between atoms: C_11  and  C_12
REMARK    8  A    between atoms: C_15  and  C_16
REMARK    9  A    between atoms: C_19  and  C_20
REMARK   10  A    between atoms: C_20  and  N_21
REMARK   11  A    between atoms: N_21  and  C_22
REMARK   12  A    between atoms: C_22  and  C_23
REMARK   13  A    between atoms: C_23  and  C_24
REMARK   14  A    between atoms: C_23  and  C_25
REMARK                            x       y       z     vdW  Elec       q    Type
REMARK                         _______ _______ _______ _____ _____    ______ ____
ROOT
ATOM      1  C   UNL     1      -8.225  -2.098 126.815  0.00  0.00    +0.000 C 
ENDROOT
BRANCH   1   2
ATOM      2  C   UNL     1      -7.694  -1.876 128.319  0.00  0.00    +0.000 A 
ATOM      3  C   UNL     1      -8.018  -2.638 129.437  0.00  0.00    +0.000 A 
ATOM      4  S   UNL     1      -7.544  -1.672 130.907  0.00  0.00    +0.000 S 
ATOM      5  C   UNL     1      -6.400  -0.559 129.901  0.00  0.00    +0.000 A 
ATOM      6  N   UNL     1      -6.541  -1.020 128.627  0.00  0.00    +0.000 NA
BRANCH   5   7
ATOM      7  C   UNL     1      -5.899   1.176 130.243  0.00  0.00    +0.000 A 
ATOM      8  C   UNL     1      -6.759   2.187 129.982  0.00  0.00    +0.000 A 
ATOM      9  C   UNL     1      -6.205   3.530 129.829  0.00  0.00    +0.000 A 
ATOM     10  C   UNL     1      -4.794   3.959 129.908  0.00  0.00    +0.000 A 
ATOM     11  C   UNL     1      -3.857   3.045 130.300  0.00  0.00    +0.000 A 
ATOM     12  C   UNL     1      -4.413   1.795 130.627  0.00  0.00    +0.000 A 
BRANCH  10  13
ATOM     13  C   UNL     1      -4.330   5.238 129.252  0.00  0.00    +0.000 C 
BRANCH  13  14
ATOM     14  N   UNL     1      -3.324   5.019 128.213  0.00  0.00    +0.000 NA
ATOM     15  H   UNL     1      -2.667   4.284 128.482  0.00  0.00    +0.000 HD
BRANCH  14  16
ATOM     16  C   UNL     1      -3.977   4.688 126.970  0.00  0.00    +0.000 C 
BRANCH  16  17
ATOM     17  C   UNL     1      -3.344   3.441 126.366  0.00  0.00    +0.000 C 
ATOM     18  C   UNL     1      -1.969   3.151 126.967  0.00  0.00    +0.000 C 
ATOM     19  C   UNL     1      -4.309   2.297 126.638  0.00  0.00    +0.000 C 
ENDBRANCH  16  17
ENDBRANCH  14  16
ENDBRANCH  13  14
ENDBRANCH  10  13
ENDBRANCH   5   7
ENDBRANCH   1   2
BRANCH   1  20
ATOM     20  N   UNL     1      -7.780  -1.161 125.625  0.00  0.00    +0.000 NA
BRANCH  20  21
ATOM     21  C   UNL     1      -7.011  -1.937 124.543  0.00  0.00    +0.000 C 
ATOM     22  C   UNL     1      -5.503  -1.652 124.566  0.00  0.00    +0.000 C 
ATOM     23  C   UNL     1      -4.891  -2.752 123.712  0.00  0.00    +0.000 C 
ATOM     24  C   UNL     1      -5.817  -3.949 123.876  0.00  0.00    +0.000 C 
ATOM     25  C   UNL     1      -7.020  -3.455 124.679  0.00  0.00    +0.000 C 
ENDBRANCH  20  21
BRANCH  20  26
ATOM     26  S   UNL     1      -9.090  -0.263 124.687  0.00  0.00    +0.000 S 
ATOM     27  O   UNL     1     -10.031   0.252 125.698  0.00  0.00    +0.000 OA
ATOM     28  O   UNL     1      -9.480  -1.065 123.575  0.00  0.00    +0.000 OA
BRANCH  26  32
ATOM     29  C   UNL     1      -7.536   3.121 122.049  0.00  0.00    +0.000 A 
ATOM     30  C   UNL     1      -6.730   2.753 123.077  0.00  0.00    +0.000 A 
ATOM     31  C   UNL     1      -7.083   1.647 123.943  0.00  0.00    +0.000 A 
ATOM     32  C   UNL     1      -8.369   1.106 123.982  0.00  0.00    +0.000 A 
ATOM     33  C   UNL     1      -9.292   1.810 123.418  0.00  0.00    +0.000 A 
ATOM     34  C   UNL     1      -8.756   2.570 122.404  0.00  0.00    +0.000 A 
BRANCH  29  36
ATOM     35  C   UNL     1      -5.812   4.154 120.432  0.00  0.00    +0.000 C 
ATOM     36  O   UNL     1      -7.061   4.049 121.147  0.00  0.00    +0.000 OA
ENDBRANCH  29  36
ENDBRANCH  26  32
ENDBRANCH  20  26
ENDBRANCH   1  20
TORSDOF 11
ENDMDL
MODEL 7
REMARK VINA RESULT:      -7.8      2.735      6.606
REMARK  Name = CHEMBL1643585
REMARK  14 active torsions:
REMARK  status: ('A' for Active; 'I' for Inactive)
REMARK    1  A    between atoms: C_1  and  O_2
REMARK    2  A    between atoms: O_2  and  C_3
REMARK    3  A    between atoms: C_6  and  S_7
REMARK    4  A    between atoms: S_7  and  N_10
REMARK    5  A    between atoms: N_10  and  C_11
REMARK    6  A    between atoms: N_10  and  C_29
REMARK    7  A    between atoms: C_11  and  C_12
REMARK    8  A    between atoms: C_15  and  C_16
REMARK    9  A    between atoms: C_19  and  C_20
REMARK   10  A    between atoms: C_20  and  N_21
REMARK   11  A    between atoms: N_21  and  C_22
REMARK   12  A    between atoms: C_22  and  C_23
REMARK   13  A    between atoms: C_23  and  C_24
REMARK   14  A    between atoms: C_23  and  C_25
REMARK                            x       y       z     vdW  Elec       q    Type
REMARK                         _______ _______ _______ _____ _____    ______ ____
ROOT
ATOM      1  C   UNL     1      -8.070  -1.317 127.168  0.00  0.00    +0.000 C 
ENDROOT
BRANCH   1   2
ATOM      2  C   UNL     1      -7.143  -0.783 128.372  0.00  0.00    +0.000 A 
ATOM      3  C   UNL     1      -7.352  -0.981 129.733  0.00  0.00    +0.000 A 
ATOM      4  S   UNL     1      -6.308   0.219 130.621  0.00  0.00    +0.000 S 
ATOM      5  C   UNL     1      -5.217   0.505 129.109  0.00  0.00    +0.000 A 
ATOM      6  N   UNL     1      -5.778  -0.286 128.153  0.00  0.00    +0.000 NA
BRANCH   5   7
ATOM      7  C   UNL     1      -4.243   2.000 128.665  0.00  0.00    +0.000 A 
ATOM      8  C   UNL     1      -3.836   2.848 129.637  0.00  0.00    +0.000 A 
ATOM      9  C   UNL     1      -3.478   4.210 129.246  0.00  0.00    +0.000 A 
ATOM     10  C   UNL     1      -3.510   4.821 127.902  0.00  0.00    +0.000 A 
ATOM     11  C   UNL     1      -3.776   4.018 126.828  0.00  0.00    +0.000 A 
ATOM     12  C   UNL     1      -3.939   2.666 127.181  0.00  0.00    +0.000 A 
BRANCH  10  13
ATOM     13  C   UNL     1      -3.599   6.318 127.728  0.00  0.00    +0.000 C 
BRANCH  13  14
ATOM     14  N   UNL     1      -2.924   7.061 128.793  0.00  0.00    +0.000 NA
ATOM     15  H   UNL     1      -2.072   7.508 128.450  0.00  0.00    +0.000 HD
BRANCH  14  16
ATOM     16  C   UNL     1      -3.826   8.042 129.345  0.00  0.00    +0.000 C 
BRANCH  16  17
ATOM     17  C   UNL     1      -3.998   7.808 130.840  0.00  0.00    +0.000 C 
ATOM     18  C   UNL     1      -5.189   6.898 131.141  0.00  0.00    +0.000 C 
ATOM     19  C   UNL     1      -2.700   7.183 131.327  0.00  0.00    +0.000 C 
ENDBRANCH  16  17
ENDBRANCH  14  16
ENDBRANCH  13  14
ENDBRANCH  10  13
ENDBRANCH   5   7
ENDBRANCH   1   2
BRANCH   1  20
ATOM     20  N   UNL     1      -8.209  -0.527 125.808  0.00  0.00    +0.000 NA
BRANCH  20  21
ATOM     21  C   UNL     1      -8.924  -1.360 124.732  0.00  0.00    +0.000 C 
ATOM     22  C   UNL     1      -8.117  -1.470 123.431  0.00  0.00    +0.000 C 
ATOM     23  C   UNL     1      -8.784  -2.599 122.660  0.00  0.00    +0.000 C 
ATOM     24  C   UNL     1      -9.346  -3.534 123.722  0.00  0.00    +0.000 C 
ATOM     25  C   UNL     1      -9.137  -2.832 125.064  0.00  0.00    +0.000 C 
ENDBRANCH  20  21
BRANCH  20  26
ATOM     26  S   UNL     1      -9.129   1.072 125.821  0.00  0.00    +0.000 S 
ATOM     27  O   UNL     1      -8.960   1.626 127.175  0.00  0.00    +0.000 OA
ATOM     28  O   UNL     1     -10.395   0.870 125.198  0.00  0.00    +0.000 OA
BRANCH  26  32
ATOM     29  C   UNL     1      -7.110   3.321 122.401  0.00  0.00    +0.000 A 
ATOM     30  C   UNL     1      -6.579   3.517 123.635  0.00  0.00    +0.000 A 
ATOM     31  C   UNL     1      -7.090   2.806 124.788  0.00  0.00    +0.000 A 
ATOM     32  C   UNL     1      -8.316   2.140 124.776  0.00  0.00    +0.000 A 
ATOM     33  C   UNL     1      -9.095   2.415 123.784  0.00  0.00    +0.000 A 
ATOM     34  C   UNL     1      -8.352   2.781 122.685  0.00  0.00    +0.000 A 
BRANCH  29  36
ATOM     35  C   UNL     1      -5.068   4.130 121.047  0.00  0.00    +0.000 C 
ATOM     36  O   UNL     1      -6.463   3.875 121.316  0.00  0.00    +0.000 OA
ENDBRANCH  29  36
ENDBRANCH  26  32
ENDBRANCH  20  26
ENDBRANCH   1  20
TORSDOF 11
ENDMDL
MODEL 8
REMARK VINA RESULT:      -7.8      4.382      7.363
REMARK  Name = CHEMBL1643585
REMARK  14 active torsions:
REMARK  status: ('A' for Active; 'I' for Inactive)
REMARK    1  A    between atoms: C_1  and  O_2
REMARK    2  A    between atoms: O_2  and  C_3
REMARK    3  A    between atoms: C_6  and  S_7
REMARK    4  A    between atoms: S_7  and  N_10
REMARK    5  A    between atoms: N_10  and  C_11
REMARK    6  A    between atoms: N_10  and  C_29
REMARK    7  A    between atoms: C_11  and  C_12
REMARK    8  A    between atoms: C_15  and  C_16
REMARK    9  A    between atoms: C_19  and  C_20
REMARK   10  A    between atoms: C_20  and  N_21
REMARK   11  A    between atoms: N_21  and  C_22
REMARK   12  A    between atoms: C_22  and  C_23
REMARK   13  A    between atoms: C_23  and  C_24
REMARK   14  A    between atoms: C_23  and  C_25
REMARK                            x       y       z     vdW  Elec       q    Type
REMARK                         _______ _______ _______ _____ _____    ______ ____
ROOT
ATOM      1  C   UNL     1      -8.661   2.823 132.029  0.00  0.00    +0.000 C 
ENDROOT
BRANCH   1   2
ATOM      2  C   UNL     1      -8.028   1.346 132.138  0.00  0.00    +0.000 A 
ATOM      3  C   UNL     1      -7.119   0.899 133.091  0.00  0.00    +0.000 A 
ATOM      4  S   UNL     1      -6.392  -0.649 132.463  0.00  0.00    +0.000 S 
ATOM      5  C   UNL     1      -7.797  -0.897 131.230  0.00  0.00    +0.000 A 
ATOM      6  N   UNL     1      -8.589   0.195 131.419  0.00  0.00    +0.000 NA
BRANCH   5   7
ATOM      7  C   UNL     1      -7.768  -1.793 129.624  0.00  0.00    +0.000 A 
ATOM      8  C   UNL     1      -7.418  -1.135 128.495  0.00  0.00    +0.000 A 
ATOM      9  C   UNL     1      -7.827  -1.712 127.217  0.00  0.00    +0.000 A 
ATOM     10  C   UNL     1      -8.605  -2.942 126.968  0.00  0.00    +0.000 A 
ATOM     11  C   UNL     1      -8.894  -3.755 128.028  0.00  0.00    +0.000 A 
ATOM     12  C   UNL     1      -8.341  -3.296 129.237  0.00  0.00    +0.000 A 
BRANCH  10  13
ATOM     13  C   UNL     1      -9.361  -3.139 125.675  0.00  0.00    +0.000 C 
BRANCH  13  14
ATOM     14  N   UNL     1      -8.798  -2.379 124.559  0.00  0.00    +0.000 NA
ATOM     15  H   UNL     1      -8.352  -1.519 124.884  0.00  0.00    +0.000 HD
BRANCH  14  16
ATOM     16  C   UNL     1      -7.855  -3.201 123.841  0.00  0.00    +0.000 C 
BRANCH  16  17
ATOM     17  C   UNL     1      -6.479  -2.548 123.854  0.00  0.00    +0.000 C 
ATOM     18  C   UNL     1      -5.363  -3.574 124.056  0.00  0.00    +0.000 C 
ATOM     19  C   UNL     1      -6.330  -1.839 122.516  0.00  0.00    +0.000 C 
ENDBRANCH  16  17
ENDBRANCH  14  16
ENDBRANCH  13  14
ENDBRANCH  10  13
ENDBRANCH   5   7
ENDBRANCH   1   2
BRANCH   1  20
ATOM     20  N   UNL     1      -7.811   4.062 131.544  0.00  0.00    +0.000 NA
BRANCH  20  21
ATOM     21  C   UNL     1      -7.627   4.068 130.018  0.00  0.00    +0.000 C 
ATOM     22  C   UNL     1      -6.230   3.600 129.586  0.00  0.00    +0.000 C 
ATOM     23  C   UNL     1      -6.362   3.322 128.096  0.00  0.00    +0.000 C 
ATOM     24  C   UNL     1      -7.808   2.893 127.894  0.00  0.00    +0.000 C 
ATOM     25  C   UNL     1      -8.509   3.100 129.237  0.00  0.00    +0.000 C 
ENDBRANCH  20  21
BRANCH  20  26
ATOM     26  S   UNL     1      -8.442   5.752 131.926  0.00  0.00    +0.000 S 
ATOM     27  O   UNL     1      -7.395   6.687 131.478  0.00  0.00    +0.000 OA
ATOM     28  O   UNL     1      -8.987   5.744 133.244  0.00  0.00    +0.000 OA
BRANCH  26  32
ATOM     29  C   UNL     1     -12.018   7.337 129.575  0.00  0.00    +0.000 A 
ATOM     30  C   UNL     1     -12.053   6.017 129.891  0.00  0.00    +0.000 A 
ATOM     31  C   UNL     1     -11.009   5.413 130.692  0.00  0.00    +0.000 A 
ATOM     32  C   UNL     1      -9.783   6.039 130.921  0.00  0.00    +0.000 A 
ATOM     33  C   UNL     1      -9.519   7.051 130.164  0.00  0.00    +0.000 A 
ATOM     34  C   UNL     1     -10.685   7.661 129.763  0.00  0.00    +0.000 A 
BRANCH  29  36
ATOM     35  C   UNL     1     -13.793   7.627 127.725  0.00  0.00    +0.000 C 
ATOM     36  O   UNL     1     -13.128   7.895 128.978  0.00  0.00    +0.000 OA
ENDBRANCH  29  36
ENDBRANCH  26  32
ENDBRANCH  20  26
ENDBRANCH   1  20
TORSDOF 11
ENDMDL
MODEL 9
REMARK VINA RESULT:      -7.7      4.244      7.448
REMARK  Name = CHEMBL1643585
REMARK  14 active torsions:
REMARK  status: ('A' for Active; 'I' for Inactive)
REMARK    1  A    between atoms: C_1  and  O_2
REMARK    2  A    between atoms: O_2  and  C_3
REMARK    3  A    between atoms: C_6  and  S_7
REMARK    4  A    between atoms: S_7  and  N_10
REMARK    5  A    between atoms: N_10  and  C_11
REMARK    6  A    between atoms: N_10  and  C_29
REMARK    7  A    between atoms: C_11  and  C_12
REMARK    8  A    between atoms: C_15  and  C_16
REMARK    9  A    between atoms: C_19  and  C_20
REMARK   10  A    between atoms: C_20  and  N_21
REMARK   11  A    between atoms: N_21  and  C_22
REMARK   12  A    between atoms: C_22  and  C_23
REMARK   13  A    between atoms: C_23  and  C_24
REMARK   14  A    between atoms: C_23  and  C_25
REMARK                            x       y       z     vdW  Elec       q    Type
REMARK                         _______ _______ _______ _____ _____    ______ ____
ROOT
ATOM      1  C   UNL     1      -6.644   2.727 131.316  0.00  0.00    +0.000 C 
ENDROOT
BRANCH   1   2
ATOM      2  C   UNL     1      -7.180   1.228 131.554  0.00  0.00    +0.000 A 
ATOM      3  C   UNL     1      -7.248   0.551 132.767  0.00  0.00    +0.000 A 
ATOM      4  S   UNL     1      -7.459  -1.219 132.389  0.00  0.00    +0.000 S 
ATOM      5  C   UNL     1      -8.035  -0.852 130.631  0.00  0.00    +0.000 A 
ATOM      6  N   UNL     1      -7.965   0.505 130.545  0.00  0.00    +0.000 NA
BRANCH   5   7
ATOM      7  C   UNL     1      -7.900  -1.915 129.136  0.00  0.00    +0.000 A 
ATOM      8  C   UNL     1      -7.313  -1.428 128.018  0.00  0.00    +0.000 A 
ATOM      9  C   UNL     1      -7.613  -2.090 126.750  0.00  0.00    +0.000 A 
ATOM     10  C   UNL     1      -8.502  -3.242 126.499  0.00  0.00    +0.000 A 
ATOM     11  C   UNL     1      -9.038  -3.896 127.573  0.00  0.00    +0.000 A 
ATOM     12  C   UNL     1      -8.604  -3.375 128.805  0.00  0.00    +0.000 A 
BRANCH  10  13
ATOM     13  C   UNL     1      -9.090  -3.490 125.131  0.00  0.00    +0.000 C 
BRANCH  13  14
ATOM     14  N   UNL     1      -9.128  -2.288 124.296  0.00  0.00    +0.000 NA
ATOM     15  H   UNL     1      -8.691  -1.495 124.768  0.00  0.00    +0.000 HD
BRANCH  14  16
ATOM     16  C   UNL     1      -8.477  -2.554 123.037  0.00  0.00    +0.000 C 
BRANCH  16  17
ATOM     17  C   UNL     1      -7.329  -1.574 122.828  0.00  0.00    +0.000 C 
ATOM     18  C   UNL     1      -7.506  -0.304 123.662  0.00  0.00    +0.000 C 
ATOM     19  C   UNL     1      -6.059  -2.311 123.224  0.00  0.00    +0.000 C 
ENDBRANCH  16  17
ENDBRANCH  14  16
ENDBRANCH  13  14
ENDBRANCH  10  13
ENDBRANCH   5   7
ENDBRANCH   1   2
BRANCH   1  20
ATOM     20  N   UNL     1      -7.617   3.970 131.298  0.00  0.00    +0.000 NA
BRANCH  20  21
ATOM     21  C   UNL     1      -6.946   5.214 130.693  0.00  0.00    +0.000 C 
ATOM     22  C   UNL     1      -6.641   6.294 131.740  0.00  0.00    +0.000 C 
ATOM     23  C   UNL     1      -5.677   7.242 131.043  0.00  0.00    +0.000 C 
ATOM     24  C   UNL     1      -4.906   6.377 130.056  0.00  0.00    +0.000 C 
ATOM     25  C   UNL     1      -5.563   4.997 130.091  0.00  0.00    +0.000 C 
ENDBRANCH  20  21
BRANCH  20  26
ATOM     26  S   UNL     1      -9.204   3.820 130.371  0.00  0.00    +0.000 S 
ATOM     27  O   UNL     1     -10.107   3.040 131.235  0.00  0.00    +0.000 OA
ATOM     28  O   UNL     1      -8.906   3.476 129.019  0.00  0.00    +0.000 OA
BRANCH  26  32
ATOM     29  C   UNL     1     -11.796   7.574 130.278  0.00  0.00    +0.000 A 
ATOM     30  C   UNL     1     -10.729   7.569 129.439  0.00  0.00    +0.000 A 
ATOM     31  C   UNL     1      -9.871   6.408 129.330  0.00  0.00    +0.000 A 
ATOM     32  C   UNL     1      -9.886   5.373 130.266  0.00  0.00    +0.000 A 
ATOM     33  C   UNL     1     -10.499   5.627 131.374  0.00  0.00    +0.000 A 
ATOM     34  C   UNL     1     -11.493   6.555 131.164  0.00  0.00    +0.000 A 
BRANCH  29  36
ATOM     35  C   UNL     1     -12.998   9.552 129.138  0.00  0.00    +0.000 C 
ATOM     36  O   UNL     1     -12.683   8.627 130.200  0.00  0.00    +0.000 OA
ENDBRANCH  29  36
ENDBRANCH  26  32
ENDBRANCH  20  26
ENDBRANCH   1  20
TORSDOF 11
ENDMDL
