MODEL 1
REMARK VINA RESULT:      -9.3      0.000      0.000
REMARK  Name = CHEMBL514123
REMARK  11 active torsions:
REMARK  status: ('A' for Active; 'I' for Inactive)
REMARK    1  A    between atoms: C_1  and  O_2
REMARK    2  A    between atoms: O_2  and  C_3
REMARK    3  A    between atoms: C_6  and  N_7
REMARK    4  A    between atoms: N_7  and  C_8
REMARK    5  A    between atoms: N_7  and  S_22
REMARK    6  A    between atoms: C_8  and  C_9
REMARK    7  A    between atoms: C_12  and  C_13
REMARK    8  A    between atoms: C_18  and  C_19
REMARK    9  A    between atoms: S_22  and  C_25
REMARK   10  A    between atoms: C_27  and  C_28
REMARK   11  A    between atoms: C_30  and  C_31
REMARK                            x       y       z     vdW  Elec       q    Type
REMARK                         _______ _______ _______ _____ _____    ______ ____
ROOT
ATOM      1  N   UNL     1      -6.717   2.677 124.990  0.00  0.00    +0.000 N 
ENDROOT
BRANCH   1   5
ATOM      2  C   UNL     1      -5.448   4.288 121.229  0.00  0.00    +0.000 A 
ATOM      3  C   UNL     1      -6.305   3.198 121.224  0.00  0.00    +0.000 A 
ATOM      4  C   UNL     1      -6.727   2.626 122.445  0.00  0.00    +0.000 A 
ATOM      5  C   UNL     1      -6.316   3.163 123.658  0.00  0.00    +0.000 A 
ATOM      6  C   UNL     1      -5.624   4.351 123.476  0.00  0.00    +0.000 A 
ATOM      7  N   UNL     1      -5.098   4.887 122.352  0.00  0.00    +0.000 NA
BRANCH   2   9
ATOM      8  C   UNL     1      -5.885   5.333 119.222  0.00  0.00    +0.000 C 
ATOM      9  O   UNL     1      -4.901   4.862 120.126  0.00  0.00    +0.000 OA
ENDBRANCH   2   9
ENDBRANCH   1   5
BRANCH   1  10
ATOM     10  S   UNL     1      -8.371   2.259 125.216  0.00  0.00    +0.000 S 
ATOM     11  O   UNL     1      -8.555   2.112 126.655  0.00  0.00    +0.000 OA
ATOM     12  O   UNL     1      -9.208   3.161 124.468  0.00  0.00    +0.000 OA
BRANCH  10  13
ATOM     13  C   UNL     1      -8.701   0.621 124.611  0.00  0.00    +0.000 A 
ATOM     14  S   UNL     1      -8.009  -0.742 125.397  0.00  0.00    +0.000 S 
ATOM     15  C   UNL     1      -8.730  -1.780 124.226  0.00  0.00    +0.000 A 
ATOM     16  C   UNL     1      -8.533  -3.261 124.240  0.00  0.00    +0.000 C 
ATOM     17  N   UNL     1      -9.457  -1.169 123.316  0.00  0.00    +0.000 NA
ATOM     18  C   UNL     1      -9.407   0.200 123.501  0.00  0.00    +0.000 A 
ATOM     19  C   UNL     1     -10.075   1.075 122.506  0.00  0.00    +0.000 C 
ENDBRANCH  10  13
ENDBRANCH   1  10
BRANCH   1  20
ATOM     20  C   UNL     1      -5.737   2.120 126.012  0.00  0.00    +0.000 C 
BRANCH  20  21
ATOM     21  C   UNL     1      -4.883   3.068 126.848  0.00  0.00    +0.000 A 
ATOM     22  C   UNL     1      -3.511   2.808 127.007  0.00  0.00    +0.000 A 
ATOM     23  C   UNL     1      -2.852   3.347 128.114  0.00  0.00    +0.000 A 
ATOM     24  C   UNL     1      -3.553   4.134 129.039  0.00  0.00    +0.000 A 
ATOM     25  C   UNL     1      -4.895   4.388 128.759  0.00  0.00    +0.000 A 
ATOM     26  N   UNL     1      -5.555   3.922 127.663  0.00  0.00    +0.000 NA
BRANCH  24  27
ATOM     27  C   UNL     1      -2.894   4.736 130.203  0.00  0.00    +0.000 A 
ATOM     28  C   UNL     1      -2.977   4.152 131.482  0.00  0.00    +0.000 A 
ATOM     29  C   UNL     1      -2.420   4.791 132.593  0.00  0.00    +0.000 A 
ATOM     30  C   UNL     1      -1.767   6.011 132.440  0.00  0.00    +0.000 A 
ATOM     31  C   UNL     1      -1.665   6.594 131.178  0.00  0.00    +0.000 A 
ATOM     32  C   UNL     1      -2.223   5.969 130.056  0.00  0.00    +0.000 A 
ATOM     33  C   UNL     1      -2.138   6.646 128.713  0.00  0.00    +0.000 C 
ENDBRANCH  24  27
ENDBRANCH  20  21
ENDBRANCH   1  20
TORSDOF 7
ENDMDL
MODEL 2
REMARK VINA RESULT:      -8.9      3.294      4.494
REMARK  Name = CHEMBL514123
REMARK  11 active torsions:
REMARK  status: ('A' for Active; 'I' for Inactive)
REMARK    1  A    between atoms: C_1  and  O_2
REMARK    2  A    between atoms: O_2  and  C_3
REMARK    3  A    between atoms: C_6  and  N_7
REMARK    4  A    between atoms: N_7  and  C_8
REMARK    5  A    between atoms: N_7  and  S_22
REMARK    6  A    between atoms: C_8  and  C_9
REMARK    7  A    between atoms: C_12  and  C_13
REMARK    8  A    between atoms: C_18  and  C_19
REMARK    9  A    between atoms: S_22  and  C_25
REMARK   10  A    between atoms: C_27  and  C_28
REMARK   11  A    between atoms: C_30  and  C_31
REMARK                            x       y       z     vdW  Elec       q    Type
REMARK                         _______ _______ _______ _____ _____    ______ ____
ROOT
ATOM      1  N   UNL     1      -8.766   2.166 124.031  0.00  0.00    +0.000 N 
ENDROOT
BRANCH   1   5
ATOM      2  C   UNL     1      -6.898   3.830 120.553  0.00  0.00    +0.000 A 
ATOM      3  C   UNL     1      -6.096   3.210 121.499  0.00  0.00    +0.000 A 
ATOM      4  C   UNL     1      -6.674   2.669 122.670  0.00  0.00    +0.000 A 
ATOM      5  C   UNL     1      -8.048   2.724 122.872  0.00  0.00    +0.000 A 
ATOM      6  C   UNL     1      -8.704   3.205 121.749  0.00  0.00    +0.000 A 
ATOM      7  N   UNL     1      -8.214   3.834 120.657  0.00  0.00    +0.000 NA
BRANCH   2   9
ATOM      8  C   UNL     1      -5.361   5.330 119.717  0.00  0.00    +0.000 C 
ATOM      9  O   UNL     1      -6.451   4.468 119.441  0.00  0.00    +0.000 OA
ENDBRANCH   2   9
ENDBRANCH   1   5
BRANCH   1  10
ATOM     10  S   UNL     1      -9.405   0.577 123.875  0.00  0.00    +0.000 S 
ATOM     11  O   UNL     1     -10.303   0.392 125.010  0.00  0.00    +0.000 OA
ATOM     12  O   UNL     1      -9.885   0.372 122.533  0.00  0.00    +0.000 OA
BRANCH  10  13
ATOM     13  C   UNL     1      -8.149  -0.646 124.169  0.00  0.00    +0.000 A 
ATOM     14  S   UNL     1      -6.784  -0.745 123.129  0.00  0.00    +0.000 S 
ATOM     15  C   UNL     1      -6.202  -2.096 124.025  0.00  0.00    +0.000 A 
ATOM     16  C   UNL     1      -4.945  -2.817 123.661  0.00  0.00    +0.000 C 
ATOM     17  N   UNL     1      -6.952  -2.449 125.046  0.00  0.00    +0.000 NA
ATOM     18  C   UNL     1      -8.085  -1.659 125.106  0.00  0.00    +0.000 A 
ATOM     19  C   UNL     1      -9.116  -1.973 126.126  0.00  0.00    +0.000 C 
ENDBRANCH  10  13
ENDBRANCH   1  10
BRANCH   1  20
ATOM     20  C   UNL     1      -8.611   2.693 125.449  0.00  0.00    +0.000 C 
BRANCH  20  21
ATOM     21  C   UNL     1      -7.577   2.077 126.386  0.00  0.00    +0.000 A 
ATOM     22  C   UNL     1      -6.272   1.840 125.920  0.00  0.00    +0.000 A 
ATOM     23  C   UNL     1      -5.498   0.871 126.562  0.00  0.00    +0.000 A 
ATOM     24  C   UNL     1      -6.020   0.158 127.651  0.00  0.00    +0.000 A 
ATOM     25  C   UNL     1      -7.299   0.510 128.078  0.00  0.00    +0.000 A 
ATOM     26  N   UNL     1      -8.061   1.485 127.509  0.00  0.00    +0.000 NA
BRANCH  24  27
ATOM     27  C   UNL     1      -5.233  -0.852 128.365  0.00  0.00    +0.000 A 
ATOM     28  C   UNL     1      -5.233  -2.204 127.970  0.00  0.00    +0.000 A 
ATOM     29  C   UNL     1      -4.550  -3.165 128.720  0.00  0.00    +0.000 A 
ATOM     30  C   UNL     1      -3.852  -2.788 129.865  0.00  0.00    +0.000 A 
ATOM     31  C   UNL     1      -3.831  -1.452 130.261  0.00  0.00    +0.000 A 
ATOM     32  C   UNL     1      -4.515  -0.478 129.522  0.00  0.00    +0.000 A 
ATOM     33  C   UNL     1      -4.514   0.951 130.000  0.00  0.00    +0.000 C 
ENDBRANCH  24  27
ENDBRANCH  20  21
ENDBRANCH   1  20
TORSDOF 7
ENDMDL
MODEL 3
REMARK VINA RESULT:      -8.7      2.088      4.584
REMARK  Name = CHEMBL514123
REMARK  11 active torsions:
REMARK  status: ('A' for Active; 'I' for Inactive)
REMARK    1  A    between atoms: C_1  and  O_2
REMARK    2  A    between atoms: O_2  and  C_3
REMARK    3  A    between atoms: C_6  and  N_7
REMARK    4  A    between atoms: N_7  and  C_8
REMARK    5  A    between atoms: N_7  and  S_22
REMARK    6  A    between atoms: C_8  and  C_9
REMARK    7  A    between atoms: C_12  and  C_13
REMARK    8  A    between atoms: C_18  and  C_19
REMARK    9  A    between atoms: S_22  and  C_25
REMARK   10  A    between atoms: C_27  and  C_28
REMARK   11  A    between atoms: C_30  and  C_31
REMARK                            x       y       z     vdW  Elec       q    Type
REMARK                         _______ _______ _______ _____ _____    ______ ____
ROOT
ATOM      1  N   UNL     1      -7.483   1.830 126.359  0.00  0.00    +0.000 N 
ENDROOT
BRANCH   1   5
ATOM      2  C   UNL     1      -7.180  -2.095 124.670  0.00  0.00    +0.000 A 
ATOM      3  C   UNL     1      -8.141  -1.868 125.644  0.00  0.00    +0.000 A 
ATOM      4  C   UNL     1      -8.255  -0.592 126.240  0.00  0.00    +0.000 A 
ATOM      5  C   UNL     1      -7.433   0.453 125.839  0.00  0.00    +0.000 A 
ATOM      6  C   UNL     1      -6.670   0.100 124.736  0.00  0.00    +0.000 A 
ATOM      7  N   UNL     1      -6.433  -1.116 124.195  0.00  0.00    +0.000 NA
BRANCH   2   9
ATOM      8  C   UNL     1      -5.526  -3.589 124.084  0.00  0.00    +0.000 C 
ATOM      9  O   UNL     1      -6.912  -3.296 124.096  0.00  0.00    +0.000 OA
ENDBRANCH   2   9
ENDBRANCH   1   5
BRANCH   1  10
ATOM     10  S   UNL     1      -8.288   3.010 125.401  0.00  0.00    +0.000 S 
ATOM     11  O   UNL     1      -9.400   2.317 124.760  0.00  0.00    +0.000 OA
ATOM     12  O   UNL     1      -8.529   4.194 126.185  0.00  0.00    +0.000 OA
BRANCH  10  13
ATOM     13  C   UNL     1      -7.285   3.499 124.017  0.00  0.00    +0.000 A 
ATOM     14  S   UNL     1      -7.757   3.076 122.420  0.00  0.00    +0.000 S 
ATOM     15  C   UNL     1      -6.328   3.814 121.804  0.00  0.00    +0.000 A 
ATOM     16  C   UNL     1      -5.994   3.821 120.348  0.00  0.00    +0.000 C 
ATOM     17  N   UNL     1      -5.551   4.361 122.713  0.00  0.00    +0.000 NA
ATOM     18  C   UNL     1      -6.065   4.145 123.978  0.00  0.00    +0.000 A 
ATOM     19  C   UNL     1      -5.272   4.590 125.151  0.00  0.00    +0.000 C 
ENDBRANCH  10  13
ENDBRANCH   1  10
BRANCH   1  20
ATOM     20  C   UNL     1      -7.270   2.184 127.823  0.00  0.00    +0.000 C 
BRANCH  20  21
ATOM     21  C   UNL     1      -6.057   3.009 128.243  0.00  0.00    +0.000 A 
ATOM     22  C   UNL     1      -4.774   2.441 128.176  0.00  0.00    +0.000 A 
ATOM     23  C   UNL     1      -3.765   2.971 128.983  0.00  0.00    +0.000 A 
ATOM     24  C   UNL     1      -4.036   4.051 129.835  0.00  0.00    +0.000 A 
ATOM     25  C   UNL     1      -5.322   4.586 129.782  0.00  0.00    +0.000 A 
ATOM     26  N   UNL     1      -6.315   4.128 128.970  0.00  0.00    +0.000 NA
BRANCH  24  27
ATOM     27  C   UNL     1      -3.000   4.650 130.682  0.00  0.00    +0.000 A 
ATOM     28  C   UNL     1      -2.768   4.199 131.996  0.00  0.00    +0.000 A 
ATOM     29  C   UNL     1      -1.840   4.845 132.818  0.00  0.00    +0.000 A 
ATOM     30  C   UNL     1      -1.127   5.940 132.335  0.00  0.00    +0.000 A 
ATOM     31  C   UNL     1      -1.335   6.389 131.032  0.00  0.00    +0.000 A 
ATOM     32  C   UNL     1      -2.265   5.755 130.200  0.00  0.00    +0.000 A 
ATOM     33  C   UNL     1      -2.504   6.292 128.812  0.00  0.00    +0.000 C 
ENDBRANCH  24  27
ENDBRANCH  20  21
ENDBRANCH   1  20
TORSDOF 7
ENDMDL
MODEL 4
REMARK VINA RESULT:      -8.7      3.149      6.285
REMARK  Name = CHEMBL514123
REMARK  11 active torsions:
REMARK  status: ('A' for Active; 'I' for Inactive)
REMARK    1  A    between atoms: C_1  and  O_2
REMARK    2  A    between atoms: O_2  and  C_3
REMARK    3  A    between atoms: C_6  and  N_7
REMARK    4  A    between atoms: N_7  and  C_8
REMARK    5  A    between atoms: N_7  and  S_22
REMARK    6  A    between atoms: C_8  and  C_9
REMARK    7  A    between atoms: C_12  and  C_13
REMARK    8  A    between atoms: C_18  and  C_19
REMARK    9  A    between atoms: S_22  and  C_25
REMARK   10  A    between atoms: C_27  and  C_28
REMARK   11  A    between atoms: C_30  and  C_31
REMARK                            x       y       z     vdW  Elec       q    Type
REMARK                         _______ _______ _______ _____ _____    ______ ____
ROOT
ATOM      1  N   UNL     1      -7.919   1.798 123.747  0.00  0.00    +0.000 N 
ENDROOT
BRANCH   1   5
ATOM      2  C   UNL     1      -7.088   4.081 120.218  0.00  0.00    +0.000 A 
ATOM      3  C   UNL     1      -6.026   3.489 120.886  0.00  0.00    +0.000 A 
ATOM      4  C   UNL     1      -6.260   2.748 122.066  0.00  0.00    +0.000 A 
ATOM      5  C   UNL     1      -7.550   2.577 122.552  0.00  0.00    +0.000 A 
ATOM      6  C   UNL     1      -8.493   3.072 121.664  0.00  0.00    +0.000 A 
ATOM      7  N   UNL     1      -8.338   3.879 120.590  0.00  0.00    +0.000 NA
BRANCH   2   9
ATOM      8  C   UNL     1      -5.692   5.472 119.024  0.00  0.00    +0.000 C 
ATOM      9  O   UNL     1      -6.980   4.892 119.135  0.00  0.00    +0.000 OA
ENDBRANCH   2   9
ENDBRANCH   1   5
BRANCH   1  10
ATOM     10  S   UNL     1      -8.235   2.672 125.195  0.00  0.00    +0.000 S 
ATOM     11  O   UNL     1      -8.294   4.079 124.811  0.00  0.00    +0.000 OA
ATOM     12  O   UNL     1      -9.335   2.068 125.900  0.00  0.00    +0.000 OA
BRANCH  10  13
ATOM     13  C   UNL     1      -6.831   2.625 126.284  0.00  0.00    +0.000 A 
ATOM     14  S   UNL     1      -5.309   3.220 125.753  0.00  0.00    +0.000 S 
ATOM     15  C   UNL     1      -4.607   2.765 127.259  0.00  0.00    +0.000 A 
ATOM     16  C   UNL     1      -3.157   2.962 127.559  0.00  0.00    +0.000 C 
ATOM     17  N   UNL     1      -5.443   2.224 128.118  0.00  0.00    +0.000 NA
ATOM     18  C   UNL     1      -6.698   2.098 127.554  0.00  0.00    +0.000 A 
ATOM     19  C   UNL     1      -7.758   1.404 128.328  0.00  0.00    +0.000 C 
ENDBRANCH  10  13
ENDBRANCH   1  10
BRANCH   1  20
ATOM     20  C   UNL     1      -8.450   0.374 123.691  0.00  0.00    +0.000 C 
BRANCH  20  21
ATOM     21  C   UNL     1      -7.879  -0.693 124.620  0.00  0.00    +0.000 A 
ATOM     22  C   UNL     1      -8.741  -1.408 125.468  0.00  0.00    +0.000 A 
ATOM     23  C   UNL     1      -8.211  -1.997 126.618  0.00  0.00    +0.000 A 
ATOM     24  C   UNL     1      -6.844  -1.875 126.909  0.00  0.00    +0.000 A 
ATOM     25  C   UNL     1      -6.061  -1.201 125.973  0.00  0.00    +0.000 A 
ATOM     26  N   UNL     1      -6.535  -0.660 124.817  0.00  0.00    +0.000 NA
BRANCH  24  27
ATOM     27  C   UNL     1      -6.245  -2.495 128.094  0.00  0.00    +0.000 A 
ATOM     28  C   UNL     1      -4.861  -2.424 128.345  0.00  0.00    +0.000 A 
ATOM     29  C   UNL     1      -4.298  -3.102 129.431  0.00  0.00    +0.000 A 
ATOM     30  C   UNL     1      -5.110  -3.847 130.282  0.00  0.00    +0.000 A 
ATOM     31  C   UNL     1      -6.484  -3.915 130.055  0.00  0.00    +0.000 A 
ATOM     32  C   UNL     1      -7.060  -3.246 128.969  0.00  0.00    +0.000 A 
ATOM     33  C   UNL     1      -8.541  -3.376 128.720  0.00  0.00    +0.000 C 
ENDBRANCH  24  27
ENDBRANCH  20  21
ENDBRANCH   1  20
TORSDOF 7
ENDMDL
MODEL 5
REMARK VINA RESULT:      -8.5      4.250      7.909
REMARK  Name = CHEMBL514123
REMARK  11 active torsions:
REMARK  status: ('A' for Active; 'I' for Inactive)
REMARK    1  A    between atoms: C_1  and  O_2
REMARK    2  A    between atoms: O_2  and  C_3
REMARK    3  A    between atoms: C_6  and  N_7
REMARK    4  A    between atoms: N_7  and  C_8
REMARK    5  A    between atoms: N_7  and  S_22
REMARK    6  A    between atoms: C_8  and  C_9
REMARK    7  A    between atoms: C_12  and  C_13
REMARK    8  A    between atoms: C_18  and  C_19
REMARK    9  A    between atoms: S_22  and  C_25
REMARK   10  A    between atoms: C_27  and  C_28
REMARK   11  A    between atoms: C_30  and  C_31
REMARK                            x       y       z     vdW  Elec       q    Type
REMARK                         _______ _______ _______ _____ _____    ______ ____
ROOT
ATOM      1  N   UNL     1      -7.880   1.830 127.897  0.00  0.00    +0.000 N 
ENDROOT
BRANCH   1   5
ATOM      2  C   UNL     1      -8.989   4.953 130.612  0.00  0.00    +0.000 A 
ATOM      3  C   UNL     1      -9.459   3.670 130.854  0.00  0.00    +0.000 A 
ATOM      4  C   UNL     1      -9.132   2.620 129.967  0.00  0.00    +0.000 A 
ATOM      5  C   UNL     1      -8.316   2.849 128.867  0.00  0.00    +0.000 A 
ATOM      6  C   UNL     1      -7.791   4.132 128.887  0.00  0.00    +0.000 A 
ATOM      7  N   UNL     1      -8.144   5.205 129.630  0.00  0.00    +0.000 NA
BRANCH   2   9
ATOM      8  C   UNL     1      -8.986   5.915 132.705  0.00  0.00    +0.000 C 
ATOM      9  O   UNL     1      -9.312   6.056 131.334  0.00  0.00    +0.000 OA
ENDBRANCH   2   9
ENDBRANCH   1   5
BRANCH   1  10
ATOM     10  S   UNL     1      -6.541   0.843 128.334  0.00  0.00    +0.000 S 
ATOM     11  O   UNL     1      -5.349   1.639 128.060  0.00  0.00    +0.000 OA
ATOM     12  O   UNL     1      -6.753   0.285 129.644  0.00  0.00    +0.000 OA
BRANCH  10  13
ATOM     13  C   UNL     1      -6.364  -0.523 127.210  0.00  0.00    +0.000 A 
ATOM     14  S   UNL     1      -5.332  -0.384 125.843  0.00  0.00    +0.000 S 
ATOM     15  C   UNL     1      -5.781  -1.970 125.345  0.00  0.00    +0.000 A 
ATOM     16  C   UNL     1      -5.256  -2.596 124.094  0.00  0.00    +0.000 C 
ATOM     17  N   UNL     1      -6.627  -2.584 126.144  0.00  0.00    +0.000 NA
ATOM     18  C   UNL     1      -6.999  -1.749 127.182  0.00  0.00    +0.000 A 
ATOM     19  C   UNL     1      -8.037  -2.219 128.133  0.00  0.00    +0.000 C 
ENDBRANCH  10  13
ENDBRANCH   1  10
BRANCH   1  20
ATOM     20  C   UNL     1      -8.761   1.309 126.771  0.00  0.00    +0.000 C 
BRANCH  20  21
ATOM     21  C   UNL     1      -8.602   1.859 125.358  0.00  0.00    +0.000 A 
ATOM     22  C   UNL     1      -8.225   0.996 124.315  0.00  0.00    +0.000 A 
ATOM     23  C   UNL     1      -7.618   1.542 123.181  0.00  0.00    +0.000 A 
ATOM     24  C   UNL     1      -7.400   2.924 123.094  0.00  0.00    +0.000 A 
ATOM     25  C   UNL     1      -7.868   3.703 124.150  0.00  0.00    +0.000 A 
ATOM     26  N   UNL     1      -8.509   3.210 125.246  0.00  0.00    +0.000 NA
BRANCH  24  27
ATOM     27  C   UNL     1      -6.785   3.539 121.912  0.00  0.00    +0.000 A 
ATOM     28  C   UNL     1      -5.440   3.956 121.912  0.00  0.00    +0.000 A 
ATOM     29  C   UNL     1      -4.902   4.624 120.808  0.00  0.00    +0.000 A 
ATOM     30  C   UNL     1      -5.695   4.873 119.691  0.00  0.00    +0.000 A 
ATOM     31  C   UNL     1      -7.024   4.452 119.671  0.00  0.00    +0.000 A 
ATOM     32  C   UNL     1      -7.579   3.787 120.771  0.00  0.00    +0.000 A 
ATOM     33  C   UNL     1      -9.031   3.387 120.740  0.00  0.00    +0.000 C 
ENDBRANCH  24  27
ENDBRANCH  20  21
ENDBRANCH   1  20
TORSDOF 7
ENDMDL
MODEL 6
REMARK VINA RESULT:      -8.5      5.202      9.057
REMARK  Name = CHEMBL514123
REMARK  11 active torsions:
REMARK  status: ('A' for Active; 'I' for Inactive)
REMARK    1  A    between atoms: C_1  and  O_2
REMARK    2  A    between atoms: O_2  and  C_3
REMARK    3  A    between atoms: C_6  and  N_7
REMARK    4  A    between atoms: N_7  and  C_8
REMARK    5  A    between atoms: N_7  and  S_22
REMARK    6  A    between atoms: C_8  and  C_9
REMARK    7  A    between atoms: C_12  and  C_13
REMARK    8  A    between atoms: C_18  and  C_19
REMARK    9  A    between atoms: S_22  and  C_25
REMARK   10  A    between atoms: C_27  and  C_28
REMARK   11  A    between atoms: C_30  and  C_31
REMARK                            x       y       z     vdW  Elec       q    Type
REMARK                         _______ _______ _______ _____ _____    ______ ____
ROOT
ATOM      1  N   UNL     1      -7.344   4.444 131.486  0.00  0.00    +0.000 N 
ENDROOT
BRANCH   1   5
ATOM      2  C   UNL     1     -11.258   6.169 131.727  0.00  0.00    +0.000 A 
ATOM      3  C   UNL     1     -11.004   5.246 130.723  0.00  0.00    +0.000 A 
ATOM      4  C   UNL     1      -9.719   4.673 130.599  0.00  0.00    +0.000 A 
ATOM      5  C   UNL     1      -8.708   5.001 131.493  0.00  0.00    +0.000 A 
ATOM      6  C   UNL     1      -9.187   5.784 132.532  0.00  0.00    +0.000 A 
ATOM      7  N   UNL     1     -10.358   6.449 132.651  0.00  0.00    +0.000 NA
BRANCH   2   9
ATOM      8  C   UNL     1     -12.928   7.345 130.660  0.00  0.00    +0.000 C 
ATOM      9  O   UNL     1     -12.418   6.855 131.888  0.00  0.00    +0.000 OA
ENDBRANCH   2   9
ENDBRANCH   1   5
BRANCH   1  10
ATOM     10  S   UNL     1      -6.078   5.457 130.910  0.00  0.00    +0.000 S 
ATOM     11  O   UNL     1      -6.731   6.570 130.230  0.00  0.00    +0.000 OA
ATOM     12  O   UNL     1      -5.135   5.709 131.969  0.00  0.00    +0.000 OA
BRANCH  10  13
ATOM     13  C   UNL     1      -5.181   4.668 129.593  0.00  0.00    +0.000 A 
ATOM     14  S   UNL     1      -3.481   4.879 129.464  0.00  0.00    +0.000 S 
ATOM     15  C   UNL     1      -3.474   3.926 128.029  0.00  0.00    +0.000 A 
ATOM     16  C   UNL     1      -2.227   3.661 127.250  0.00  0.00    +0.000 C 
ATOM     17  N   UNL     1      -4.649   3.457 127.670  0.00  0.00    +0.000 NA
ATOM     18  C   UNL     1      -5.632   3.915 128.527  0.00  0.00    +0.000 A 
ATOM     19  C   UNL     1      -7.047   3.587 128.224  0.00  0.00    +0.000 C 
ENDBRANCH  10  13
ENDBRANCH   1  10
BRANCH   1  20
ATOM     20  C   UNL     1      -6.920   3.248 132.324  0.00  0.00    +0.000 C 
BRANCH  20  21
ATOM     21  C   UNL     1      -7.017   1.838 131.750  0.00  0.00    +0.000 A 
ATOM     22  C   UNL     1      -5.915   1.285 131.077  0.00  0.00    +0.000 A 
ATOM     23  C   UNL     1      -6.138   0.256 130.159  0.00  0.00    +0.000 A 
ATOM     24  C   UNL     1      -7.440  -0.212 129.926  0.00  0.00    +0.000 A 
ATOM     25  C   UNL     1      -8.458   0.356 130.689  0.00  0.00    +0.000 A 
ATOM     26  N   UNL     1      -8.269   1.324 131.629  0.00  0.00    +0.000 NA
BRANCH  24  27
ATOM     27  C   UNL     1      -7.714  -1.304 128.986  0.00  0.00    +0.000 A 
ATOM     28  C   UNL     1      -7.947  -1.061 127.619  0.00  0.00    +0.000 A 
ATOM     29  C   UNL     1      -8.299  -2.106 126.760  0.00  0.00    +0.000 A 
ATOM     30  C   UNL     1      -8.412  -3.403 127.252  0.00  0.00    +0.000 A 
ATOM     31  C   UNL     1      -8.171  -3.662 128.601  0.00  0.00    +0.000 A 
ATOM     32  C   UNL     1      -7.823  -2.624 129.474  0.00  0.00    +0.000 A 
ATOM     33  C   UNL     1      -7.615  -2.925 130.936  0.00  0.00    +0.000 C 
ENDBRANCH  24  27
ENDBRANCH  20  21
ENDBRANCH   1  20
TORSDOF 7
ENDMDL
MODEL 7
REMARK VINA RESULT:      -8.5      3.315      9.071
REMARK  Name = CHEMBL514123
REMARK  11 active torsions:
REMARK  status: ('A' for Active; 'I' for Inactive)
REMARK    1  A    between atoms: C_1  and  O_2
REMARK    2  A    between atoms: O_2  and  C_3
REMARK    3  A    between atoms: C_6  and  N_7
REMARK    4  A    between atoms: N_7  and  C_8
REMARK    5  A    between atoms: N_7  and  S_22
REMARK    6  A    between atoms: C_8  and  C_9
REMARK    7  A    between atoms: C_12  and  C_13
REMARK    8  A    between atoms: C_18  and  C_19
REMARK    9  A    between atoms: S_22  and  C_25
REMARK   10  A    between atoms: C_27  and  C_28
REMARK   11  A    between atoms: C_30  and  C_31
REMARK                            x       y       z     vdW  Elec       q    Type
REMARK                         _______ _______ _______ _____ _____    ______ ____
ROOT
ATOM      1  N   UNL     1      -5.421   2.506 127.849  0.00  0.00    +0.000 N 
ENDROOT
BRANCH   1   5
ATOM      2  C   UNL     1      -9.231   3.117 129.710  0.00  0.00    +0.000 A 
ATOM      3  C   UNL     1      -8.506   1.983 130.047  0.00  0.00    +0.000 A 
ATOM      4  C   UNL     1      -7.256   1.737 129.436  0.00  0.00    +0.000 A 
ATOM      5  C   UNL     1      -6.726   2.637 128.520  0.00  0.00    +0.000 A 
ATOM      6  C   UNL     1      -7.488   3.792 128.449  0.00  0.00    +0.000 A 
ATOM      7  N   UNL     1      -8.734   4.043 128.912  0.00  0.00    +0.000 NA
BRANCH   2   9
ATOM      8  C   UNL     1     -10.523   4.644 130.854  0.00  0.00    +0.000 C 
ATOM      9  O   UNL     1     -10.479   3.412 130.155  0.00  0.00    +0.000 OA
ENDBRANCH   2   9
ENDBRANCH   1   5
BRANCH   1  10
ATOM     10  S   UNL     1      -4.012   2.595 128.832  0.00  0.00    +0.000 S 
ATOM     11  O   UNL     1      -4.098   1.472 129.759  0.00  0.00    +0.000 OA
ATOM     12  O   UNL     1      -2.847   2.760 128.001  0.00  0.00    +0.000 OA
BRANCH  10  13
ATOM     13  C   UNL     1      -4.081   4.002 129.916  0.00  0.00    +0.000 A 
ATOM     14  S   UNL     1      -4.329   3.777 131.601  0.00  0.00    +0.000 S 
ATOM     15  C   UNL     1      -4.324   5.485 131.827  0.00  0.00    +0.000 A 
ATOM     16  C   UNL     1      -4.534   6.117 133.165  0.00  0.00    +0.000 C 
ATOM     17  N   UNL     1      -4.131   6.188 130.733  0.00  0.00    +0.000 NA
ATOM     18  C   UNL     1      -4.038   5.353 129.635  0.00  0.00    +0.000 A 
ATOM     19  C   UNL     1      -3.930   5.963 128.286  0.00  0.00    +0.000 C 
ENDBRANCH  10  13
ENDBRANCH   1  10
BRANCH   1  20
ATOM     20  C   UNL     1      -5.243   1.884 126.472  0.00  0.00    +0.000 C 
BRANCH  20  21
ATOM     21  C   UNL     1      -6.156   2.297 125.322  0.00  0.00    +0.000 A 
ATOM     22  C   UNL     1      -6.603   1.327 124.408  0.00  0.00    +0.000 A 
ATOM     23  C   UNL     1      -7.003   1.742 123.135  0.00  0.00    +0.000 A 
ATOM     24  C   UNL     1      -6.959   3.100 122.789  0.00  0.00    +0.000 A 
ATOM     25  C   UNL     1      -6.562   3.990 123.784  0.00  0.00    +0.000 A 
ATOM     26  N   UNL     1      -6.216   3.626 125.050  0.00  0.00    +0.000 NA
BRANCH  24  27
ATOM     27  C   UNL     1      -7.389   3.578 121.471  0.00  0.00    +0.000 A 
ATOM     28  C   UNL     1      -8.749   3.613 121.105  0.00  0.00    +0.000 A 
ATOM     29  C   UNL     1      -9.129   3.983 119.813  0.00  0.00    +0.000 A 
ATOM     30  C   UNL     1      -8.160   4.332 118.875  0.00  0.00    +0.000 A 
ATOM     31  C   UNL     1      -6.812   4.316 119.226  0.00  0.00    +0.000 A 
ATOM     32  C   UNL     1      -6.415   3.942 120.516  0.00  0.00    +0.000 A 
ATOM     33  C   UNL     1      -4.947   3.888 120.853  0.00  0.00    +0.000 C 
ENDBRANCH  24  27
ENDBRANCH  20  21
ENDBRANCH   1  20
TORSDOF 7
ENDMDL
MODEL 8
REMARK VINA RESULT:      -8.5      4.297      9.108
REMARK  Name = CHEMBL514123
REMARK  11 active torsions:
REMARK  status: ('A' for Active; 'I' for Inactive)
REMARK    1  A    between atoms: C_1  and  O_2
REMARK    2  A    between atoms: O_2  and  C_3
REMARK    3  A    between atoms: C_6  and  N_7
REMARK    4  A    between atoms: N_7  and  C_8
REMARK    5  A    between atoms: N_7  and  S_22
REMARK    6  A    between atoms: C_8  and  C_9
REMARK    7  A    between atoms: C_12  and  C_13
REMARK    8  A    between atoms: C_18  and  C_19
REMARK    9  A    between atoms: S_22  and  C_25
REMARK   10  A    between atoms: C_27  and  C_28
REMARK   11  A    between atoms: C_30  and  C_31
REMARK                            x       y       z     vdW  Elec       q    Type
REMARK                         _______ _______ _______ _____ _____    ______ ____
ROOT
ATOM      1  N   UNL     1      -7.247   3.688 129.842  0.00  0.00    +0.000 N 
ENDROOT
BRANCH   1   5
ATOM      2  C   UNL     1     -10.745   5.719 131.254  0.00  0.00    +0.000 A 
ATOM      3  C   UNL     1      -9.691   5.530 132.135  0.00  0.00    +0.000 A 
ATOM      4  C   UNL     1      -8.530   4.845 131.712  0.00  0.00    +0.000 A 
ATOM      5  C   UNL     1      -8.418   4.382 130.407  0.00  0.00    +0.000 A 
ATOM      6  C   UNL     1      -9.473   4.820 129.623  0.00  0.00    +0.000 A 
ATOM      7  N   UNL     1     -10.653   5.374 129.983  0.00  0.00    +0.000 NA
BRANCH   2   9
ATOM      8  C   UNL     1     -12.488   7.022 130.496  0.00  0.00    +0.000 C 
ATOM      9  O   UNL     1     -11.943   6.275 131.569  0.00  0.00    +0.000 OA
ENDBRANCH   2   9
ENDBRANCH   1   5
BRANCH   1  10
ATOM     10  S   UNL     1      -5.742   4.522 129.874  0.00  0.00    +0.000 S 
ATOM     11  O   UNL     1      -6.050   5.920 129.593  0.00  0.00    +0.000 OA
ATOM     12  O   UNL     1      -5.013   4.167 131.064  0.00  0.00    +0.000 OA
BRANCH  10  13
ATOM     13  C   UNL     1      -4.730   4.060 128.488  0.00  0.00    +0.000 A 
ATOM     14  S   UNL     1      -3.088   3.615 128.731  0.00  0.00    +0.000 S 
ATOM     15  C   UNL     1      -2.891   3.417 127.032  0.00  0.00    +0.000 A 
ATOM     16  C   UNL     1      -1.587   3.027 126.416  0.00  0.00    +0.000 C 
ATOM     17  N   UNL     1      -3.973   3.643 126.319  0.00  0.00    +0.000 NA
ATOM     18  C   UNL     1      -5.009   4.055 127.135  0.00  0.00    +0.000 A 
ATOM     19  C   UNL     1      -6.288   4.468 126.505  0.00  0.00    +0.000 C 
ENDBRANCH  10  13
ENDBRANCH   1  10
BRANCH   1  20
ATOM     20  C   UNL     1      -7.178   2.182 129.642  0.00  0.00    +0.000 C 
BRANCH  20  21
ATOM     21  C   UNL     1      -7.414   1.583 128.259  0.00  0.00    +0.000 A 
ATOM     22  C   UNL     1      -8.690   1.665 127.676  0.00  0.00    +0.000 A 
ATOM     23  C   UNL     1      -9.037   0.737 126.691  0.00  0.00    +0.000 A 
ATOM     24  C   UNL     1      -8.121  -0.250 126.297  0.00  0.00    +0.000 A 
ATOM     25  C   UNL     1      -6.860  -0.209 126.888  0.00  0.00    +0.000 A 
ATOM     26  N   UNL     1      -6.471   0.713 127.812  0.00  0.00    +0.000 NA
BRANCH  24  27
ATOM     27  C   UNL     1      -8.439  -1.229 125.253  0.00  0.00    +0.000 A 
ATOM     28  C   UNL     1      -8.520  -0.862 123.896  0.00  0.00    +0.000 A 
ATOM     29  C   UNL     1      -8.915  -1.790 122.929  0.00  0.00    +0.000 A 
ATOM     30  C   UNL     1      -9.224  -3.096 123.303  0.00  0.00    +0.000 A 
ATOM     31  C   UNL     1      -9.134  -3.478 124.641  0.00  0.00    +0.000 A 
ATOM     32  C   UNL     1      -8.745  -2.557 125.621  0.00  0.00    +0.000 A 
ATOM     33  C   UNL     1      -8.703  -2.986 127.065  0.00  0.00    +0.000 C 
ENDBRANCH  24  27
ENDBRANCH  20  21
ENDBRANCH   1  20
TORSDOF 7
ENDMDL
MODEL 9
REMARK VINA RESULT:      -8.5      6.023      8.960
REMARK  Name = CHEMBL514123
REMARK  11 active torsions:
REMARK  status: ('A' for Active; 'I' for Inactive)
REMARK    1  A    between atoms: C_1  and  O_2
REMARK    2  A    between atoms: O_2  and  C_3
REMARK    3  A    between atoms: C_6  and  N_7
REMARK    4  A    between atoms: N_7  and  C_8
REMARK    5  A    between atoms: N_7  and  S_22
REMARK    6  A    between atoms: C_8  and  C_9
REMARK    7  A    between atoms: C_12  and  C_13
REMARK    8  A    between atoms: C_18  and  C_19
REMARK    9  A    between atoms: S_22  and  C_25
REMARK   10  A    between atoms: C_27  and  C_28
REMARK   11  A    between atoms: C_30  and  C_31
REMARK                            x       y       z     vdW  Elec       q    Type
REMARK                         _______ _______ _______ _____ _____    ______ ____
ROOT
ATOM      1  N   UNL     1      -9.102   5.148 132.024  0.00  0.00    +0.000 N 
ENDROOT
BRANCH   1   5
ATOM      2  C   UNL     1     -12.460   6.540 129.757  0.00  0.00    +0.000 A 
ATOM      3  C   UNL     1     -12.349   6.935 131.082  0.00  0.00    +0.000 A 
ATOM      4  C   UNL     1     -11.267   6.478 131.867  0.00  0.00    +0.000 A 
ATOM      5  C   UNL     1     -10.290   5.657 131.317  0.00  0.00    +0.000 A 
ATOM      6  C   UNL     1     -10.458   5.520 129.948  0.00  0.00    +0.000 A 
ATOM      7  N   UNL     1     -11.516   5.832 129.165  0.00  0.00    +0.000 NA
BRANCH   2   9
ATOM      8  C   UNL     1     -13.122   7.713 127.887  0.00  0.00    +0.000 C 
ATOM      9  O   UNL     1     -13.498   6.835 128.934  0.00  0.00    +0.000 OA
ENDBRANCH   2   9
ENDBRANCH   1   5
BRANCH   1  10
ATOM     10  S   UNL     1      -7.621   5.992 131.792  0.00  0.00    +0.000 S 
ATOM     11  O   UNL     1      -7.976   7.263 131.170  0.00  0.00    +0.000 OA
ATOM     12  O   UNL     1      -6.852   5.972 133.010  0.00  0.00    +0.000 OA
BRANCH  10  13
ATOM     13  C   UNL     1      -6.632   5.207 130.541  0.00  0.00    +0.000 A 
ATOM     14  S   UNL     1      -7.159   3.738 129.823  0.00  0.00    +0.000 S 
ATOM     15  C   UNL     1      -5.716   3.681 128.884  0.00  0.00    +0.000 A 
ATOM     16  C   UNL     1      -5.417   2.560 127.942  0.00  0.00    +0.000 C 
ATOM     17  N   UNL     1      -4.896   4.693 129.067  0.00  0.00    +0.000 NA
ATOM     18  C   UNL     1      -5.388   5.540 130.042  0.00  0.00    +0.000 A 
ATOM     19  C   UNL     1      -4.550   6.687 130.473  0.00  0.00    +0.000 C 
ENDBRANCH  10  13
ENDBRANCH   1  10
BRANCH   1  20
ATOM     20  C   UNL     1      -9.174   4.236 133.240  0.00  0.00    +0.000 C 
BRANCH  20  21
ATOM     21  C   UNL     1      -8.899   2.743 133.093  0.00  0.00    +0.000 A 
ATOM     22  C   UNL     1      -7.602   2.250 133.316  0.00  0.00    +0.000 A 
ATOM     23  C   UNL     1      -7.238   1.036 132.730  0.00  0.00    +0.000 A 
ATOM     24  C   UNL     1      -8.157   0.328 131.941  0.00  0.00    +0.000 A 
ATOM     25  C   UNL     1      -9.438   0.867 131.834  0.00  0.00    +0.000 A 
ATOM     26  N   UNL     1      -9.842   2.021 132.433  0.00  0.00    +0.000 NA
BRANCH  24  27
ATOM     27  C   UNL     1      -7.821  -0.959 131.326  0.00  0.00    +0.000 A 
ATOM     28  C   UNL     1      -7.561  -2.104 132.104  0.00  0.00    +0.000 A 
ATOM     29  C   UNL     1      -7.151  -3.297 131.501  0.00  0.00    +0.000 A 
ATOM     30  C   UNL     1      -7.007  -3.363 130.117  0.00  0.00    +0.000 A 
ATOM     31  C   UNL     1      -7.275  -2.243 129.333  0.00  0.00    +0.000 A 
ATOM     32  C   UNL     1      -7.681  -1.040 129.923  0.00  0.00    +0.000 A 
ATOM     33  C   UNL     1      -7.917   0.169 129.055  0.00  0.00    +0.000 C 
ENDBRANCH  24  27
ENDBRANCH  20  21
ENDBRANCH   1  20
TORSDOF 7
ENDMDL
