MODEL 1
REMARK VINA RESULT:      -8.4      0.000      0.000
REMARK  Name = CHEMBL1765668
REMARK  34 active torsions:
REMARK  status: ('A' for Active; 'I' for Inactive)
REMARK    1  A    between atoms: CD1_1  and  CG_2
REMARK    2  A    between atoms: CG_2  and  CD2_3
REMARK    3  A    between atoms: CG_2  and  CB_4
REMARK    4  A    between atoms: CB_4  and  CA_5
REMARK    5  A    between atoms: CA_9  and  CB_10
REMARK    6  A    between atoms: CB_10  and  CG_11
REMARK    7  A    between atoms: CA_20  and  CB_21
REMARK    8  A    between atoms: CB_21  and  CG_22
REMARK    9  A    between atoms: CZ_25  and  OH_26
REMARK   10  A    between atoms: C_37  and  C_38
REMARK   11  A    between atoms: CA_44  and  C_45
REMARK   12  A    between atoms: N_47  and  C_48
REMARK   13  A    between atoms: C_48  and  C_49
REMARK   14  A    between atoms: C_48  and  C_67
REMARK   15  A    between atoms: C_49  and  C_50
REMARK   16  A    between atoms: C_50  and  C_51
REMARK   17  A    between atoms: C_51  and  C_52
REMARK   18  A    between atoms: C_52  and  N_53
REMARK   19  A    between atoms: C_54  and  C_56
REMARK   20  A    between atoms: C_56  and  C_57
REMARK   21  A    between atoms: C_57  and  C_58
REMARK   22  A    between atoms: C_58  and  C_59
REMARK   23  A    between atoms: C_59  and  C_60
REMARK   24  A    between atoms: C_60  and  C_61
REMARK   25  A    between atoms: C_61  and  C_62
REMARK   26  A    between atoms: C_62  and  C_63
REMARK   27  A    between atoms: C_63  and  C_64
REMARK   28  A    between atoms: C_64  and  C_65
REMARK   29  A    between atoms: C_65  and  N_66
REMARK   30  A    between atoms: N_69  and  CA_70
REMARK   31  A    between atoms: CA_70  and  C_71
REMARK   32  A    between atoms: C_71  and  OXT_73
REMARK   33  A    between atoms: CA_77  and  CB_78
REMARK   34  A    between atoms: CB_78  and  CG_79
REMARK                            x       y       z     vdW  Elec       q    Type
REMARK                         _______ _______ _______ _____ _____    ______ ____
ROOT
ATOM      1  CA  TYR A   1      -7.506   2.389 128.598  0.00  0.00    +0.000 C 
ATOM      2  N   TYR A   1      -8.026   1.138 127.959  0.00  0.00    +0.000 N 
ATOM      3  C   TYR A   1      -7.500  -0.127 128.107  0.00  0.00    +0.000 C 
ATOM      4  O   TYR A   1      -8.224  -1.001 128.617  0.00  0.00    +0.000 OA
ATOM      5  CA  TYR A   1      -5.964  -0.448 127.802  0.00  0.00    +0.000 C 
ATOM      6  N   TYR A   1      -4.775  -0.538 128.703  0.00  0.00    +0.000 N 
ATOM      7  C   TYR A   1      -4.389  -1.567 129.665  0.00  0.00    +0.000 C 
ATOM      8  O   TYR A   1      -3.179  -1.581 129.937  0.00  0.00    +0.000 OA
ATOM      9  CA  TYR A   1      -5.556  -2.633 130.645  0.00  0.00    +0.000 C 
ATOM     10  N   TYR A   1      -4.731  -3.728 131.016  0.00  0.00    +0.000 N 
ATOM     11  C   UNK A   0      -3.705  -3.628 131.914  0.00  0.00    +0.000 C 
ATOM     12  O   UNK A   0      -2.884  -4.527 131.871  0.00  0.00    +0.000 OA
ATOM     13  C   UNK A   0      -3.577  -2.502 133.004  0.00  0.00    +0.000 C 
ATOM     14  C   UNK A   0      -4.343  -1.197 133.055  0.00  0.00    +0.000 C 
ATOM     15  S   UNK A   3      -4.032   0.201 134.218  0.00  0.00    +0.000 S 
ATOM     16  S   UNK A   3      -5.946   1.088 134.336  0.00  0.00    +0.000 S 
ATOM     17  C   UNK A   3      -5.704   2.926 134.483  0.00  0.00    +0.000 C 
ATOM     18  C   UNK A   3      -6.780   4.015 134.252  0.00  0.00    +0.000 C 
ATOM     19  N   UNK A   3      -6.609   4.684 132.943  0.00  0.00    +0.000 N 
ATOM     20  C   ASN A   2      -6.616   4.098 131.754  0.00  0.00    +0.000 C 
ATOM     21  O   ASN A   2      -6.297   4.743 130.690  0.00  0.00    +0.000 OA
ATOM     22  CA  ASN A   2      -7.104   2.696 131.661  0.00  0.00    +0.000 C 
ATOM     23  N   ASN A   2      -8.288   2.947 130.904  0.00  0.00    +0.000 N 
ATOM     24  C   TYR A   1      -8.564   2.929 129.585  0.00  0.00    +0.000 C 
ATOM     25  O   TYR A   1      -9.762   3.055 129.308  0.00  0.00    +0.000 OA
ATOM     26  H   TYR A   1      -9.044   1.062 128.028  0.00  0.00    +0.000 HD
ATOM     27  H   TYR A   1      -4.367   0.367 128.959  0.00  0.00    +0.000 HD
ATOM     28  H   TYR A   1      -4.545  -4.402 130.272  0.00  0.00    +0.000 HD
ATOM     29  H   UNK A   3      -6.426   5.688 132.922  0.00  0.00    +0.000 HD
ATOM     30  H   ASN A   2      -9.088   3.093 131.514  0.00  0.00    +0.000 HD
ENDROOT
BRANCH  18  31
ATOM     31  C   UNK A   3      -6.780   5.157 135.342  0.00  0.00    +0.000 C 
ATOM     32  O   UNK A   3      -7.817   5.382 135.982  0.00  0.00    +0.000 OA
ATOM     33  N   PRO A   4      -5.563   5.697 135.731  0.00  0.00    +0.000 N 
ATOM     34  CD  PRO A   4      -4.488   6.238 134.916  0.00  0.00    +0.000 C 
ATOM     35  CG  PRO A   4      -3.285   5.870 135.734  0.00  0.00    +0.000 C 
ATOM     36  CB  PRO A   4      -3.727   6.277 137.126  0.00  0.00    +0.000 C 
ATOM     37  CA  PRO A   4      -5.260   6.075 137.138  0.00  0.00    +0.000 C 
BRANCH  37  38
ATOM     38  C   PRO A   4      -5.827   7.446 137.557  0.00  0.00    +0.000 C 
ATOM     39  O   PRO A   4      -6.829   7.898 137.001  0.00  0.00    +0.000 OA
ATOM     40  N   UNK A   5      -5.110   8.171 138.506  0.00  0.00    +0.000 N 
ATOM     41  H   UNK A   5      -4.145   7.935 138.718  0.00  0.00    +0.000 HD
BRANCH  40  42
ATOM     42  C   UNK A   5      -5.630   9.417 139.138  0.00  0.00    +0.000 C 
BRANCH  42  43
ATOM     43  C   UNK A   5      -7.144   9.269 139.536  0.00  0.00    +0.000 C 
ATOM     44  O   UNK A   5      -7.486   8.605 140.518  0.00  0.00    +0.000 OA
ATOM     45  N   GLY A   6      -8.082   9.914 138.746  0.00  0.00    +0.000 N 
ATOM     46  H   GLY A   6      -7.803  10.475 137.945  0.00  0.00    +0.000 HD
BRANCH  45  47
ATOM     47  CA  GLY A   6      -9.531   9.830 138.998  0.00  0.00    +0.000 C 
BRANCH  47  48
ATOM     48  C   GLY A   6     -10.277   9.223 137.806  0.00  0.00    +0.000 C 
ATOM     49  O   GLY A   6     -11.446   8.860 137.863  0.00  0.00    +0.000 OA
BRANCH  48  50
ATOM     50  OXT GLY A   6      -9.559   9.113 136.664  0.00  0.00    +0.000 OA
ATOM     51  HXT GLY A   6      -8.943   9.839 136.446  0.00  0.00    +0.000 HD
ENDBRANCH  48  50
ENDBRANCH  47  48
ENDBRANCH  45  47
ENDBRANCH  42  43
BRANCH  42  52
ATOM     52  C   UNK A   5      -5.476  10.612 138.170  0.00  0.00    +0.000 C 
BRANCH  52  53
ATOM     53  C   UNK A   5      -4.264  11.476 138.497  0.00  0.00    +0.000 C 
BRANCH  53  54
ATOM     54  C   UNK A   5      -3.135  11.421 137.502  0.00  0.00    +0.000 C 
BRANCH  54  55
ATOM     55  C   UNK A   5      -3.534  10.496 136.356  0.00  0.00    +0.000 C 
BRANCH  55  56
ATOM     56  N   UNK A   5      -2.511   9.509 136.102  0.00  0.00    +0.000 N 
ATOM     57  C   UNK A   5      -1.562   9.734 135.135  0.00  0.00    +0.000 C 
ATOM     58  O   UNK A   5      -1.549  10.756 134.447  0.00  0.00    +0.000 OA
ATOM     59  H   UNK A   5      -2.477   8.675 136.675  0.00  0.00    +0.000 HD
BRANCH  57  60
ATOM     60  C   UNK A   5      -0.546   8.620 134.979  0.00  0.00    +0.000 C 
BRANCH  60  61
ATOM     61  C   UNK A   5      -0.251   8.388 133.500  0.00  0.00    +0.000 C 
BRANCH  61  62
ATOM     62  C   UNK A   5      -1.389   7.670 132.793  0.00  0.00    +0.000 C 
BRANCH  62  63
ATOM     63  C   UNK A   5      -0.836   6.620 131.837  0.00  0.00    +0.000 C 
BRANCH  63  64
ATOM     64  C   UNK A   5      -1.742   5.399 131.815  0.00  0.00    +0.000 C 
BRANCH  64  65
ATOM     65  C   UNK A   5      -2.971   5.671 130.962  0.00  0.00    +0.000 C 
BRANCH  65  66
ATOM     66  C   UNK A   5      -2.565   5.893 129.515  0.00  0.00    +0.000 C 
BRANCH  66  67
ATOM     67  C   UNK A   5      -3.774   5.760 128.602  0.00  0.00    +0.000 C 
BRANCH  67  68
ATOM     68  C   UNK A   5      -3.421   4.933 127.372  0.00  0.00    +0.000 C 
BRANCH  68  69
ATOM     69  C   UNK A   5      -2.311   3.946 127.700  0.00  0.00    +0.000 C 
BRANCH  69  70
ATOM     70  N   UNK A   5      -2.713   2.604 127.301  0.00  0.00    +0.000 NA
ATOM     71  H   UNK A   5      -3.206   2.648 126.409  0.00  0.00    +0.000 HD
ATOM     72  H   UNK A   5      -3.375   2.235 127.980  0.00  0.00    +0.000 HD
ENDBRANCH  69  70
ENDBRANCH  68  69
ENDBRANCH  67  68
ENDBRANCH  66  67
ENDBRANCH  65  66
ENDBRANCH  64  65
ENDBRANCH  63  64
ENDBRANCH  62  63
ENDBRANCH  61  62
ENDBRANCH  60  61
ENDBRANCH  57  60
ENDBRANCH  55  56
ENDBRANCH  54  55
ENDBRANCH  53  54
ENDBRANCH  52  53
ENDBRANCH  42  52
ENDBRANCH  40  42
ENDBRANCH  37  38
ENDBRANCH  18  31
BRANCH  22  73
ATOM     73  CB  ASN A   2      -5.911   1.940 131.196  0.00  0.00    +0.000 C 
BRANCH  73  74
ATOM     74  CG  ASN A   2      -4.501   2.248 130.965  0.00  0.00    +0.000 C 
ATOM     75  ND2 ASN A   2      -3.438   2.186 131.821  0.00  0.00    +0.000 N 
ATOM     76  OD1 ASN A   2      -4.318   2.014 129.758  0.00  0.00    +0.000 OA
ATOM     77 HD21 ASN A   2      -3.275   1.914 132.776  0.00  0.00    +0.000 HD
ATOM     78 HD22 ASN A   2      -2.800   2.853 132.183  0.00  0.00    +0.000 HD
ENDBRANCH  73  74
ENDBRANCH  22  73
BRANCH   9  79
ATOM     79  CB  TYR A   1      -6.851  -2.319 132.009  0.00  0.00    +0.000 C 
BRANCH  79  80
ATOM     80  CG  TYR A   1      -7.350  -3.293 133.347  0.00  0.00    +0.000 A 
ATOM     81  CD1 TYR A   1      -6.718  -4.443 133.792  0.00  0.00    +0.000 A 
ATOM     82  CE1 TYR A   1      -6.408  -4.878 135.031  0.00  0.00    +0.000 A 
ATOM     83  CZ  TYR A   1      -7.512  -4.952 135.759  0.00  0.00    +0.000 A 
ATOM     84  CE2 TYR A   1      -8.538  -4.095 135.361  0.00  0.00    +0.000 A 
ATOM     85  CD2 TYR A   1      -8.390  -3.146 134.237  0.00  0.00    +0.000 A 
BRANCH  83  86
ATOM     86  OH  TYR A   1      -7.672  -6.067 136.535  0.00  0.00    +0.000 OA
ATOM     87  HH  TYR A   1      -7.857  -6.865 135.966  0.00  0.00    +0.000 HD
ENDBRANCH  83  86
ENDBRANCH  79  80
ENDBRANCH   9  79
BRANCH   5  88
ATOM     88  CB  TYR A   1      -5.835  -1.806 127.187  0.00  0.00    +0.000 C 
BRANCH  88  89
ATOM     89  CG  TYR A   1      -5.763  -1.897 125.723  0.00  0.00    +0.000 A 
ATOM     90  CD1 TYR A   1      -6.248  -0.917 124.853  0.00  0.00    +0.000 A 
ATOM     91  CE1 TYR A   1      -6.451  -1.204 123.530  0.00  0.00    +0.000 A 
ATOM     92  CZ  TYR A   1      -5.899  -2.369 123.033  0.00  0.00    +0.000 A 
ATOM     93  CE2 TYR A   1      -5.311  -3.312 123.882  0.00  0.00    +0.000 A 
ATOM     94  CD2 TYR A   1      -5.295  -3.107 125.241  0.00  0.00    +0.000 A 
ENDBRANCH  88  89
ENDBRANCH   5  88
BRANCH   1  95
ATOM     95  CB  TYR A   1      -6.863   3.497 127.770  0.00  0.00    +0.000 C 
BRANCH  95  97
ATOM     96  CD1 TYR A   1      -7.684   4.625 125.739  0.00  0.00    +0.000 C 
ATOM     97  CG  TYR A   1      -7.163   3.314 126.304  0.00  0.00    +0.000 C 
ATOM     98  CD2 TYR A   1      -5.926   2.874 125.548  0.00  0.00    +0.000 C 
ENDBRANCH  95  97
ENDBRANCH   1  95
TORSDOF 32
ENDMDL
MODEL 2
REMARK VINA RESULT:      -7.8      2.074      2.931
REMARK  Name = CHEMBL1765668
REMARK  34 active torsions:
REMARK  status: ('A' for Active; 'I' for Inactive)
REMARK    1  A    between atoms: CD1_1  and  CG_2
REMARK    2  A    between atoms: CG_2  and  CD2_3
REMARK    3  A    between atoms: CG_2  and  CB_4
REMARK    4  A    between atoms: CB_4  and  CA_5
REMARK    5  A    between atoms: CA_9  and  CB_10
REMARK    6  A    between atoms: CB_10  and  CG_11
REMARK    7  A    between atoms: CA_20  and  CB_21
REMARK    8  A    between atoms: CB_21  and  CG_22
REMARK    9  A    between atoms: CZ_25  and  OH_26
REMARK   10  A    between atoms: C_37  and  C_38
REMARK   11  A    between atoms: CA_44  and  C_45
REMARK   12  A    between atoms: N_47  and  C_48
REMARK   13  A    between atoms: C_48  and  C_49
REMARK   14  A    between atoms: C_48  and  C_67
REMARK   15  A    between atoms: C_49  and  C_50
REMARK   16  A    between atoms: C_50  and  C_51
REMARK   17  A    between atoms: C_51  and  C_52
REMARK   18  A    between atoms: C_52  and  N_53
REMARK   19  A    between atoms: C_54  and  C_56
REMARK   20  A    between atoms: C_56  and  C_57
REMARK   21  A    between atoms: C_57  and  C_58
REMARK   22  A    between atoms: C_58  and  C_59
REMARK   23  A    between atoms: C_59  and  C_60
REMARK   24  A    between atoms: C_60  and  C_61
REMARK   25  A    between atoms: C_61  and  C_62
REMARK   26  A    between atoms: C_62  and  C_63
REMARK   27  A    between atoms: C_63  and  C_64
REMARK   28  A    between atoms: C_64  and  C_65
REMARK   29  A    between atoms: C_65  and  N_66
REMARK   30  A    between atoms: N_69  and  CA_70
REMARK   31  A    between atoms: CA_70  and  C_71
REMARK   32  A    between atoms: C_71  and  OXT_73
REMARK   33  A    between atoms: CA_77  and  CB_78
REMARK   34  A    between atoms: CB_78  and  CG_79
REMARK                            x       y       z     vdW  Elec       q    Type
REMARK                         _______ _______ _______ _____ _____    ______ ____
ROOT
ATOM      1  CA  TYR A   1      -7.401   1.812 131.205  0.00  0.00    +0.000 C 
ATOM      2  N   TYR A   1      -8.113   0.573 130.758  0.00  0.00    +0.000 N 
ATOM      3  C   TYR A   1      -7.624  -0.714 130.828  0.00  0.00    +0.000 C 
ATOM      4  O   TYR A   1      -8.244  -1.533 131.529  0.00  0.00    +0.000 OA
ATOM      5  CA  TYR A   1      -6.221  -1.123 130.181  0.00  0.00    +0.000 C 
ATOM      6  N   TYR A   1      -4.856  -1.250 130.779  0.00  0.00    +0.000 N 
ATOM      7  C   TYR A   1      -4.299  -2.270 131.663  0.00  0.00    +0.000 C 
ATOM      8  O   TYR A   1      -3.060  -2.340 131.642  0.00  0.00    +0.000 OA
ATOM      9  CA  TYR A   1      -5.245  -3.245 132.933  0.00  0.00    +0.000 C 
ATOM     10  N   TYR A   1      -4.405  -4.371 133.142  0.00  0.00    +0.000 N 
ATOM     11  C   UNK A   0      -3.191  -4.300 133.768  0.00  0.00    +0.000 C 
ATOM     12  O   UNK A   0      -2.445  -5.242 133.567  0.00  0.00    +0.000 OA
ATOM     13  C   UNK A   0      -2.758  -3.152 134.751  0.00  0.00    +0.000 C 
ATOM     14  C   UNK A   0      -3.431  -1.808 134.928  0.00  0.00    +0.000 C 
ATOM     15  S   UNK A   3      -2.791  -0.396 135.928  0.00  0.00    +0.000 S 
ATOM     16  S   UNK A   3      -4.580   0.594 136.459  0.00  0.00    +0.000 S 
ATOM     17  C   UNK A   3      -4.230   2.420 136.472  0.00  0.00    +0.000 C 
ATOM     18  C   UNK A   3      -5.280   3.557 136.459  0.00  0.00    +0.000 C 
ATOM     19  N   UNK A   3      -5.396   4.178 135.121  0.00  0.00    +0.000 N 
ATOM     20  C   ASN A   2      -5.712   3.561 133.991  0.00  0.00    +0.000 C 
ATOM     21  O   ASN A   2      -5.627   4.157 132.857  0.00  0.00    +0.000 OA
ATOM     22  CA  ASN A   2      -6.269   2.184 134.072  0.00  0.00    +0.000 C 
ATOM     23  N   ASN A   2      -7.587   2.475 133.607  0.00  0.00    +0.000 N 
ATOM     24  C   TYR A   1      -8.169   2.435 132.392  0.00  0.00    +0.000 C 
ATOM     25  O   TYR A   1      -9.392   2.615 132.401  0.00  0.00    +0.000 OA
ATOM     26  H   TYR A   1      -9.088   0.552 131.069  0.00  0.00    +0.000 HD
ATOM     27  H   TYR A   1      -4.360  -0.361 130.896  0.00  0.00    +0.000 HD
ATOM     28  H   TYR A   1      -4.431  -5.075 132.403  0.00  0.00    +0.000 HD
ATOM     29  H   UNK A   3      -5.178   5.171 135.017  0.00  0.00    +0.000 HD
ATOM     30  H   ASN A   2      -8.212   2.681 134.382  0.00  0.00    +0.000 HD
ENDROOT
BRANCH  18  31
ATOM     31  C   UNK A   3      -4.970   4.727 137.472  0.00  0.00    +0.000 C 
ATOM     32  O   UNK A   3      -5.415   4.662 138.626  0.00  0.00    +0.000 OA
ATOM     33  N   PRO A   4      -4.005   5.661 137.125  0.00  0.00    +0.000 N 
ATOM     34  CD  PRO A   4      -3.871   6.446 135.908  0.00  0.00    +0.000 C 
ATOM     35  CG  PRO A   4      -2.380   6.556 135.792  0.00  0.00    +0.000 C 
ATOM     36  CB  PRO A   4      -1.989   6.917 137.211  0.00  0.00    +0.000 C 
ATOM     37  CA  PRO A   4      -3.047   6.235 138.108  0.00  0.00    +0.000 C 
BRANCH  37  38
ATOM     38  C   PRO A   4      -3.630   7.383 138.958  0.00  0.00    +0.000 C 
ATOM     39  O   PRO A   4      -3.695   7.274 140.184  0.00  0.00    +0.000 OA
ATOM     40  N   UNK A   5      -4.156   8.478 138.277  0.00  0.00    +0.000 N 
ATOM     41  H   UNK A   5      -4.377   8.417 137.288  0.00  0.00    +0.000 HD
BRANCH  40  42
ATOM     42  C   UNK A   5      -4.582   9.731 138.963  0.00  0.00    +0.000 C 
BRANCH  42  43
ATOM     43  C   UNK A   5      -6.147   9.806 139.102  0.00  0.00    +0.000 C 
ATOM     44  O   UNK A   5      -6.680  10.116 140.171  0.00  0.00    +0.000 OA
ATOM     45  N   GLY A   6      -6.906   9.515 137.981  0.00  0.00    +0.000 N 
ATOM     46  H   GLY A   6      -6.469   9.274 137.094  0.00  0.00    +0.000 HD
BRANCH  45  47
ATOM     47  CA  GLY A   6      -8.379   9.523 137.990  0.00  0.00    +0.000 C 
BRANCH  47  48
ATOM     48  C   GLY A   6      -8.955   8.379 137.152  0.00  0.00    +0.000 C 
ATOM     49  O   GLY A   6      -8.460   7.257 137.120  0.00  0.00    +0.000 OA
BRANCH  48  50
ATOM     50  OXT GLY A   6     -10.065   8.680 136.438  0.00  0.00    +0.000 OA
ATOM     51  HXT GLY A   6     -10.513   9.524 136.637  0.00  0.00    +0.000 HD
ENDBRANCH  48  50
ENDBRANCH  47  48
ENDBRANCH  45  47
ENDBRANCH  42  43
BRANCH  42  52
ATOM     52  C   UNK A   5      -4.084  10.966 138.177  0.00  0.00    +0.000 C 
BRANCH  52  53
ATOM     53  C   UNK A   5      -2.897  10.646 137.278  0.00  0.00    +0.000 C 
BRANCH  53  54
ATOM     54  C   UNK A   5      -3.152  10.752 135.797  0.00  0.00    +0.000 C 
BRANCH  54  55
ATOM     55  C   UNK A   5      -1.823  10.983 135.084  0.00  0.00    +0.000 C 
BRANCH  55  56
ATOM     56  N   UNK A   5      -1.465   9.847 134.268  0.00  0.00    +0.000 N 
ATOM     57  C   UNK A   5      -0.209   9.298 134.365  0.00  0.00    +0.000 C 
ATOM     58  O   UNK A   5       0.652   9.746 135.124  0.00  0.00    +0.000 OA
ATOM     59  H   UNK A   5      -2.162   9.436 133.661  0.00  0.00    +0.000 HD
BRANCH  57  60
ATOM     60  C   UNK A   5       0.029   8.107 133.459  0.00  0.00    +0.000 C 
BRANCH  60  61
ATOM     61  C   UNK A   5      -1.225   7.819 132.638  0.00  0.00    +0.000 C 
BRANCH  61  62
ATOM     62  C   UNK A   5      -1.110   6.523 131.852  0.00  0.00    +0.000 C 
BRANCH  62  63
ATOM     63  C   UNK A   5      -2.461   6.149 131.252  0.00  0.00    +0.000 C 
BRANCH  63  64
ATOM     64  C   UNK A   5      -3.532   7.121 131.721  0.00  0.00    +0.000 C 
BRANCH  64  65
ATOM     65  C   UNK A   5      -4.406   7.546 130.553  0.00  0.00    +0.000 C 
BRANCH  65  66
ATOM     66  C   UNK A   5      -5.578   6.590 130.403  0.00  0.00    +0.000 C 
BRANCH  66  67
ATOM     67  C   UNK A   5      -6.612   6.851 131.488  0.00  0.00    +0.000 C 
BRANCH  67  68
ATOM     68  C   UNK A   5      -8.013   6.879 130.888  0.00  0.00    +0.000 C 
BRANCH  68  69
ATOM     69  C   UNK A   5      -8.992   6.154 131.799  0.00  0.00    +0.000 C 
BRANCH  69  70
ATOM     70  N   UNK A   5      -8.313   5.732 133.015  0.00  0.00    +0.000 NA
ATOM     71  H   UNK A   5      -7.336   6.021 132.977  0.00  0.00    +0.000 HD
ATOM     72  H   UNK A   5      -8.314   4.716 133.066  0.00  0.00    +0.000 HD
ENDBRANCH  69  70
ENDBRANCH  68  69
ENDBRANCH  67  68
ENDBRANCH  66  67
ENDBRANCH  65  66
ENDBRANCH  64  65
ENDBRANCH  63  64
ENDBRANCH  62  63
ENDBRANCH  61  62
ENDBRANCH  60  61
ENDBRANCH  57  60
ENDBRANCH  55  56
ENDBRANCH  54  55
ENDBRANCH  53  54
ENDBRANCH  52  53
ENDBRANCH  42  52
ENDBRANCH  40  42
ENDBRANCH  37  38
ENDBRANCH  18  31
BRANCH  22  73
ATOM     73  CB  ASN A   2      -5.256   1.354 133.369  0.00  0.00    +0.000 C 
BRANCH  73  74
ATOM     74  CG  ASN A   2      -3.935   1.584 132.787  0.00  0.00    +0.000 C 
ATOM     75  ND2 ASN A   2      -2.696   1.475 133.353  0.00  0.00    +0.000 N 
ATOM     76  OD1 ASN A   2      -4.071   1.327 131.579  0.00  0.00    +0.000 OA
ATOM     77 HD21 ASN A   2      -2.313   1.205 134.244  0.00  0.00    +0.000 HD
ATOM     78 HD22 ASN A   2      -1.956   2.111 133.529  0.00  0.00    +0.000 HD
ENDBRANCH  73  74
ENDBRANCH  22  73
BRANCH   9  79
ATOM     79  CB  TYR A   1      -6.164  -2.825 134.551  0.00  0.00    +0.000 C 
BRANCH  79  80
ATOM     80  CG  TYR A   1      -7.300  -3.737 135.480  0.00  0.00    +0.000 A 
ATOM     81  CD1 TYR A   1      -7.834  -3.360 136.702  0.00  0.00    +0.000 A 
ATOM     82  CE1 TYR A   1      -9.092  -3.410 137.189  0.00  0.00    +0.000 A 
ATOM     83  CZ  TYR A   1      -9.531  -4.659 137.146  0.00  0.00    +0.000 A 
ATOM     84  CE2 TYR A   1      -8.935  -5.459 136.170  0.00  0.00    +0.000 A 
ATOM     85  CD2 TYR A   1      -7.921  -4.939 135.227  0.00  0.00    +0.000 A 
BRANCH  83  86
ATOM     86  OH  TYR A   1     -10.197  -5.123 138.246  0.00  0.00    +0.000 OA
ATOM     87  HH  TYR A   1     -10.205  -6.120 138.255  0.00  0.00    +0.000 HD
ENDBRANCH  83  86
ENDBRANCH  79  80
ENDBRANCH   9  79
BRANCH   5  88
ATOM     88  CB  TYR A   1      -6.302  -2.503 129.609  0.00  0.00    +0.000 C 
BRANCH  88  89
ATOM     89  CG  TYR A   1      -7.271  -2.747 128.532  0.00  0.00    +0.000 A 
ATOM     90  CD1 TYR A   1      -8.390  -3.575 128.659  0.00  0.00    +0.000 A 
ATOM     91  CE1 TYR A   1      -9.053  -4.019 127.547  0.00  0.00    +0.000 A 
ATOM     92  CZ  TYR A   1      -8.772  -3.403 126.343  0.00  0.00    +0.000 A 
ATOM     93  CE2 TYR A   1      -7.721  -2.488 126.224  0.00  0.00    +0.000 A 
ATOM     94  CD2 TYR A   1      -6.926  -2.201 127.308  0.00  0.00    +0.000 A 
ENDBRANCH  88  89
ENDBRANCH   5  88
BRANCH   1  95
ATOM     95  CB  TYR A   1      -6.925   2.861 130.206  0.00  0.00    +0.000 C 
BRANCH  95  97
ATOM     96  CD1 TYR A   1      -7.910   4.216 128.397  0.00  0.00    +0.000 C 
ATOM     97  CG  TYR A   1      -7.743   2.805 128.940  0.00  0.00    +0.000 C 
ATOM     98  CD2 TYR A   1      -7.078   1.922 127.903  0.00  0.00    +0.000 C 
ENDBRANCH  95  97
ENDBRANCH   1  95
TORSDOF 32
ENDMDL
MODEL 3
REMARK VINA RESULT:      -7.7      3.180      9.029
REMARK  Name = CHEMBL1765668
REMARK  34 active torsions:
REMARK  status: ('A' for Active; 'I' for Inactive)
REMARK    1  A    between atoms: CD1_1  and  CG_2
REMARK    2  A    between atoms: CG_2  and  CD2_3
REMARK    3  A    between atoms: CG_2  and  CB_4
REMARK    4  A    between atoms: CB_4  and  CA_5
REMARK    5  A    between atoms: CA_9  and  CB_10
REMARK    6  A    between atoms: CB_10  and  CG_11
REMARK    7  A    between atoms: CA_20  and  CB_21
REMARK    8  A    between atoms: CB_21  and  CG_22
REMARK    9  A    between atoms: CZ_25  and  OH_26
REMARK   10  A    between atoms: C_37  and  C_38
REMARK   11  A    between atoms: CA_44  and  C_45
REMARK   12  A    between atoms: N_47  and  C_48
REMARK   13  A    between atoms: C_48  and  C_49
REMARK   14  A    between atoms: C_48  and  C_67
REMARK   15  A    between atoms: C_49  and  C_50
REMARK   16  A    between atoms: C_50  and  C_51
REMARK   17  A    between atoms: C_51  and  C_52
REMARK   18  A    between atoms: C_52  and  N_53
REMARK   19  A    between atoms: C_54  and  C_56
REMARK   20  A    between atoms: C_56  and  C_57
REMARK   21  A    between atoms: C_57  and  C_58
REMARK   22  A    between atoms: C_58  and  C_59
REMARK   23  A    between atoms: C_59  and  C_60
REMARK   24  A    between atoms: C_60  and  C_61
REMARK   25  A    between atoms: C_61  and  C_62
REMARK   26  A    between atoms: C_62  and  C_63
REMARK   27  A    between atoms: C_63  and  C_64
REMARK   28  A    between atoms: C_64  and  C_65
REMARK   29  A    between atoms: C_65  and  N_66
REMARK   30  A    between atoms: N_69  and  CA_70
REMARK   31  A    between atoms: CA_70  and  C_71
REMARK   32  A    between atoms: C_71  and  OXT_73
REMARK   33  A    between atoms: CA_77  and  CB_78
REMARK   34  A    between atoms: CB_78  and  CG_79
REMARK                            x       y       z     vdW  Elec       q    Type
REMARK                         _______ _______ _______ _____ _____    ______ ____
ROOT
ATOM      1  CA  TYR A   1      -6.417  -0.635 127.216  0.00  0.00    +0.000 C 
ATOM      2  N   TYR A   1      -5.527   0.193 126.341  0.00  0.00    +0.000 N 
ATOM      3  C   TYR A   1      -5.353   1.558 126.421  0.00  0.00    +0.000 C 
ATOM      4  O   TYR A   1      -4.213   1.984 126.677  0.00  0.00    +0.000 OA
ATOM      5  CA  TYR A   1      -6.586   2.575 126.361  0.00  0.00    +0.000 C 
ATOM      6  N   TYR A   1      -7.364   3.250 127.445  0.00  0.00    +0.000 N 
ATOM      7  C   TYR A   1      -7.002   4.358 128.323  0.00  0.00    +0.000 C 
ATOM      8  O   TYR A   1      -7.973   4.962 128.806  0.00  0.00    +0.000 OA
ATOM      9  CA  TYR A   1      -5.290   4.749 128.934  0.00  0.00    +0.000 C 
ATOM     10  N   TYR A   1      -5.402   6.115 129.306  0.00  0.00    +0.000 N 
ATOM     11  C   UNK A   0      -6.130   6.545 130.381  0.00  0.00    +0.000 C 
ATOM     12  O   UNK A   0      -6.423   7.727 130.374  0.00  0.00    +0.000 OA
ATOM     13  C   UNK A   0      -6.527   5.647 131.610  0.00  0.00    +0.000 C 
ATOM     14  C   UNK A   0      -6.470   4.136 131.684  0.00  0.00    +0.000 C 
ATOM     15  S   UNK A   3      -7.134   3.090 133.051  0.00  0.00    +0.000 S 
ATOM     16  S   UNK A   3      -5.884   1.391 132.931  0.00  0.00    +0.000 S 
ATOM     17  C   UNK A   3      -6.918  -0.097 133.350  0.00  0.00    +0.000 C 
ATOM     18  C   UNK A   3      -6.556  -1.576 133.067  0.00  0.00    +0.000 C 
ATOM     19  N   UNK A   3      -7.303  -2.108 131.906  0.00  0.00    +0.000 N 
ATOM     20  C   ASN A   2      -7.284  -1.627 130.671  0.00  0.00    +0.000 C 
ATOM     21  O   ASN A   2      -8.093  -2.061 129.772  0.00  0.00    +0.000 OA
ATOM     22  CA  ASN A   2      -6.232  -0.638 130.315  0.00  0.00    +0.000 C 
ATOM     23  N   ASN A   2      -5.501  -1.447 129.394  0.00  0.00    +0.000 N 
ATOM     24  C   TYR A   1      -5.547  -1.597 128.054  0.00  0.00    +0.000 C 
ATOM     25  O   TYR A   1      -4.640  -2.292 127.583  0.00  0.00    +0.000 OA
ATOM     26  H   TYR A   1      -4.605  -0.231 126.214  0.00  0.00    +0.000 HD
ATOM     27  H   TYR A   1      -8.080   2.660 127.883  0.00  0.00    +0.000 HD
ATOM     28  H   TYR A   1      -5.410   6.778 128.530  0.00  0.00    +0.000 HD
ATOM     29  H   UNK A   3      -7.934  -2.899 132.045  0.00  0.00    +0.000 HD
ATOM     30  H   ASN A   2      -4.751  -1.949 129.862  0.00  0.00    +0.000 HD
ENDROOT
BRANCH  18  31
ATOM     31  C   UNK A   3      -6.851  -2.549 134.275  0.00  0.00    +0.000 C 
ATOM     32  O   UNK A   3      -7.953  -2.498 134.838  0.00  0.00    +0.000 OA
ATOM     33  N   PRO A   4      -5.974  -3.600 134.503  0.00  0.00    +0.000 N 
ATOM     34  CD  PRO A   4      -4.527  -3.584 134.644  0.00  0.00    +0.000 C 
ATOM     35  CG  PRO A   4      -4.160  -4.913 134.054  0.00  0.00    +0.000 C 
ATOM     36  CB  PRO A   4      -5.175  -5.829 134.709  0.00  0.00    +0.000 C 
ATOM     37  CA  PRO A   4      -6.427  -4.951 134.931  0.00  0.00    +0.000 C 
BRANCH  37  38
ATOM     38  C   PRO A   4      -6.718  -5.068 136.441  0.00  0.00    +0.000 C 
ATOM     39  O   PRO A   4      -6.632  -6.159 137.006  0.00  0.00    +0.000 OA
ATOM     40  N   UNK A   5      -7.168  -3.923 137.096  0.00  0.00    +0.000 N 
ATOM     41  H   UNK A   5      -7.527  -3.132 136.569  0.00  0.00    +0.000 HD
BRANCH  40  42
ATOM     42  C   UNK A   5      -7.311  -3.838 138.576  0.00  0.00    +0.000 C 
BRANCH  42  43
ATOM     43  C   UNK A   5      -8.690  -3.201 138.984  0.00  0.00    +0.000 C 
ATOM     44  O   UNK A   5      -9.007  -2.069 138.608  0.00  0.00    +0.000 OA
ATOM     45  N   GLY A   6      -9.536  -3.955 139.779  0.00  0.00    +0.000 N 
ATOM     46  H   GLY A   6      -9.284  -4.894 140.079  0.00  0.00    +0.000 HD
BRANCH  45  47
ATOM     47  CA  GLY A   6     -10.841  -3.460 140.250  0.00  0.00    +0.000 C 
BRANCH  47  48
ATOM     48  C   GLY A   6     -10.685  -2.478 141.415  0.00  0.00    +0.000 C 
ATOM     49  O   GLY A   6     -10.559  -2.837 142.581  0.00  0.00    +0.000 OA
BRANCH  48  50
ATOM     50  OXT GLY A   6     -10.692  -1.167 141.077  0.00  0.00    +0.000 OA
ATOM     51  HXT GLY A   6     -11.549  -0.701 141.095  0.00  0.00    +0.000 HD
ENDBRANCH  48  50
ENDBRANCH  47  48
ENDBRANCH  45  47
ENDBRANCH  42  43
BRANCH  42  52
ATOM     52  C   UNK A   5      -6.165  -2.992 139.177  0.00  0.00    +0.000 C 
BRANCH  52  53
ATOM     53  C   UNK A   5      -5.487  -2.106 138.139  0.00  0.00    +0.000 C 
BRANCH  53  54
ATOM     54  C   UNK A   5      -5.734  -0.627 138.281  0.00  0.00    +0.000 C 
BRANCH  54  55
ATOM     55  C   UNK A   5      -4.491   0.125 137.813  0.00  0.00    +0.000 C 
BRANCH  55  56
ATOM     56  N   UNK A   5      -4.767   1.533 137.642  0.00  0.00    +0.000 N 
ATOM     57  C   UNK A   5      -4.323   2.190 136.521  0.00  0.00    +0.000 C 
ATOM     58  O   UNK A   5      -3.673   1.626 135.638  0.00  0.00    +0.000 OA
ATOM     59  H   UNK A   5      -5.328   2.013 138.334  0.00  0.00    +0.000 HD
BRANCH  57  60
ATOM     60  C   UNK A   5      -4.688   3.659 136.466  0.00  0.00    +0.000 C 
BRANCH  60  61
ATOM     61  C   UNK A   5      -4.167   4.278 135.172  0.00  0.00    +0.000 C 
BRANCH  61  62
ATOM     62  C   UNK A   5      -4.787   5.638 134.896  0.00  0.00    +0.000 C 
BRANCH  62  63
ATOM     63  C   UNK A   5      -3.812   6.747 135.276  0.00  0.00    +0.000 C 
BRANCH  63  64
ATOM     64  C   UNK A   5      -4.351   7.540 136.456  0.00  0.00    +0.000 C 
BRANCH  64  65
ATOM     65  C   UNK A   5      -5.798   7.163 136.728  0.00  0.00    +0.000 C 
BRANCH  65  66
ATOM     66  C   UNK A   5      -6.019   6.987 138.222  0.00  0.00    +0.000 C 
BRANCH  66  67
ATOM     67  C   UNK A   5      -7.494   6.754 138.512  0.00  0.00    +0.000 C 
BRANCH  67  68
ATOM     68  C   UNK A   5      -8.342   7.181 137.321  0.00  0.00    +0.000 C 
BRANCH  68  69
ATOM     69  C   UNK A   5      -9.292   8.299 137.722  0.00  0.00    +0.000 C 
BRANCH  69  70
ATOM     70  N   UNK A   5     -10.128   8.665 136.588  0.00  0.00    +0.000 NA
ATOM     71  H   UNK A   5     -10.061   7.945 135.869  0.00  0.00    +0.000 HD
ATOM     72  H   UNK A   5      -9.774   9.524 136.171  0.00  0.00    +0.000 HD
ENDBRANCH  69  70
ENDBRANCH  68  69
ENDBRANCH  67  68
ENDBRANCH  66  67
ENDBRANCH  65  66
ENDBRANCH  64  65
ENDBRANCH  63  64
ENDBRANCH  62  63
ENDBRANCH  61  62
ENDBRANCH  60  61
ENDBRANCH  57  60
ENDBRANCH  55  56
ENDBRANCH  54  55
ENDBRANCH  53  54
ENDBRANCH  52  53
ENDBRANCH  42  52
ENDBRANCH  40  42
ENDBRANCH  37  38
ENDBRANCH  18  31
BRANCH  22  73
ATOM     73  CB  ASN A   2      -7.002   0.589 129.983  0.00  0.00    +0.000 C 
BRANCH  73  74
ATOM     74  CG  ASN A   2      -8.408   0.988 130.029  0.00  0.00    +0.000 C 
ATOM     75  ND2 ASN A   2      -9.121   1.570 131.038  0.00  0.00    +0.000 N 
ATOM     76  OD1 ASN A   2      -8.701   1.255 128.852  0.00  0.00    +0.000 OA
ATOM     77 HD21 ASN A   2      -8.942   1.908 131.970  0.00  0.00    +0.000 HD
ATOM     78 HD22 ASN A   2      -9.907   1.297 131.578  0.00  0.00    +0.000 HD
ENDBRANCH  73  74
ENDBRANCH  22  73
BRANCH   9  79
ATOM     79  CB  TYR A   1      -4.027   3.880 130.068  0.00  0.00    +0.000 C 
BRANCH  79  80
ATOM     80  CG  TYR A   1      -2.782   4.520 131.081  0.00  0.00    +0.000 A 
ATOM     81  CD1 TYR A   1      -2.113   5.717 130.884  0.00  0.00    +0.000 A 
ATOM     82  CE1 TYR A   1      -1.765   6.705 131.735  0.00  0.00    +0.000 A 
ATOM     83  CZ  TYR A   1      -1.015   6.205 132.706  0.00  0.00    +0.000 A 
ATOM     84  CE2 TYR A   1      -1.221   4.851 132.970  0.00  0.00    +0.000 A 
ATOM     85  CD2 TYR A   1      -2.231   4.045 132.249  0.00  0.00    +0.000 A 
BRANCH  83  86
ATOM     86  OH  TYR A   1       0.094   6.919 133.066  0.00  0.00    +0.000 OA
ATOM     87  HH  TYR A   1       0.261   7.657 132.415  0.00  0.00    +0.000 HD
ENDBRANCH  83  86
ENDBRANCH  79  80
ENDBRANCH   9  79
BRANCH   5  88
ATOM     88  CB  TYR A   1      -6.196   3.811 125.614  0.00  0.00    +0.000 C 
BRANCH  88  89
ATOM     89  CG  TYR A   1      -6.432   3.844 124.165  0.00  0.00    +0.000 A 
ATOM     90  CD1 TYR A   1      -7.572   3.327 123.545  0.00  0.00    +0.000 A 
ATOM     91  CE1 TYR A   1      -7.581   3.090 122.197  0.00  0.00    +0.000 A 
ATOM     92  CZ  TYR A   1      -6.563   3.638 121.442  0.00  0.00    +0.000 A 
ATOM     93  CE2 TYR A   1      -5.464   4.257 122.046  0.00  0.00    +0.000 A 
ATOM     94  CD2 TYR A   1      -5.365   4.309 123.416  0.00  0.00    +0.000 A 
ENDBRANCH  88  89
ENDBRANCH   5  88
BRANCH   1  95
ATOM     95  CB  TYR A   1      -7.668  -1.313 126.665  0.00  0.00    +0.000 C 
BRANCH  95  97
ATOM     96  CD1 TYR A   1      -8.302  -1.975 124.378  0.00  0.00    +0.000 C 
ATOM     97  CG  TYR A   1      -7.994  -0.796 125.287  0.00  0.00    +0.000 C 
ATOM     98  CD2 TYR A   1      -9.174   0.154 125.328  0.00  0.00    +0.000 C 
ENDBRANCH  95  97
ENDBRANCH   1  95
TORSDOF 32
ENDMDL
MODEL 4
REMARK VINA RESULT:      -7.7      4.082      9.200
REMARK  Name = CHEMBL1765668
REMARK  34 active torsions:
REMARK  status: ('A' for Active; 'I' for Inactive)
REMARK    1  A    between atoms: CD1_1  and  CG_2
REMARK    2  A    between atoms: CG_2  and  CD2_3
REMARK    3  A    between atoms: CG_2  and  CB_4
REMARK    4  A    between atoms: CB_4  and  CA_5
REMARK    5  A    between atoms: CA_9  and  CB_10
REMARK    6  A    between atoms: CB_10  and  CG_11
REMARK    7  A    between atoms: CA_20  and  CB_21
REMARK    8  A    between atoms: CB_21  and  CG_22
REMARK    9  A    between atoms: CZ_25  and  OH_26
REMARK   10  A    between atoms: C_37  and  C_38
REMARK   11  A    between atoms: CA_44  and  C_45
REMARK   12  A    between atoms: N_47  and  C_48
REMARK   13  A    between atoms: C_48  and  C_49
REMARK   14  A    between atoms: C_48  and  C_67
REMARK   15  A    between atoms: C_49  and  C_50
REMARK   16  A    between atoms: C_50  and  C_51
REMARK   17  A    between atoms: C_51  and  C_52
REMARK   18  A    between atoms: C_52  and  N_53
REMARK   19  A    between atoms: C_54  and  C_56
REMARK   20  A    between atoms: C_56  and  C_57
REMARK   21  A    between atoms: C_57  and  C_58
REMARK   22  A    between atoms: C_58  and  C_59
REMARK   23  A    between atoms: C_59  and  C_60
REMARK   24  A    between atoms: C_60  and  C_61
REMARK   25  A    between atoms: C_61  and  C_62
REMARK   26  A    between atoms: C_62  and  C_63
REMARK   27  A    between atoms: C_63  and  C_64
REMARK   28  A    between atoms: C_64  and  C_65
REMARK   29  A    between atoms: C_65  and  N_66
REMARK   30  A    between atoms: N_69  and  CA_70
REMARK   31  A    between atoms: CA_70  and  C_71
REMARK   32  A    between atoms: C_71  and  OXT_73
REMARK   33  A    between atoms: CA_77  and  CB_78
REMARK   34  A    between atoms: CB_78  and  CG_79
REMARK                            x       y       z     vdW  Elec       q    Type
REMARK                         _______ _______ _______ _____ _____    ______ ____
ROOT
ATOM      1  CA  TYR A   1      -6.465  -0.657 126.996  0.00  0.00    +0.000 C 
ATOM      2  N   TYR A   1      -5.511   0.138 126.159  0.00  0.00    +0.000 N 
ATOM      3  C   TYR A   1      -5.267   1.489 126.270  0.00  0.00    +0.000 C 
ATOM      4  O   TYR A   1      -4.113   1.849 126.561  0.00  0.00    +0.000 OA
ATOM      5  CA  TYR A   1      -6.442   2.572 126.201  0.00  0.00    +0.000 C 
ATOM      6  N   TYR A   1      -7.209   3.268 127.279  0.00  0.00    +0.000 N 
ATOM      7  C   TYR A   1      -6.810   4.339 128.188  0.00  0.00    +0.000 C 
ATOM      8  O   TYR A   1      -7.759   4.985 128.660  0.00  0.00    +0.000 OA
ATOM      9  CA  TYR A   1      -5.095   4.626 128.846  0.00  0.00    +0.000 C 
ATOM     10  N   TYR A   1      -5.144   5.988 129.243  0.00  0.00    +0.000 N 
ATOM     11  C   UNK A   0      -5.874   6.437 130.309  0.00  0.00    +0.000 C 
ATOM     12  O   UNK A   0      -6.103   7.633 130.318  0.00  0.00    +0.000 OA
ATOM     13  C   UNK A   0      -6.348   5.539 131.509  0.00  0.00    +0.000 C 
ATOM     14  C   UNK A   0      -6.374   4.026 131.555  0.00  0.00    +0.000 C 
ATOM     15  S   UNK A   3      -7.126   2.992 132.885  0.00  0.00    +0.000 S 
ATOM     16  S   UNK A   3      -5.966   1.231 132.761  0.00  0.00    +0.000 S 
ATOM     17  C   UNK A   3      -7.087  -0.207 133.126  0.00  0.00    +0.000 C 
ATOM     18  C   UNK A   3      -6.798  -1.698 132.823  0.00  0.00    +0.000 C 
ATOM     19  N   UNK A   3      -7.543  -2.168 131.634  0.00  0.00    +0.000 N 
ATOM     20  C   ASN A   2      -7.469  -1.665 130.409  0.00  0.00    +0.000 C 
ATOM     21  O   ASN A   2      -8.277  -2.039 129.483  0.00  0.00    +0.000 OA
ATOM     22  CA  ASN A   2      -6.357  -0.728 130.098  0.00  0.00    +0.000 C 
ATOM     23  N   ASN A   2      -5.648  -1.558 129.178  0.00  0.00    +0.000 N 
ATOM     24  C   TYR A   1      -5.669  -1.680 127.836  0.00  0.00    +0.000 C 
ATOM     25  O   TYR A   1      -4.789  -2.414 127.372  0.00  0.00    +0.000 OA
ATOM     26  H   TYR A   1      -4.610  -0.333 126.046  0.00  0.00    +0.000 HD
ATOM     27  H   TYR A   1      -7.966   2.710 127.688  0.00  0.00    +0.000 HD
ATOM     28  H   TYR A   1      -5.097   6.665 128.480  0.00  0.00    +0.000 HD
ATOM     29  H   UNK A   3      -8.219  -2.925 131.742  0.00  0.00    +0.000 HD
ATOM     30  H   ASN A   2      -4.937  -2.108 129.654  0.00  0.00    +0.000 HD
ENDROOT
BRANCH  18  31
ATOM     31  C   UNK A   3      -7.174  -2.676 134.003  0.00  0.00    +0.000 C 
ATOM     32  O   UNK A   3      -8.322  -2.651 134.467  0.00  0.00    +0.000 OA
ATOM     33  N   PRO A   4      -6.295  -3.704 134.312  0.00  0.00    +0.000 N 
ATOM     34  CD  PRO A   4      -4.867  -3.651 134.580  0.00  0.00    +0.000 C 
ATOM     35  CG  PRO A   4      -4.416  -4.972 134.030  0.00  0.00    +0.000 C 
ATOM     36  CB  PRO A   4      -5.462  -5.912 134.597  0.00  0.00    +0.000 C 
ATOM     37  CA  PRO A   4      -6.750  -5.065 134.704  0.00  0.00    +0.000 C 
BRANCH  37  38
ATOM     38  C   PRO A   4      -7.170  -5.186 136.183  0.00  0.00    +0.000 C 
ATOM     39  O   PRO A   4      -7.331  -6.297 136.692  0.00  0.00    +0.000 OA
ATOM     40  N   UNK A   5      -7.446  -4.005 136.868  0.00  0.00    +0.000 N 
ATOM     41  H   UNK A   5      -7.611  -3.139 136.362  0.00  0.00    +0.000 HD
BRANCH  40  42
ATOM     42  C   UNK A   5      -7.682  -3.956 138.338  0.00  0.00    +0.000 C 
BRANCH  42  43
ATOM     43  C   UNK A   5      -8.828  -2.942 138.702  0.00  0.00    +0.000 C 
ATOM     44  O   UNK A   5      -8.849  -1.803 138.228  0.00  0.00    +0.000 OA
ATOM     45  N   GLY A   6      -9.815  -3.373 139.572  0.00  0.00    +0.000 N 
ATOM     46  H   GLY A   6      -9.810  -4.317 139.953  0.00  0.00    +0.000 HD
BRANCH  45  47
ATOM     47  CA  GLY A   6     -10.925  -2.510 140.011  0.00  0.00    +0.000 C 
BRANCH  47  48
ATOM     48  C   GLY A   6     -12.083  -2.526 139.008  0.00  0.00    +0.000 C 
ATOM     49  O   GLY A   6     -13.051  -3.270 139.116  0.00  0.00    +0.000 OA
BRANCH  48  50
ATOM     50  OXT GLY A   6     -11.975  -1.652 137.980  0.00  0.00    +0.000 OA
ATOM     51  HXT GLY A   6     -12.651  -1.696 137.278  0.00  0.00    +0.000 HD
ENDBRANCH  48  50
ENDBRANCH  47  48
ENDBRANCH  45  47
ENDBRANCH  42  43
BRANCH  42  52
ATOM     52  C   UNK A   5      -6.387  -3.540 139.074  0.00  0.00    +0.000 C 
BRANCH  52  53
ATOM     53  C   UNK A   5      -5.397  -2.831 138.158  0.00  0.00    +0.000 C 
BRANCH  53  54
ATOM     54  C   UNK A   5      -4.011  -3.418 138.115  0.00  0.00    +0.000 C 
BRANCH  54  55
ATOM     55  C   UNK A   5      -3.032  -2.412 138.713  0.00  0.00    +0.000 C 
BRANCH  55  56
ATOM     56  N   UNK A   5      -1.744  -2.489 138.066  0.00  0.00    +0.000 N 
ATOM     57  C   UNK A   5      -0.899  -1.406 138.084  0.00  0.00    +0.000 C 
ATOM     58  O   UNK A   5      -1.199  -0.342 138.628  0.00  0.00    +0.000 OA
ATOM     59  H   UNK A   5      -1.457  -3.360 137.640  0.00  0.00    +0.000 HD
BRANCH  57  60
ATOM     60  C   UNK A   5       0.421  -1.625 137.373  0.00  0.00    +0.000 C 
BRANCH  60  61
ATOM     61  C   UNK A   5       0.211  -2.510 136.147  0.00  0.00    +0.000 C 
BRANCH  61  62
ATOM     62  C   UNK A   5      -0.090  -1.698 134.898  0.00  0.00    +0.000 C 
BRANCH  62  63
ATOM     63  C   UNK A   5      -1.539  -1.904 134.473  0.00  0.00    +0.000 C 
BRANCH  63  64
ATOM     64  C   UNK A   5      -1.974  -0.794 133.529  0.00  0.00    +0.000 C 
BRANCH  64  65
ATOM     65  C   UNK A   5      -2.995   0.105 134.206  0.00  0.00    +0.000 C 
BRANCH  65  66
ATOM     66  C   UNK A   5      -3.479  -0.534 135.498  0.00  0.00    +0.000 C 
BRANCH  66  67
ATOM     67  C   UNK A   5      -3.747   0.535 136.545  0.00  0.00    +0.000 C 
BRANCH  67  68
ATOM     68  C   UNK A   5      -4.110   1.854 135.875  0.00  0.00    +0.000 C 
BRANCH  68  69
ATOM     69  C   UNK A   5      -3.940   3.008 136.851  0.00  0.00    +0.000 C 
BRANCH  69  70
ATOM     70  N   UNK A   5      -2.816   2.740 137.737  0.00  0.00    +0.000 NA
ATOM     71  H   UNK A   5      -2.000   2.481 137.183  0.00  0.00    +0.000 HD
ATOM     72  H   UNK A   5      -3.035   1.938 138.325  0.00  0.00    +0.000 HD
ENDBRANCH  69  70
ENDBRANCH  68  69
ENDBRANCH  67  68
ENDBRANCH  66  67
ENDBRANCH  65  66
ENDBRANCH  64  65
ENDBRANCH  63  64
ENDBRANCH  62  63
ENDBRANCH  61  62
ENDBRANCH  60  61
ENDBRANCH  57  60
ENDBRANCH  55  56
ENDBRANCH  54  55
ENDBRANCH  53  54
ENDBRANCH  52  53
ENDBRANCH  42  52
ENDBRANCH  40  42
ENDBRANCH  37  38
ENDBRANCH  18  31
BRANCH  22  73
ATOM     73  CB  ASN A   2      -7.052   0.545 129.772  0.00  0.00    +0.000 C 
BRANCH  73  74
ATOM     74  CG  ASN A   2      -8.433   1.022 129.806  0.00  0.00    +0.000 C 
ATOM     75  ND2 ASN A   2      -9.127   1.629 130.814  0.00  0.00    +0.000 N 
ATOM     76  OD1 ASN A   2      -8.696   1.321 128.629  0.00  0.00    +0.000 OA
ATOM     77 HD21 ASN A   2      -8.941   1.944 131.753  0.00  0.00    +0.000 HD
ATOM     78 HD22 ASN A   2      -9.934   1.395 131.340  0.00  0.00    +0.000 HD
ENDBRANCH  73  74
ENDBRANCH  22  73
BRANCH   9  79
ATOM     79  CB  TYR A   1      -3.909   3.669 129.992  0.00  0.00    +0.000 C 
BRANCH  79  80
ATOM     80  CG  TYR A   1      -3.005   4.181 131.374  0.00  0.00    +0.000 A 
ATOM     81  CD1 TYR A   1      -2.175   5.289 131.433  0.00  0.00    +0.000 A 
ATOM     82  CE1 TYR A   1      -2.017   6.247 132.370  0.00  0.00    +0.000 A 
ATOM     83  CZ  TYR A   1      -1.696   5.684 133.525  0.00  0.00    +0.000 A 
ATOM     84  CE2 TYR A   1      -2.134   4.368 133.680  0.00  0.00    +0.000 A 
ATOM     85  CD2 TYR A   1      -2.933   3.670 132.649  0.00  0.00    +0.000 A 
BRANCH  83  86
ATOM     86  OH  TYR A   1      -0.694   6.271 134.247  0.00  0.00    +0.000 OA
ATOM     87  HH  TYR A   1      -0.962   7.188 134.534  0.00  0.00    +0.000 HD
ENDBRANCH  83  86
ENDBRANCH  79  80
ENDBRANCH   9  79
BRANCH   5  88
ATOM     88  CB  TYR A   1      -5.969   3.799 125.488  0.00  0.00    +0.000 C 
BRANCH  88  89
ATOM     89  CG  TYR A   1      -5.860   3.748 124.024  0.00  0.00    +0.000 A 
ATOM     90  CD1 TYR A   1      -4.871   4.406 123.289  0.00  0.00    +0.000 A 
ATOM     91  CE1 TYR A   1      -5.018   4.592 121.941  0.00  0.00    +0.000 A 
ATOM     92  CZ  TYR A   1      -6.003   3.869 121.297  0.00  0.00    +0.000 A 
ATOM     93  CE2 TYR A   1      -6.937   3.116 122.015  0.00  0.00    +0.000 A 
ATOM     94  CD2 TYR A   1      -6.905   3.101 123.389  0.00  0.00    +0.000 A 
ENDBRANCH  88  89
ENDBRANCH   5  88
BRANCH   1  95
ATOM     95  CB  TYR A   1      -7.736  -1.257 126.403  0.00  0.00    +0.000 C 
BRANCH  95  97
ATOM     96  CD1 TYR A   1      -8.418  -1.645 124.066  0.00  0.00    +0.000 C 
ATOM     97  CG  TYR A   1      -8.090  -0.581 125.102  0.00  0.00    +0.000 C 
ATOM     98  CD2 TYR A   1      -9.268   0.356 125.280  0.00  0.00    +0.000 C 
ENDBRANCH  95  97
ENDBRANCH   1  95
TORSDOF 32
ENDMDL
MODEL 5
REMARK VINA RESULT:      -7.6      3.349      7.201
REMARK  Name = CHEMBL1765668
REMARK  34 active torsions:
REMARK  status: ('A' for Active; 'I' for Inactive)
REMARK    1  A    between atoms: CD1_1  and  CG_2
REMARK    2  A    between atoms: CG_2  and  CD2_3
REMARK    3  A    between atoms: CG_2  and  CB_4
REMARK    4  A    between atoms: CB_4  and  CA_5
REMARK    5  A    between atoms: CA_9  and  CB_10
REMARK    6  A    between atoms: CB_10  and  CG_11
REMARK    7  A    between atoms: CA_20  and  CB_21
REMARK    8  A    between atoms: CB_21  and  CG_22
REMARK    9  A    between atoms: CZ_25  and  OH_26
REMARK   10  A    between atoms: C_37  and  C_38
REMARK   11  A    between atoms: CA_44  and  C_45
REMARK   12  A    between atoms: N_47  and  C_48
REMARK   13  A    between atoms: C_48  and  C_49
REMARK   14  A    between atoms: C_48  and  C_67
REMARK   15  A    between atoms: C_49  and  C_50
REMARK   16  A    between atoms: C_50  and  C_51
REMARK   17  A    between atoms: C_51  and  C_52
REMARK   18  A    between atoms: C_52  and  N_53
REMARK   19  A    between atoms: C_54  and  C_56
REMARK   20  A    between atoms: C_56  and  C_57
REMARK   21  A    between atoms: C_57  and  C_58
REMARK   22  A    between atoms: C_58  and  C_59
REMARK   23  A    between atoms: C_59  and  C_60
REMARK   24  A    between atoms: C_60  and  C_61
REMARK   25  A    between atoms: C_61  and  C_62
REMARK   26  A    between atoms: C_62  and  C_63
REMARK   27  A    between atoms: C_63  and  C_64
REMARK   28  A    between atoms: C_64  and  C_65
REMARK   29  A    between atoms: C_65  and  N_66
REMARK   30  A    between atoms: N_69  and  CA_70
REMARK   31  A    between atoms: CA_70  and  C_71
REMARK   32  A    between atoms: C_71  and  OXT_73
REMARK   33  A    between atoms: CA_77  and  CB_78
REMARK   34  A    between atoms: CB_78  and  CG_79
REMARK                            x       y       z     vdW  Elec       q    Type
REMARK                         _______ _______ _______ _____ _____    ______ ____
ROOT
ATOM      1  CA  TYR A   1      -6.701   3.222 125.936  0.00  0.00    +0.000 C 
ATOM      2  N   TYR A   1      -7.967   2.438 125.780  0.00  0.00    +0.000 N 
ATOM      3  C   TYR A   1      -8.296   1.286 126.460  0.00  0.00    +0.000 C 
ATOM      4  O   TYR A   1      -9.304   1.308 127.188  0.00  0.00    +0.000 OA
ATOM      5  CA  TYR A   1      -7.341   0.003 126.466  0.00  0.00    +0.000 C 
ATOM      6  N   TYR A   1      -6.319  -0.464 127.453  0.00  0.00    +0.000 N 
ATOM      7  C   TYR A   1      -6.481  -1.067 128.772  0.00  0.00    +0.000 C 
ATOM      8  O   TYR A   1      -5.500  -1.724 129.155  0.00  0.00    +0.000 OA
ATOM      9  CA  TYR A   1      -7.873  -0.733 129.959  0.00  0.00    +0.000 C 
ATOM     10  N   TYR A   1      -7.829  -1.870 130.810  0.00  0.00    +0.000 N 
ATOM     11  C   UNK A   0      -6.821  -2.105 131.703  0.00  0.00    +0.000 C 
ATOM     12  O   UNK A   0      -6.730  -3.254 132.097  0.00  0.00    +0.000 OA
ATOM     13  C   UNK A   0      -5.861  -1.000 132.279  0.00  0.00    +0.000 C 
ATOM     14  C   UNK A   0      -5.664   0.401 131.740  0.00  0.00    +0.000 C 
ATOM     15  S   UNK A   3      -4.386   1.609 132.298  0.00  0.00    +0.000 S 
ATOM     16  S   UNK A   3      -5.324   3.451 131.861  0.00  0.00    +0.000 S 
ATOM     17  C   UNK A   3      -4.003   4.637 131.311  0.00  0.00    +0.000 C 
ATOM     18  C   UNK A   3      -4.223   5.976 130.565  0.00  0.00    +0.000 C 
ATOM     19  N   UNK A   3      -3.902   5.859 129.125  0.00  0.00    +0.000 N 
ATOM     20  C   ASN A   2      -4.456   5.020 128.261  0.00  0.00    +0.000 C 
ATOM     21  O   ASN A   2      -3.993   4.884 127.071  0.00  0.00    +0.000 OA
ATOM     22  CA  ASN A   2      -5.697   4.309 128.666  0.00  0.00    +0.000 C 
ATOM     23  N   ASN A   2      -6.595   4.937 127.751  0.00  0.00    +0.000 N 
ATOM     24  C   TYR A   1      -7.038   4.613 126.519  0.00  0.00    +0.000 C 
ATOM     25  O   TYR A   1      -7.943   5.337 126.090  0.00  0.00    +0.000 OA
ATOM     26  H   TYR A   1      -8.795   3.037 125.765  0.00  0.00    +0.000 HD
ATOM     27  H   TYR A   1      -5.413   0.010 127.381  0.00  0.00    +0.000 HD
ATOM     28  H   TYR A   1      -8.213  -2.727 130.409  0.00  0.00    +0.000 HD
ATOM     29  H   UNK A   3      -3.156   6.438 128.737  0.00  0.00    +0.000 HD
ATOM     30  H   ASN A   2      -7.031   5.755 128.168  0.00  0.00    +0.000 HD
ENDROOT
BRANCH  18  31
ATOM     31  C   UNK A   3      -3.355   7.171 131.122  0.00  0.00    +0.000 C 
ATOM     32  O   UNK A   3      -3.366   8.256 130.526  0.00  0.00    +0.000 OA
ATOM     33  N   PRO A   4      -2.811   7.053 132.393  0.00  0.00    +0.000 N 
ATOM     34  CD  PRO A   4      -2.013   5.980 132.963  0.00  0.00    +0.000 C 
ATOM     35  CG  PRO A   4      -2.447   6.021 134.398  0.00  0.00    +0.000 C 
ATOM     36  CB  PRO A   4      -2.397   7.508 134.689  0.00  0.00    +0.000 C 
ATOM     37  CA  PRO A   4      -2.728   8.194 133.344  0.00  0.00    +0.000 C 
BRANCH  37  38
ATOM     38  C   PRO A   4      -1.537   9.141 133.089  0.00  0.00    +0.000 C 
ATOM     39  O   PRO A   4      -0.389   8.695 133.050  0.00  0.00    +0.000 OA
ATOM     40  N   UNK A   5      -1.811  10.504 133.006  0.00  0.00    +0.000 N 
ATOM     41  H   UNK A   5      -2.693  10.877 133.345  0.00  0.00    +0.000 HD
BRANCH  40  42
ATOM     42  C   UNK A   5      -0.797  11.510 132.582  0.00  0.00    +0.000 C 
BRANCH  42  43
ATOM     43  C   UNK A   5       0.302  11.718 133.688  0.00  0.00    +0.000 C 
ATOM     44  O   UNK A   5       0.012  11.711 134.888  0.00  0.00    +0.000 OA
ATOM     45  N   GLY A   6       1.608  11.907 133.269  0.00  0.00    +0.000 N 
ATOM     46  H   GLY A   6       1.853  11.898 132.281  0.00  0.00    +0.000 HD
BRANCH  45  47
ATOM     47  CA  GLY A   6       2.722  12.139 134.204  0.00  0.00    +0.000 C 
BRANCH  47  48
ATOM     48  C   GLY A   6       2.719  13.573 134.741  0.00  0.00    +0.000 C 
ATOM     49  O   GLY A   6       2.590  13.843 135.930  0.00  0.00    +0.000 OA
BRANCH  48  50
ATOM     50  OXT GLY A   6       2.874  14.544 133.810  0.00  0.00    +0.000 OA
ATOM     51  HXT GLY A   6       3.706  14.551 133.300  0.00  0.00    +0.000 HD
ENDBRANCH  48  50
ENDBRANCH  47  48
ENDBRANCH  45  47
ENDBRANCH  42  43
BRANCH  42  52
ATOM     52  C   UNK A   5      -1.480  12.866 132.288  0.00  0.00    +0.000 C 
BRANCH  52  53
ATOM     53  C   UNK A   5      -2.450  13.282 133.386  0.00  0.00    +0.000 C 
BRANCH  53  54
ATOM     54  C   UNK A   5      -2.307  14.697 133.882  0.00  0.00    +0.000 C 
BRANCH  54  55
ATOM     55  C   UNK A   5      -1.557  14.678 135.211  0.00  0.00    +0.000 C 
BRANCH  55  56
ATOM     56  N   UNK A   5      -2.048  13.628 136.072  0.00  0.00    +0.000 N 
ATOM     57  C   UNK A   5      -2.508  13.929 137.331  0.00  0.00    +0.000 C 
ATOM     58  O   UNK A   5      -2.510  15.078 137.777  0.00  0.00    +0.000 OA
ATOM     59  H   UNK A   5      -2.089  12.681 135.720  0.00  0.00    +0.000 HD
BRANCH  57  60
ATOM     60  C   UNK A   5      -3.000  12.735 138.124  0.00  0.00    +0.000 C 
BRANCH  60  61
ATOM     61  C   UNK A   5      -4.069  13.176 139.120  0.00  0.00    +0.000 C 
BRANCH  61  62
ATOM     62  C   UNK A   5      -5.285  12.264 139.097  0.00  0.00    +0.000 C 
BRANCH  62  63
ATOM     63  C   UNK A   5      -6.438  12.907 139.859  0.00  0.00    +0.000 C 
BRANCH  63  64
ATOM     64  C   UNK A   5      -7.347  11.836 140.439  0.00  0.00    +0.000 C 
BRANCH  64  65
ATOM     65  C   UNK A   5      -8.684  11.829 139.716  0.00  0.00    +0.000 C 
BRANCH  65  66
ATOM     66  C   UNK A   5      -9.258  10.422 139.690  0.00  0.00    +0.000 C 
BRANCH  66  67
ATOM     67  C   UNK A   5      -8.157   9.411 139.409  0.00  0.00    +0.000 C 
BRANCH  67  68
ATOM     68  C   UNK A   5      -8.603   8.427 138.334  0.00  0.00    +0.000 C 
BRANCH  68  69
ATOM     69  C   UNK A   5      -9.283   9.166 137.191  0.00  0.00    +0.000 C 
BRANCH  69  70
ATOM     70  N   UNK A   5     -10.677   8.758 137.102  0.00  0.00    +0.000 NA
ATOM     71  H   UNK A   5     -10.785   8.077 136.351  0.00  0.00    +0.000 HD
ATOM     72  H   UNK A   5     -11.248   9.562 136.848  0.00  0.00    +0.000 HD
ENDBRANCH  69  70
ENDBRANCH  68  69
ENDBRANCH  67  68
ENDBRANCH  66  67
ENDBRANCH  65  66
ENDBRANCH  64  65
ENDBRANCH  63  64
ENDBRANCH  62  63
ENDBRANCH  61  62
ENDBRANCH  60  61
ENDBRANCH  57  60
ENDBRANCH  55  56
ENDBRANCH  54  55
ENDBRANCH  53  54
ENDBRANCH  52  53
ENDBRANCH  42  52
ENDBRANCH  40  42
ENDBRANCH  37  38
ENDBRANCH  18  31
BRANCH  22  73
ATOM     73  CB  ASN A   2      -5.300   2.876 128.659  0.00  0.00    +0.000 C 
BRANCH  73  74
ATOM     74  CG  ASN A   2      -4.127   2.118 128.227  0.00  0.00    +0.000 C 
ATOM     75  ND2 ASN A   2      -3.580   1.982 126.982  0.00  0.00    +0.000 N 
ATOM     76  OD1 ASN A   2      -3.381   2.093 129.219  0.00  0.00    +0.000 OA
ATOM     77 HD21 ASN A   2      -3.756   2.337 126.056  0.00  0.00    +0.000 HD
ATOM     78 HD22 ASN A   2      -3.430   1.217 126.370  0.00  0.00    +0.000 HD
ENDBRANCH  73  74
ENDBRANCH  22  73
BRANCH   9  79
ATOM     79  CB  TYR A   1      -8.470   0.783 130.951  0.00  0.00    +0.000 C 
BRANCH  79  80
ATOM     80  CG  TYR A   1      -9.122   2.295 130.429  0.00  0.00    +0.000 A 
ATOM     81  CD1 TYR A   1     -10.469   2.613 130.353  0.00  0.00    +0.000 A 
ATOM     82  CE1 TYR A   1     -11.155   3.717 130.717  0.00  0.00    +0.000 A 
ATOM     83  CZ  TYR A   1     -10.657   4.771 130.089  0.00  0.00    +0.000 A 
ATOM     84  CE2 TYR A   1      -9.318   4.655 129.714  0.00  0.00    +0.000 A 
ATOM     85  CD2 TYR A   1      -8.505   3.460 130.032  0.00  0.00    +0.000 A 
BRANCH  83  86
ATOM     86  OH  TYR A   1     -11.550   5.658 129.555  0.00  0.00    +0.000 OA
ATOM     87  HH  TYR A   1     -12.459   5.512 129.938  0.00  0.00    +0.000 HD
ENDBRANCH  83  86
ENDBRANCH  79  80
ENDBRANCH   9  79
BRANCH   5  88
ATOM     88  CB  TYR A   1      -8.161  -1.248 126.442  0.00  0.00    +0.000 C 
BRANCH  88  89
ATOM     89  CG  TYR A   1      -8.594  -1.764 125.137  0.00  0.00    +0.000 A 
ATOM     90  CD1 TYR A   1      -9.406  -2.889 124.970  0.00  0.00    +0.000 A 
ATOM     91  CE1 TYR A   1      -9.495  -3.504 123.750  0.00  0.00    +0.000 A 
ATOM     92  CZ  TYR A   1      -9.008  -2.824 122.651  0.00  0.00    +0.000 A 
ATOM     93  CE2 TYR A   1      -8.284  -1.637 122.795  0.00  0.00    +0.000 A 
ATOM     94  CD2 TYR A   1      -8.022  -1.132 124.047  0.00  0.00    +0.000 A 
ENDBRANCH  88  89
ENDBRANCH   5  88
BRANCH   1  95
ATOM     95  CB  TYR A   1      -5.666   3.297 124.818  0.00  0.00    +0.000 C 
BRANCH  95  97
ATOM     96  CD1 TYR A   1      -5.337   4.409 122.643  0.00  0.00    +0.000 C 
ATOM     97  CG  TYR A   1      -6.324   3.635 123.503  0.00  0.00    +0.000 C 
ATOM     98  CD2 TYR A   1      -6.772   2.380 122.782  0.00  0.00    +0.000 C 
ENDBRANCH  95  97
ENDBRANCH   1  95
TORSDOF 32
ENDMDL
MODEL 6
REMARK VINA RESULT:      -7.5      1.828      2.282
REMARK  Name = CHEMBL1765668
REMARK  34 active torsions:
REMARK  status: ('A' for Active; 'I' for Inactive)
REMARK    1  A    between atoms: CD1_1  and  CG_2
REMARK    2  A    between atoms: CG_2  and  CD2_3
REMARK    3  A    between atoms: CG_2  and  CB_4
REMARK    4  A    between atoms: CB_4  and  CA_5
REMARK    5  A    between atoms: CA_9  and  CB_10
REMARK    6  A    between atoms: CB_10  and  CG_11
REMARK    7  A    between atoms: CA_20  and  CB_21
REMARK    8  A    between atoms: CB_21  and  CG_22
REMARK    9  A    between atoms: CZ_25  and  OH_26
REMARK   10  A    between atoms: C_37  and  C_38
REMARK   11  A    between atoms: CA_44  and  C_45
REMARK   12  A    between atoms: N_47  and  C_48
REMARK   13  A    between atoms: C_48  and  C_49
REMARK   14  A    between atoms: C_48  and  C_67
REMARK   15  A    between atoms: C_49  and  C_50
REMARK   16  A    between atoms: C_50  and  C_51
REMARK   17  A    between atoms: C_51  and  C_52
REMARK   18  A    between atoms: C_52  and  N_53
REMARK   19  A    between atoms: C_54  and  C_56
REMARK   20  A    between atoms: C_56  and  C_57
REMARK   21  A    between atoms: C_57  and  C_58
REMARK   22  A    between atoms: C_58  and  C_59
REMARK   23  A    between atoms: C_59  and  C_60
REMARK   24  A    between atoms: C_60  and  C_61
REMARK   25  A    between atoms: C_61  and  C_62
REMARK   26  A    between atoms: C_62  and  C_63
REMARK   27  A    between atoms: C_63  and  C_64
REMARK   28  A    between atoms: C_64  and  C_65
REMARK   29  A    between atoms: C_65  and  N_66
REMARK   30  A    between atoms: N_69  and  CA_70
REMARK   31  A    between atoms: CA_70  and  C_71
REMARK   32  A    between atoms: C_71  and  OXT_73
REMARK   33  A    between atoms: CA_77  and  CB_78
REMARK   34  A    between atoms: CB_78  and  CG_79
REMARK                            x       y       z     vdW  Elec       q    Type
REMARK                         _______ _______ _______ _____ _____    ______ ____
ROOT
ATOM      1  CA  TYR A   1      -7.360   1.863 131.011  0.00  0.00    +0.000 C 
ATOM      2  N   TYR A   1      -8.042   0.633 130.500  0.00  0.00    +0.000 N 
ATOM      3  C   TYR A   1      -7.543  -0.651 130.548  0.00  0.00    +0.000 C 
ATOM      4  O   TYR A   1      -8.179  -1.498 131.199  0.00  0.00    +0.000 OA
ATOM      5  CA  TYR A   1      -6.112  -1.028 129.942  0.00  0.00    +0.000 C 
ATOM      6  N   TYR A   1      -4.769  -1.161 130.585  0.00  0.00    +0.000 N 
ATOM      7  C   TYR A   1      -4.235  -2.203 131.457  0.00  0.00    +0.000 C 
ATOM      8  O   TYR A   1      -2.995  -2.261 131.480  0.00  0.00    +0.000 OA
ATOM      9  CA  TYR A   1      -5.217  -3.225 132.661  0.00  0.00    +0.000 C 
ATOM     10  N   TYR A   1      -4.374  -4.350 132.866  0.00  0.00    +0.000 N 
ATOM     11  C   UNK A   0      -3.185  -4.287 133.538  0.00  0.00    +0.000 C 
ATOM     12  O   UNK A   0      -2.422  -5.216 133.337  0.00  0.00    +0.000 OA
ATOM     13  C   UNK A   0      -2.799  -3.167 134.572  0.00  0.00    +0.000 C 
ATOM     14  C   UNK A   0      -3.493  -1.835 134.766  0.00  0.00    +0.000 C 
ATOM     15  S   UNK A   3      -2.905  -0.450 135.832  0.00  0.00    +0.000 S 
ATOM     16  S   UNK A   3      -4.722   0.507 136.326  0.00  0.00    +0.000 S 
ATOM     17  C   UNK A   3      -4.391   2.334 136.409  0.00  0.00    +0.000 C 
ATOM     18  C   UNK A   3      -5.452   3.463 136.392  0.00  0.00    +0.000 C 
ATOM     19  N   UNK A   3      -5.525   4.124 135.070  0.00  0.00    +0.000 N 
ATOM     20  C   ASN A   2      -5.792   3.539 133.911  0.00  0.00    +0.000 C 
ATOM     21  O   ASN A   2      -5.671   4.172 132.800  0.00  0.00    +0.000 OA
ATOM     22  CA  ASN A   2      -6.338   2.156 133.929  0.00  0.00    +0.000 C 
ATOM     23  N   ASN A   2      -7.640   2.449 133.424  0.00  0.00    +0.000 N 
ATOM     24  C   TYR A   1      -8.177   2.442 132.187  0.00  0.00    +0.000 C 
ATOM     25  O   TYR A   1      -9.401   2.611 132.156  0.00  0.00    +0.000 OA
ATOM     26  H   TYR A   1      -9.027   0.593 130.773  0.00  0.00    +0.000 HD
ATOM     27  H   TYR A   1      -4.287  -0.271 130.748  0.00  0.00    +0.000 HD
ATOM     28  H   TYR A   1      -4.366  -5.030 132.105  0.00  0.00    +0.000 HD
ATOM     29  H   UNK A   3      -5.313   5.121 135.005  0.00  0.00    +0.000 HD
ATOM     30  H   ASN A   2      -8.296   2.625 134.181  0.00  0.00    +0.000 HD
ENDROOT
BRANCH  18  31
ATOM     31  C   UNK A   3      -5.192   4.603 137.451  0.00  0.00    +0.000 C 
ATOM     32  O   UNK A   3      -5.672   4.494 138.587  0.00  0.00    +0.000 OA
ATOM     33  N   PRO A   4      -4.229   5.560 137.166  0.00  0.00    +0.000 N 
ATOM     34  CD  PRO A   4      -4.069   6.387 135.980  0.00  0.00    +0.000 C 
ATOM     35  CG  PRO A   4      -2.576   6.521 135.915  0.00  0.00    +0.000 C 
ATOM     36  CB  PRO A   4      -2.236   6.841 137.358  0.00  0.00    +0.000 C 
ATOM     37  CA  PRO A   4      -3.312   6.116 138.197  0.00  0.00    +0.000 C 
BRANCH  37  38
ATOM     38  C   PRO A   4      -3.939   7.226 139.064  0.00  0.00    +0.000 C 
ATOM     39  O   PRO A   4      -3.658   7.310 140.261  0.00  0.00    +0.000 OA
ATOM     40  N   UNK A   5      -4.889   8.047 138.462  0.00  0.00    +0.000 N 
ATOM     41  H   UNK A   5      -5.331   7.775 137.589  0.00  0.00    +0.000 HD
BRANCH  40  42
ATOM     42  C   UNK A   5      -5.438   9.268 139.117  0.00  0.00    +0.000 C 
BRANCH  42  43
ATOM     43  C   UNK A   5      -6.976   9.118 139.413  0.00  0.00    +0.000 C 
ATOM     44  O   UNK A   5      -7.387   8.354 140.290  0.00  0.00    +0.000 OA
ATOM     45  N   GLY A   6      -7.853   9.875 138.655  0.00  0.00    +0.000 N 
ATOM     46  H   GLY A   6      -7.517  10.517 137.941  0.00  0.00    +0.000 HD
BRANCH  45  47
ATOM     47  CA  GLY A   6      -9.316   9.803 138.817  0.00  0.00    +0.000 C 
BRANCH  47  48
ATOM     48  C   GLY A   6      -9.935   8.752 137.891  0.00  0.00    +0.000 C 
ATOM     49  O   GLY A   6     -11.101   8.797 137.513  0.00  0.00    +0.000 OA
BRANCH  48  50
ATOM     50  OXT GLY A   6      -9.106   7.755 137.504  0.00  0.00    +0.000 OA
ATOM     51  HXT GLY A   6      -9.333   6.847 137.781  0.00  0.00    +0.000 HD
ENDBRANCH  48  50
ENDBRANCH  47  48
ENDBRANCH  45  47
ENDBRANCH  42  43
BRANCH  42  52
ATOM     52  C   UNK A   5      -5.216  10.505 138.216  0.00  0.00    +0.000 C 
BRANCH  52  53
ATOM     53  C   UNK A   5      -4.435  10.172 136.951  0.00  0.00    +0.000 C 
BRANCH  53  54
ATOM     54  C   UNK A   5      -3.279  11.085 136.637  0.00  0.00    +0.000 C 
BRANCH  54  55
ATOM     55  C   UNK A   5      -1.984  10.407 137.075  0.00  0.00    +0.000 C 
BRANCH  55  56
ATOM     56  N   UNK A   5      -1.203   9.989 135.935  0.00  0.00    +0.000 N 
ATOM     57  C   UNK A   5       0.070   9.504 136.114  0.00  0.00    +0.000 C 
ATOM     58  O   UNK A   5       0.595   9.419 137.225  0.00  0.00    +0.000 OA
ATOM     59  H   UNK A   5      -1.621  10.015 135.015  0.00  0.00    +0.000 HD
BRANCH  57  60
ATOM     60  C   UNK A   5       0.773   9.096 134.835  0.00  0.00    +0.000 C 
BRANCH  60  61
ATOM     61  C   UNK A   5      -0.256   8.798 133.748  0.00  0.00    +0.000 C 
BRANCH  61  62
ATOM     62  C   UNK A   5      -0.029   7.442 133.099  0.00  0.00    +0.000 C 
BRANCH  62  63
ATOM     63  C   UNK A   5      -1.343   6.888 132.562  0.00  0.00    +0.000 C 
BRANCH  63  64
ATOM     64  C   UNK A   5      -1.199   5.410 132.238  0.00  0.00    +0.000 C 
BRANCH  64  65
ATOM     65  C   UNK A   5      -2.510   4.857 131.703  0.00  0.00    +0.000 C 
BRANCH  65  66
ATOM     66  C   UNK A   5      -2.775   5.398 130.308  0.00  0.00    +0.000 C 
BRANCH  66  67
ATOM     67  C   UNK A   5      -3.257   4.282 129.394  0.00  0.00    +0.000 C 
BRANCH  67  68
ATOM     68  C   UNK A   5      -2.742   4.500 127.976  0.00  0.00    +0.000 C 
BRANCH  68  69
ATOM     69  C   UNK A   5      -2.363   3.170 127.342  0.00  0.00    +0.000 C 
BRANCH  69  70
ATOM     70  N   UNK A   5      -1.392   3.391 126.280  0.00  0.00    +0.000 NA
ATOM     71  H   UNK A   5      -1.285   2.537 125.734  0.00  0.00    +0.000 HD
ATOM     72  H   UNK A   5      -0.482   3.589 126.691  0.00  0.00    +0.000 HD
ENDBRANCH  69  70
ENDBRANCH  68  69
ENDBRANCH  67  68
ENDBRANCH  66  67
ENDBRANCH  65  66
ENDBRANCH  64  65
ENDBRANCH  63  64
ENDBRANCH  62  63
ENDBRANCH  61  62
ENDBRANCH  60  61
ENDBRANCH  57  60
ENDBRANCH  55  56
ENDBRANCH  54  55
ENDBRANCH  53  54
ENDBRANCH  52  53
ENDBRANCH  42  52
ENDBRANCH  40  42
ENDBRANCH  37  38
ENDBRANCH  18  31
BRANCH  22  73
ATOM     73  CB  ASN A   2      -5.291   1.357 133.238  0.00  0.00    +0.000 C 
BRANCH  73  74
ATOM     74  CG  ASN A   2      -3.947   1.614 132.725  0.00  0.00    +0.000 C 
ATOM     75  ND2 ASN A   2      -2.735   1.504 133.346  0.00  0.00    +0.000 N 
ATOM     76  OD1 ASN A   2      -4.022   1.384 131.506  0.00  0.00    +0.000 OA
ATOM     77 HD21 ASN A   2      -2.391   1.217 134.249  0.00  0.00    +0.000 HD
ATOM     78 HD22 ASN A   2      -2.011   2.143 133.572  0.00  0.00    +0.000 HD
ENDBRANCH  73  74
ENDBRANCH  22  73
BRANCH   9  79
ATOM     79  CB  TYR A   1      -6.199  -2.865 134.255  0.00  0.00    +0.000 C 
BRANCH  79  80
ATOM     80  CG  TYR A   1      -7.069  -3.917 135.315  0.00  0.00    +0.000 A 
ATOM     81  CD1 TYR A   1      -7.790  -3.525 136.432  0.00  0.00    +0.000 A 
ATOM     82  CE1 TYR A   1      -9.006  -3.890 136.891  0.00  0.00    +0.000 A 
ATOM     83  CZ  TYR A   1      -9.031  -5.200 137.076  0.00  0.00    +0.000 A 
ATOM     84  CE2 TYR A   1      -8.141  -5.924 136.283  0.00  0.00    +0.000 A 
ATOM     85  CD2 TYR A   1      -7.264  -5.279 135.281  0.00  0.00    +0.000 A 
BRANCH  83  86
ATOM     86  OH  TYR A   1      -9.608  -5.656 138.229  0.00  0.00    +0.000 OA
ATOM     87  HH  TYR A   1     -10.293  -6.352 138.025  0.00  0.00    +0.000 HD
ENDBRANCH  83  86
ENDBRANCH  79  80
ENDBRANCH   9  79
BRANCH   5  88
ATOM     88  CB  TYR A   1      -6.158  -2.389 129.324  0.00  0.00    +0.000 C 
BRANCH  88  89
ATOM     89  CG  TYR A   1      -7.081  -2.607 128.202  0.00  0.00    +0.000 A 
ATOM     90  CD1 TYR A   1      -7.086  -1.843 127.032  0.00  0.00    +0.000 A 
ATOM     91  CE1 TYR A   1      -8.163  -1.876 126.188  0.00  0.00    +0.000 A 
ATOM     92  CZ  TYR A   1      -9.091  -2.883 126.369  0.00  0.00    +0.000 A 
ATOM     93  CE2 TYR A   1      -9.037  -3.727 127.482  0.00  0.00    +0.000 A 
ATOM     94  CD2 TYR A   1      -8.063  -3.554 128.437  0.00  0.00    +0.000 A 
ENDBRANCH  88  89
ENDBRANCH   5  88
BRANCH   1  95
ATOM     95  CB  TYR A   1      -6.857   2.948 130.063  0.00  0.00    +0.000 C 
BRANCH  95  97
ATOM     96  CD1 TYR A   1      -8.375   4.735 129.303  0.00  0.00    +0.000 C 
ATOM     97  CG  TYR A   1      -7.917   3.307 129.052  0.00  0.00    +0.000 C 
ATOM     98  CD2 TYR A   1      -7.387   3.170 127.639  0.00  0.00    +0.000 C 
ENDBRANCH  95  97
ENDBRANCH   1  95
TORSDOF 32
ENDMDL
MODEL 7
REMARK VINA RESULT:      -7.4      2.584      5.932
REMARK  Name = CHEMBL1765668
REMARK  34 active torsions:
REMARK  status: ('A' for Active; 'I' for Inactive)
REMARK    1  A    between atoms: CD1_1  and  CG_2
REMARK    2  A    between atoms: CG_2  and  CD2_3
REMARK    3  A    between atoms: CG_2  and  CB_4
REMARK    4  A    between atoms: CB_4  and  CA_5
REMARK    5  A    between atoms: CA_9  and  CB_10
REMARK    6  A    between atoms: CB_10  and  CG_11
REMARK    7  A    between atoms: CA_20  and  CB_21
REMARK    8  A    between atoms: CB_21  and  CG_22
REMARK    9  A    between atoms: CZ_25  and  OH_26
REMARK   10  A    between atoms: C_37  and  C_38
REMARK   11  A    between atoms: CA_44  and  C_45
REMARK   12  A    between atoms: N_47  and  C_48
REMARK   13  A    between atoms: C_48  and  C_49
REMARK   14  A    between atoms: C_48  and  C_67
REMARK   15  A    between atoms: C_49  and  C_50
REMARK   16  A    between atoms: C_50  and  C_51
REMARK   17  A    between atoms: C_51  and  C_52
REMARK   18  A    between atoms: C_52  and  N_53
REMARK   19  A    between atoms: C_54  and  C_56
REMARK   20  A    between atoms: C_56  and  C_57
REMARK   21  A    between atoms: C_57  and  C_58
REMARK   22  A    between atoms: C_58  and  C_59
REMARK   23  A    between atoms: C_59  and  C_60
REMARK   24  A    between atoms: C_60  and  C_61
REMARK   25  A    between atoms: C_61  and  C_62
REMARK   26  A    between atoms: C_62  and  C_63
REMARK   27  A    between atoms: C_63  and  C_64
REMARK   28  A    between atoms: C_64  and  C_65
REMARK   29  A    between atoms: C_65  and  N_66
REMARK   30  A    between atoms: N_69  and  CA_70
REMARK   31  A    between atoms: CA_70  and  C_71
REMARK   32  A    between atoms: C_71  and  OXT_73
REMARK   33  A    between atoms: CA_77  and  CB_78
REMARK   34  A    between atoms: CB_78  and  CG_79
REMARK                            x       y       z     vdW  Elec       q    Type
REMARK                         _______ _______ _______ _____ _____    ______ ____
ROOT
ATOM      1  CA  TYR A   1      -6.642   2.566 126.531  0.00  0.00    +0.000 C 
ATOM      2  N   TYR A   1      -7.668   1.507 126.272  0.00  0.00    +0.000 N 
ATOM      3  C   TYR A   1      -7.660   0.228 126.786  0.00  0.00    +0.000 C 
ATOM      4  O   TYR A   1      -8.609  -0.111 127.515  0.00  0.00    +0.000 OA
ATOM      5  CA  TYR A   1      -6.408  -0.750 126.607  0.00  0.00    +0.000 C 
ATOM      6  N   TYR A   1      -5.260  -1.063 127.512  0.00  0.00    +0.000 N 
ATOM      7  C   TYR A   1      -5.206  -1.859 128.735  0.00  0.00    +0.000 C 
ATOM      8  O   TYR A   1      -4.074  -2.282 129.017  0.00  0.00    +0.000 OA
ATOM      9  CA  TYR A   1      -6.587  -2.062 129.964  0.00  0.00    +0.000 C 
ATOM     10  N   TYR A   1      -6.217  -3.252 130.646  0.00  0.00    +0.000 N 
ATOM     11  C   UNK A   0      -5.145  -3.333 131.492  0.00  0.00    +0.000 C 
ATOM     12  O   UNK A   0      -4.745  -4.461 131.720  0.00  0.00    +0.000 OA
ATOM     13  C   UNK A   0      -4.480  -2.105 132.214  0.00  0.00    +0.000 C 
ATOM     14  C   UNK A   0      -4.672  -0.641 131.875  0.00  0.00    +0.000 C 
ATOM     15  S   UNK A   3      -3.727   0.772 132.591  0.00  0.00    +0.000 S 
ATOM     16  S   UNK A   3      -5.125   2.347 132.422  0.00  0.00    +0.000 S 
ATOM     17  C   UNK A   3      -4.178   3.900 132.038  0.00  0.00    +0.000 C 
ATOM     18  C   UNK A   3      -4.766   5.223 131.488  0.00  0.00    +0.000 C 
ATOM     19  N   UNK A   3      -4.486   5.387 130.045  0.00  0.00    +0.000 N 
ATOM     20  C   ASN A   2      -4.841   4.557 129.074  0.00  0.00    +0.000 C 
ATOM     21  O   ASN A   2      -4.408   4.708 127.874  0.00  0.00    +0.000 OA
ATOM     22  CA  ASN A   2      -5.839   3.499 129.382  0.00  0.00    +0.000 C 
ATOM     23  N   ASN A   2      -6.905   3.988 128.568  0.00  0.00    +0.000 N 
ATOM     24  C   TYR A   1      -7.301   3.728 127.306  0.00  0.00    +0.000 C 
ATOM     25  O   TYR A   1      -8.379   4.243 126.988  0.00  0.00    +0.000 OA
ATOM     26  H   TYR A   1      -8.623   1.866 126.346  0.00  0.00    +0.000 HD
ATOM     27  H   TYR A   1      -4.511  -0.364 127.503  0.00  0.00    +0.000 HD
ATOM     28  H   TYR A   1      -6.383  -4.117 130.131  0.00  0.00    +0.000 HD
ATOM     29  H   UNK A   3      -3.931   6.188 129.738  0.00  0.00    +0.000 HD
ATOM     30  H   ASN A   2      -7.519   4.601 129.099  0.00  0.00    +0.000 HD
ENDROOT
BRANCH  18  31
ATOM     31  C   UNK A   3      -4.213   6.516 132.204  0.00  0.00    +0.000 C 
ATOM     32  O   UNK A   3      -4.954   7.148 132.969  0.00  0.00    +0.000 OA
ATOM     33  N   PRO A   4      -2.848   6.761 132.158  0.00  0.00    +0.000 N 
ATOM     34  CD  PRO A   4      -1.952   6.801 131.014  0.00  0.00    +0.000 C 
ATOM     35  CG  PRO A   4      -0.679   6.287 131.619  0.00  0.00    +0.000 C 
ATOM     36  CB  PRO A   4      -0.615   7.076 132.912  0.00  0.00    +0.000 C 
ATOM     37  CA  PRO A   4      -2.089   7.318 133.311  0.00  0.00    +0.000 C 
BRANCH  37  38
ATOM     38  C   PRO A   4      -2.203   8.849 133.458  0.00  0.00    +0.000 C 
ATOM     39  O   PRO A   4      -2.558   9.539 132.501  0.00  0.00    +0.000 OA
ATOM     40  N   UNK A   5      -1.801   9.406 134.670  0.00  0.00    +0.000 N 
ATOM     41  H   UNK A   5      -1.229   8.874 135.321  0.00  0.00    +0.000 HD
BRANCH  40  42
ATOM     42  C   UNK A   5      -2.026  10.836 135.020  0.00  0.00    +0.000 C 
BRANCH  42  43
ATOM     43  C   UNK A   5      -1.085  11.785 134.191  0.00  0.00    +0.000 C 
ATOM     44  O   UNK A   5      -1.538  12.738 133.552  0.00  0.00    +0.000 OA
ATOM     45  N   GLY A   6       0.274  11.515 134.206  0.00  0.00    +0.000 N 
ATOM     46  H   GLY A   6       0.653  10.739 134.745  0.00  0.00    +0.000 HD
BRANCH  45  47
ATOM     47  CA  GLY A   6       1.255  12.312 133.450  0.00  0.00    +0.000 C 
BRANCH  47  48
ATOM     48  C   GLY A   6       1.828  13.453 134.296  0.00  0.00    +0.000 C 
ATOM     49  O   GLY A   6       1.581  13.590 135.489  0.00  0.00    +0.000 OA
BRANCH  48  50
ATOM     50  OXT GLY A   6       2.640  14.314 133.639  0.00  0.00    +0.000 OA
ATOM     51  HXT GLY A   6       3.584  14.321 133.885  0.00  0.00    +0.000 HD
ENDBRANCH  48  50
ENDBRANCH  47  48
ENDBRANCH  45  47
ENDBRANCH  42  43
BRANCH  42  52
ATOM     52  C   UNK A   5      -1.773  11.064 136.528  0.00  0.00    +0.000 C 
BRANCH  52  53
ATOM     53  C   UNK A   5      -3.056  11.350 137.299  0.00  0.00    +0.000 C 
BRANCH  53  54
ATOM     54  C   UNK A   5      -2.936  12.350 138.419  0.00  0.00    +0.000 C 
BRANCH  54  55
ATOM     55  C   UNK A   5      -4.333  12.834 138.798  0.00  0.00    +0.000 C 
BRANCH  55  56
ATOM     56  N   UNK A   5      -5.175  11.732 139.200  0.00  0.00    +0.000 N 
ATOM     57  C   UNK A   5      -6.500  11.950 139.493  0.00  0.00    +0.000 C 
ATOM     58  O   UNK A   5      -7.013  13.069 139.439  0.00  0.00    +0.000 OA
ATOM     59  H   UNK A   5      -4.789  10.798 139.219  0.00  0.00    +0.000 HD
BRANCH  57  60
ATOM     60  C   UNK A   5      -7.268  10.707 139.893  0.00  0.00    +0.000 C 
BRANCH  60  61
ATOM     61  C   UNK A   5      -6.751   9.501 139.114  0.00  0.00    +0.000 C 
BRANCH  61  62
ATOM     62  C   UNK A   5      -7.674   9.118 137.970  0.00  0.00    +0.000 C 
BRANCH  62  63
ATOM     63  C   UNK A   5      -8.436   7.843 138.312  0.00  0.00    +0.000 C 
BRANCH  63  64
ATOM     64  C   UNK A   5      -7.466   6.695 138.540  0.00  0.00    +0.000 C 
BRANCH  64  65
ATOM     65  C   UNK A   5      -6.815   6.286 137.228  0.00  0.00    +0.000 C 
BRANCH  65  66
ATOM     66  C   UNK A   5      -7.881   6.001 136.183  0.00  0.00    +0.000 C 
BRANCH  66  67
ATOM     67  C   UNK A   5      -7.271   5.274 134.995  0.00  0.00    +0.000 C 
BRANCH  67  68
ATOM     68  C   UNK A   5      -8.351   4.917 133.981  0.00  0.00    +0.000 C 
BRANCH  68  69
ATOM     69  C   UNK A   5      -8.307   5.875 132.801  0.00  0.00    +0.000 C 
BRANCH  69  70
ATOM     70  N   UNK A   5      -9.659   6.277 132.443  0.00  0.00    +0.000 NA
ATOM     71  H   UNK A   5      -9.620   7.059 131.789  0.00  0.00    +0.000 HD
ATOM     72  H   UNK A   5     -10.140   6.617 133.273  0.00  0.00    +0.000 HD
ENDBRANCH  69  70
ENDBRANCH  68  69
ENDBRANCH  67  68
ENDBRANCH  66  67
ENDBRANCH  65  66
ENDBRANCH  64  65
ENDBRANCH  63  64
ENDBRANCH  62  63
ENDBRANCH  61  62
ENDBRANCH  60  61
ENDBRANCH  57  60
ENDBRANCH  55  56
ENDBRANCH  54  55
ENDBRANCH  53  54
ENDBRANCH  52  53
ENDBRANCH  42  52
ENDBRANCH  40  42
ENDBRANCH  37  38
ENDBRANCH  18  31
BRANCH  22  73
ATOM     73  CB  ASN A   2      -5.087   2.234 129.171  0.00  0.00    +0.000 C 
BRANCH  73  74
ATOM     74  CG  ASN A   2      -3.776   1.873 128.633  0.00  0.00    +0.000 C 
ATOM     75  ND2 ASN A   2      -3.197   2.203 127.440  0.00  0.00    +0.000 N 
ATOM     76  OD1 ASN A   2      -3.054   1.718 129.631  0.00  0.00    +0.000 OA
ATOM     77 HD21 ASN A   2      -3.431   2.762 126.635  0.00  0.00    +0.000 HD
ATOM     78 HD22 ASN A   2      -2.883   1.685 126.655  0.00  0.00    +0.000 HD
ENDBRANCH  73  74
ENDBRANCH  22  73
BRANCH   9  79
ATOM     79  CB  TYR A   1      -7.513  -0.902 131.162  0.00  0.00    +0.000 C 
BRANCH  79  80
ATOM     80  CG  TYR A   1      -8.509   0.478 130.863  0.00  0.00    +0.000 A 
ATOM     81  CD1 TYR A   1      -9.524   0.938 131.687  0.00  0.00    +0.000 A 
ATOM     82  CE1 TYR A   1      -9.859   2.180 132.093  0.00  0.00    +0.000 A 
ATOM     83  CZ  TYR A   1     -10.089   2.942 131.035  0.00  0.00    +0.000 A 
ATOM     84  CE2 TYR A   1      -9.427   2.549 129.872  0.00  0.00    +0.000 A 
ATOM     85  CD2 TYR A   1      -8.504   1.393 129.835  0.00  0.00    +0.000 A 
BRANCH  83  86
ATOM     86  OH  TYR A   1     -11.188   3.755 131.080  0.00  0.00    +0.000 OA
ATOM     87  HH  TYR A   1     -11.015   4.604 130.584  0.00  0.00    +0.000 HD
ENDBRANCH  83  86
ENDBRANCH  79  80
ENDBRANCH   9  79
BRANCH   5  88
ATOM     88  CB  TYR A   1      -6.879  -2.157 126.411  0.00  0.00    +0.000 C 
BRANCH  88  89
ATOM     89  CG  TYR A   1      -7.564  -2.487 125.154  0.00  0.00    +0.000 A 
ATOM     90  CD1 TYR A   1      -7.175  -2.006 123.901  0.00  0.00    +0.000 A 
ATOM     91  CE1 TYR A   1      -8.033  -2.075 122.837  0.00  0.00    +0.000 A 
ATOM     92  CZ  TYR A   1      -9.149  -2.878 122.962  0.00  0.00    +0.000 A 
ATOM     93  CE2 TYR A   1      -9.493  -3.457 124.187  0.00  0.00    +0.000 A 
ATOM     94  CD2 TYR A   1      -8.732  -3.213 125.306  0.00  0.00    +0.000 A 
ENDBRANCH  88  89
ENDBRANCH   5  88
BRANCH   1  95
ATOM     95  CB  TYR A   1      -5.708   3.057 125.429  0.00  0.00    +0.000 C 
BRANCH  95  97
ATOM     96  CD1 TYR A   1      -5.926   5.425 124.782  0.00  0.00    +0.000 C 
ATOM     97  CG  TYR A   1      -6.424   4.015 124.510  0.00  0.00    +0.000 C 
ATOM     98  CD2 TYR A   1      -6.190   3.650 123.058  0.00  0.00    +0.000 C 
ENDBRANCH  95  97
ENDBRANCH   1  95
TORSDOF 32
ENDMDL
MODEL 8
REMARK VINA RESULT:      -7.4      1.579      2.893
REMARK  Name = CHEMBL1765668
REMARK  34 active torsions:
REMARK  status: ('A' for Active; 'I' for Inactive)
REMARK    1  A    between atoms: CD1_1  and  CG_2
REMARK    2  A    between atoms: CG_2  and  CD2_3
REMARK    3  A    between atoms: CG_2  and  CB_4
REMARK    4  A    between atoms: CB_4  and  CA_5
REMARK    5  A    between atoms: CA_9  and  CB_10
REMARK    6  A    between atoms: CB_10  and  CG_11
REMARK    7  A    between atoms: CA_20  and  CB_21
REMARK    8  A    between atoms: CB_21  and  CG_22
REMARK    9  A    between atoms: CZ_25  and  OH_26
REMARK   10  A    between atoms: C_37  and  C_38
REMARK   11  A    between atoms: CA_44  and  C_45
REMARK   12  A    between atoms: N_47  and  C_48
REMARK   13  A    between atoms: C_48  and  C_49
REMARK   14  A    between atoms: C_48  and  C_67
REMARK   15  A    between atoms: C_49  and  C_50
REMARK   16  A    between atoms: C_50  and  C_51
REMARK   17  A    between atoms: C_51  and  C_52
REMARK   18  A    between atoms: C_52  and  N_53
REMARK   19  A    between atoms: C_54  and  C_56
REMARK   20  A    between atoms: C_56  and  C_57
REMARK   21  A    between atoms: C_57  and  C_58
REMARK   22  A    between atoms: C_58  and  C_59
REMARK   23  A    between atoms: C_59  and  C_60
REMARK   24  A    between atoms: C_60  and  C_61
REMARK   25  A    between atoms: C_61  and  C_62
REMARK   26  A    between atoms: C_62  and  C_63
REMARK   27  A    between atoms: C_63  and  C_64
REMARK   28  A    between atoms: C_64  and  C_65
REMARK   29  A    between atoms: C_65  and  N_66
REMARK   30  A    between atoms: N_69  and  CA_70
REMARK   31  A    between atoms: CA_70  and  C_71
REMARK   32  A    between atoms: C_71  and  OXT_73
REMARK   33  A    between atoms: CA_77  and  CB_78
REMARK   34  A    between atoms: CB_78  and  CG_79
REMARK                            x       y       z     vdW  Elec       q    Type
REMARK                         _______ _______ _______ _____ _____    ______ ____
ROOT
ATOM      1  CA  TYR A   1      -7.438   2.456 128.619  0.00  0.00    +0.000 C 
ATOM      2  N   TYR A   1      -7.979   1.175 128.065  0.00  0.00    +0.000 N 
ATOM      3  C   TYR A   1      -7.468  -0.085 128.290  0.00  0.00    +0.000 C 
ATOM      4  O   TYR A   1      -8.199  -0.915 128.858  0.00  0.00    +0.000 OA
ATOM      5  CA  TYR A   1      -5.938  -0.445 127.996  0.00  0.00    +0.000 C 
ATOM      6  N   TYR A   1      -4.744  -0.494 128.894  0.00  0.00    +0.000 N 
ATOM      7  C   TYR A   1      -4.365  -1.464 129.917  0.00  0.00    +0.000 C 
ATOM      8  O   TYR A   1      -3.153  -1.477 130.182  0.00  0.00    +0.000 OA
ATOM      9  CA  TYR A   1      -5.538  -2.450 130.971  0.00  0.00    +0.000 C 
ATOM     10  N   TYR A   1      -4.725  -3.530 131.405  0.00  0.00    +0.000 N 
ATOM     11  C   UNK A   0      -3.692  -3.387 132.289  0.00  0.00    +0.000 C 
ATOM     12  O   UNK A   0      -2.883  -4.297 132.298  0.00  0.00    +0.000 OA
ATOM     13  C   UNK A   0      -3.542  -2.196 133.304  0.00  0.00    +0.000 C 
ATOM     14  C   UNK A   0      -4.291  -0.880 133.276  0.00  0.00    +0.000 C 
ATOM     15  S   UNK A   3      -3.954   0.585 134.346  0.00  0.00    +0.000 S 
ATOM     16  S   UNK A   3      -5.855   1.503 134.418  0.00  0.00    +0.000 S 
ATOM     17  C   UNK A   3      -5.589   3.343 134.447  0.00  0.00    +0.000 C 
ATOM     18  C   UNK A   3      -6.653   4.430 134.154  0.00  0.00    +0.000 C 
ATOM     19  N   UNK A   3      -6.482   5.011 132.804  0.00  0.00    +0.000 N 
ATOM     20  C   ASN A   2      -6.505   4.351 131.654  0.00  0.00    +0.000 C 
ATOM     21  O   ASN A   2      -6.185   4.923 130.549  0.00  0.00    +0.000 OA
ATOM     22  CA  ASN A   2      -7.011   2.953 131.654  0.00  0.00    +0.000 C 
ATOM     23  N   ASN A   2      -8.197   3.170 130.890  0.00  0.00    +0.000 N 
ATOM     24  C   TYR A   1      -8.482   3.073 129.575  0.00  0.00    +0.000 C 
ATOM     25  O   TYR A   1      -9.680   3.196 129.298  0.00  0.00    +0.000 OA
ATOM     26  H   TYR A   1      -8.997   1.117 128.145  0.00  0.00    +0.000 HD
ATOM     27  H   TYR A   1      -4.323   0.420 129.089  0.00  0.00    +0.000 HD
ATOM     28  H   TYR A   1      -4.553  -4.253 130.705  0.00  0.00    +0.000 HD
ATOM     29  H   UNK A   3      -6.286   6.010 132.717  0.00  0.00    +0.000 HD
ATOM     30  H   ASN A   2      -8.991   3.366 131.493  0.00  0.00    +0.000 HD
ENDROOT
BRANCH  18  31
ATOM     31  C   UNK A   3      -6.630   5.638 135.169  0.00  0.00    +0.000 C 
ATOM     32  O   UNK A   3      -7.703   6.103 135.579  0.00  0.00    +0.000 OA
ATOM     33  N   PRO A   4      -5.425   5.975 135.766  0.00  0.00    +0.000 N 
ATOM     34  CD  PRO A   4      -4.131   6.239 135.156  0.00  0.00    +0.000 C 
ATOM     35  CG  PRO A   4      -3.198   5.726 136.213  0.00  0.00    +0.000 C 
ATOM     36  CB  PRO A   4      -3.803   6.321 137.469  0.00  0.00    +0.000 C 
ATOM     37  CA  PRO A   4      -5.320   6.406 137.186  0.00  0.00    +0.000 C 
BRANCH  37  38
ATOM     38  C   PRO A   4      -5.674   7.889 137.422  0.00  0.00    +0.000 C 
ATOM     39  O   PRO A   4      -6.853   8.240 137.494  0.00  0.00    +0.000 OA
ATOM     40  N   UNK A   5      -4.621   8.801 137.450  0.00  0.00    +0.000 N 
ATOM     41  H   UNK A   5      -3.708   8.549 137.084  0.00  0.00    +0.000 HD
BRANCH  40  42
ATOM     42  C   UNK A   5      -4.793  10.226 137.848  0.00  0.00    +0.000 C 
BRANCH  42  43
ATOM     43  C   UNK A   5      -3.688  11.140 137.203  0.00  0.00    +0.000 C 
ATOM     44  O   UNK A   5      -3.160  12.054 137.841  0.00  0.00    +0.000 OA
ATOM     45  N   GLY A   6      -3.327  10.882 135.891  0.00  0.00    +0.000 N 
ATOM     46  H   GLY A   6      -3.749  10.119 135.366  0.00  0.00    +0.000 HD
BRANCH  45  47
ATOM     47  CA  GLY A   6      -2.325  11.682 135.166  0.00  0.00    +0.000 C 
BRANCH  47  48
ATOM     48  C   GLY A   6      -2.487  11.549 133.649  0.00  0.00    +0.000 C 
ATOM     49  O   GLY A   6      -2.226  10.520 133.036  0.00  0.00    +0.000 OA
BRANCH  48  50
ATOM     50  OXT GLY A   6      -2.946  12.652 133.012  0.00  0.00    +0.000 OA
ATOM     51  HXT GLY A   6      -3.599  13.205 133.482  0.00  0.00    +0.000 HD
ENDBRANCH  48  50
ENDBRANCH  47  48
ENDBRANCH  45  47
ENDBRANCH  42  43
BRANCH  42  52
ATOM     52  C   UNK A   5      -4.727  10.363 139.387  0.00  0.00    +0.000 C 
BRANCH  52  53
ATOM     53  C   UNK A   5      -3.704   9.423 140.013  0.00  0.00    +0.000 C 
BRANCH  53  54
ATOM     54  C   UNK A   5      -2.514  10.087 140.654  0.00  0.00    +0.000 C 
BRANCH  54  55
ATOM     55  C   UNK A   5      -1.252   9.330 140.250  0.00  0.00    +0.000 C 
BRANCH  55  56
ATOM     56  N   UNK A   5      -1.389   8.755 138.932  0.00  0.00    +0.000 N 
ATOM     57  C   UNK A   5      -0.671   9.269 137.880  0.00  0.00    +0.000 C 
ATOM     58  O   UNK A   5       0.093  10.227 138.006  0.00  0.00    +0.000 OA
ATOM     59  H   UNK A   5      -1.982   7.946 138.806  0.00  0.00    +0.000 HD
BRANCH  57  60
ATOM     60  C   UNK A   5      -0.904   8.567 136.557  0.00  0.00    +0.000 C 
BRANCH  60  61
ATOM     61  C   UNK A   5       0.375   8.587 135.724  0.00  0.00    +0.000 C 
BRANCH  61  62
ATOM     62  C   UNK A   5       0.501   7.360 134.836  0.00  0.00    +0.000 C 
BRANCH  62  63
ATOM     63  C   UNK A   5      -0.444   7.473 133.646  0.00  0.00    +0.000 C 
BRANCH  63  64
ATOM     64  C   UNK A   5      -0.954   6.098 133.246  0.00  0.00    +0.000 C 
BRANCH  64  65
ATOM     65  C   UNK A   5      -1.387   6.098 131.789  0.00  0.00    +0.000 C 
BRANCH  65  66
ATOM     66  C   UNK A   5      -2.898   6.221 131.693  0.00  0.00    +0.000 C 
BRANCH  66  67
ATOM     67  C   UNK A   5      -3.294   7.669 131.444  0.00  0.00    +0.000 C 
BRANCH  67  68
ATOM     68  C   UNK A   5      -4.326   7.751 130.326  0.00  0.00    +0.000 C 
BRANCH  68  69
ATOM     69  C   UNK A   5      -3.781   8.564 129.162  0.00  0.00    +0.000 C 
BRANCH  69  70
ATOM     70  N   UNK A   5      -4.059   9.977 129.377  0.00  0.00    +0.000 NA
ATOM     71  H   UNK A   5      -4.930  10.227 128.908  0.00  0.00    +0.000 HD
ATOM     72  H   UNK A   5      -3.326  10.535 128.944  0.00  0.00    +0.000 HD
ENDBRANCH  69  70
ENDBRANCH  68  69
ENDBRANCH  67  68
ENDBRANCH  66  67
ENDBRANCH  65  66
ENDBRANCH  64  65
ENDBRANCH  63  64
ENDBRANCH  62  63
ENDBRANCH  61  62
ENDBRANCH  60  61
ENDBRANCH  57  60
ENDBRANCH  55  56
ENDBRANCH  54  55
ENDBRANCH  53  54
ENDBRANCH  52  53
ENDBRANCH  42  52
ENDBRANCH  40  42
ENDBRANCH  37  38
ENDBRANCH  18  31
BRANCH  22  73
ATOM     73  CB  ASN A   2      -5.831   2.153 131.231  0.00  0.00    +0.000 C 
BRANCH  73  74
ATOM     74  CG  ASN A   2      -4.421   2.428 130.964  0.00  0.00    +0.000 C 
ATOM     75  ND2 ASN A   2      -3.349   2.413 131.812  0.00  0.00    +0.000 N 
ATOM     76  OD1 ASN A   2      -4.253   2.110 129.775  0.00  0.00    +0.000 OA
ATOM     77 HD21 ASN A   2      -3.178   2.205 132.783  0.00  0.00    +0.000 HD
ATOM     78 HD22 ASN A   2      -2.700   3.096 132.122  0.00  0.00    +0.000 HD
ENDBRANCH  73  74
ENDBRANCH  22  73
BRANCH   9  79
ATOM     79  CB  TYR A   1      -6.821  -2.033 132.319  0.00  0.00    +0.000 C 
BRANCH  79  80
ATOM     80  CG  TYR A   1      -7.293  -2.893 133.742  0.00  0.00    +0.000 A 
ATOM     81  CD1 TYR A   1      -6.627  -2.875 134.957  0.00  0.00    +0.000 A 
ATOM     82  CE1 TYR A   1      -7.073  -2.771 136.227  0.00  0.00    +0.000 A 
ATOM     83  CZ  TYR A   1      -7.930  -3.751 136.473  0.00  0.00    +0.000 A 
ATOM     84  CE2 TYR A   1      -8.588  -4.253 135.350  0.00  0.00    +0.000 A 
ATOM     85  CD2 TYR A   1      -8.375  -3.705 133.993  0.00  0.00    +0.000 A 
BRANCH  83  86
ATOM     86  OH  TYR A   1      -7.806  -4.400 137.670  0.00  0.00    +0.000 OA
ATOM     87  HH  TYR A   1      -8.611  -4.241 138.238  0.00  0.00    +0.000 HD
ENDBRANCH  83  86
ENDBRANCH  79  80
ENDBRANCH   9  79
BRANCH   5  88
ATOM     88  CB  TYR A   1      -5.831  -1.841 127.469  0.00  0.00    +0.000 C 
BRANCH  88  89
ATOM     89  CG  TYR A   1      -5.919  -2.039 126.015  0.00  0.00    +0.000 A 
ATOM     90  CD1 TYR A   1      -5.516  -3.204 125.358  0.00  0.00    +0.000 A 
ATOM     91  CE1 TYR A   1      -5.313  -3.200 124.004  0.00  0.00    +0.000 A 
ATOM     92  CZ  TYR A   1      -5.790  -2.122 123.286  0.00  0.00    +0.000 A 
ATOM     93  CE2 TYR A   1      -6.298  -0.989 123.929  0.00  0.00    +0.000 A 
ATOM     94  CD2 TYR A   1      -6.309  -0.919 125.302  0.00  0.00    +0.000 A 
ENDBRANCH  88  89
ENDBRANCH   5  88
BRANCH   1  95
ATOM     95  CB  TYR A   1      -6.786   3.502 127.719  0.00  0.00    +0.000 C 
BRANCH  95  97
ATOM     96  CD1 TYR A   1      -6.884   3.885 125.286  0.00  0.00    +0.000 C 
ATOM     97  CG  TYR A   1      -6.450   2.913 126.372  0.00  0.00    +0.000 C 
ATOM     98  CD2 TYR A   1      -4.965   2.631 126.258  0.00  0.00    +0.000 C 
ENDBRANCH  95  97
ENDBRANCH   1  95
TORSDOF 32
ENDMDL
MODEL 9
REMARK VINA RESULT:      -7.3      2.649      6.405
REMARK  Name = CHEMBL1765668
REMARK  34 active torsions:
REMARK  status: ('A' for Active; 'I' for Inactive)
REMARK    1  A    between atoms: CD1_1  and  CG_2
REMARK    2  A    between atoms: CG_2  and  CD2_3
REMARK    3  A    between atoms: CG_2  and  CB_4
REMARK    4  A    between atoms: CB_4  and  CA_5
REMARK    5  A    between atoms: CA_9  and  CB_10
REMARK    6  A    between atoms: CB_10  and  CG_11
REMARK    7  A    between atoms: CA_20  and  CB_21
REMARK    8  A    between atoms: CB_21  and  CG_22
REMARK    9  A    between atoms: CZ_25  and  OH_26
REMARK   10  A    between atoms: C_37  and  C_38
REMARK   11  A    between atoms: CA_44  and  C_45
REMARK   12  A    between atoms: N_47  and  C_48
REMARK   13  A    between atoms: C_48  and  C_49
REMARK   14  A    between atoms: C_48  and  C_67
REMARK   15  A    between atoms: C_49  and  C_50
REMARK   16  A    between atoms: C_50  and  C_51
REMARK   17  A    between atoms: C_51  and  C_52
REMARK   18  A    between atoms: C_52  and  N_53
REMARK   19  A    between atoms: C_54  and  C_56
REMARK   20  A    between atoms: C_56  and  C_57
REMARK   21  A    between atoms: C_57  and  C_58
REMARK   22  A    between atoms: C_58  and  C_59
REMARK   23  A    between atoms: C_59  and  C_60
REMARK   24  A    between atoms: C_60  and  C_61
REMARK   25  A    between atoms: C_61  and  C_62
REMARK   26  A    between atoms: C_62  and  C_63
REMARK   27  A    between atoms: C_63  and  C_64
REMARK   28  A    between atoms: C_64  and  C_65
REMARK   29  A    between atoms: C_65  and  N_66
REMARK   30  A    between atoms: N_69  and  CA_70
REMARK   31  A    between atoms: CA_70  and  C_71
REMARK   32  A    between atoms: C_71  and  OXT_73
REMARK   33  A    between atoms: CA_77  and  CB_78
REMARK   34  A    between atoms: CB_78  and  CG_79
REMARK                            x       y       z     vdW  Elec       q    Type
REMARK                         _______ _______ _______ _____ _____    ______ ____
ROOT
ATOM      1  CA  TYR A   1      -6.711   2.897 126.992  0.00  0.00    +0.000 C 
ATOM      2  N   TYR A   1      -7.848   1.984 126.652  0.00  0.00    +0.000 N 
ATOM      3  C   TYR A   1      -8.007   0.688 127.093  0.00  0.00    +0.000 C 
ATOM      4  O   TYR A   1      -9.010   0.428 127.780  0.00  0.00    +0.000 OA
ATOM      5  CA  TYR A   1      -6.876  -0.423 126.888  0.00  0.00    +0.000 C 
ATOM      6  N   TYR A   1      -5.800  -0.918 127.800  0.00  0.00    +0.000 N 
ATOM      7  C   TYR A   1      -5.876  -1.779 128.977  0.00  0.00    +0.000 C 
ATOM      8  O   TYR A   1      -4.811  -2.350 129.260  0.00  0.00    +0.000 OA
ATOM      9  CA  TYR A   1      -7.306  -1.879 130.162  0.00  0.00    +0.000 C 
ATOM     10  N   TYR A   1      -7.100  -3.138 130.784  0.00  0.00    +0.000 N 
ATOM     11  C   UNK A   0      -6.071  -3.393 131.648  0.00  0.00    +0.000 C 
ATOM     12  O   UNK A   0      -5.815  -4.571 131.822  0.00  0.00    +0.000 OA
ATOM     13  C   UNK A   0      -5.286  -2.293 132.452  0.00  0.00    +0.000 C 
ATOM     14  C   UNK A   0      -5.292  -0.801 132.192  0.00  0.00    +0.000 C 
ATOM     15  S   UNK A   3      -4.207   0.448 133.006  0.00  0.00    +0.000 S 
ATOM     16  S   UNK A   3      -5.402   2.186 132.894  0.00  0.00    +0.000 S 
ATOM     17  C   UNK A   3      -4.266   3.632 132.618  0.00  0.00    +0.000 C 
ATOM     18  C   UNK A   3      -4.677   5.044 132.130  0.00  0.00    +0.000 C 
ATOM     19  N   UNK A   3      -4.337   5.249 130.705  0.00  0.00    +0.000 N 
ATOM     20  C   ASN A   2      -4.760   4.520 129.682  0.00  0.00    +0.000 C 
ATOM     21  O   ASN A   2      -4.278   4.680 128.502  0.00  0.00    +0.000 OA
ATOM     22  CA  ASN A   2      -5.886   3.575 129.908  0.00  0.00    +0.000 C 
ATOM     23  N   ASN A   2      -6.862   4.231 129.099  0.00  0.00    +0.000 N 
ATOM     24  C   TYR A   1      -7.249   4.088 127.815  0.00  0.00    +0.000 C 
ATOM     25  O   TYR A   1      -8.248   4.744 127.502  0.00  0.00    +0.000 OA
ATOM     26  H   TYR A   1      -8.755   2.451 126.724  0.00  0.00    +0.000 HD
ATOM     27  H   TYR A   1      -4.972  -0.315 127.847  0.00  0.00    +0.000 HD
ATOM     28  H   TYR A   1      -7.354  -3.949 130.218  0.00  0.00    +0.000 HD
ATOM     29  H   UNK A   3      -3.682   5.992 130.456  0.00  0.00    +0.000 HD
ATOM     30  H   ASN A   2      -7.414   4.884 129.649  0.00  0.00    +0.000 HD
ENDROOT
BRANCH  18  31
ATOM     31  C   UNK A   3      -3.994   6.221 132.929  0.00  0.00    +0.000 C 
ATOM     32  O   UNK A   3      -4.526   6.634 133.968  0.00  0.00    +0.000 OA
ATOM     33  N   PRO A   4      -2.698   6.583 132.590  0.00  0.00    +0.000 N 
ATOM     34  CD  PRO A   4      -2.139   6.911 131.289  0.00  0.00    +0.000 C 
ATOM     35  CG  PRO A   4      -0.737   6.401 131.434  0.00  0.00    +0.000 C 
ATOM     36  CB  PRO A   4      -0.357   6.937 132.801  0.00  0.00    +0.000 C 
ATOM     37  CA  PRO A   4      -1.679   6.975 133.601  0.00  0.00    +0.000 C 
BRANCH  37  38
ATOM     38  C   PRO A   4      -1.798   8.437 134.080  0.00  0.00    +0.000 C 
ATOM     39  O   PRO A   4      -1.336   9.352 133.397  0.00  0.00    +0.000 OA
ATOM     40  N   UNK A   5      -2.354   8.653 135.339  0.00  0.00    +0.000 N 
ATOM     41  H   UNK A   5      -2.438   7.891 136.006  0.00  0.00    +0.000 HD
BRANCH  40  42
ATOM     42  C   UNK A   5      -2.699  10.009 135.851  0.00  0.00    +0.000 C 
BRANCH  42  43
ATOM     43  C   UNK A   5      -1.433  10.941 135.906  0.00  0.00    +0.000 C 
ATOM     44  O   UNK A   5      -0.595  10.829 136.805  0.00  0.00    +0.000 OA
ATOM     45  N   GLY A   6      -1.290  11.890 134.909  0.00  0.00    +0.000 N 
ATOM     46  H   GLY A   6      -1.971  11.975 134.157  0.00  0.00    +0.000 HD
BRANCH  45  47
ATOM     47  CA  GLY A   6      -0.164  12.839 134.864  0.00  0.00    +0.000 C 
BRANCH  47  48
ATOM     48  C   GLY A   6       0.810  12.506 133.731  0.00  0.00    +0.000 C 
ATOM     49  O   GLY A   6       1.377  13.364 133.062  0.00  0.00    +0.000 OA
BRANCH  48  50
ATOM     50  OXT GLY A   6       1.016  11.187 133.507  0.00  0.00    +0.000 OA
ATOM     51  HXT GLY A   6       1.857  10.927 133.087  0.00  0.00    +0.000 HD
ENDBRANCH  48  50
ENDBRANCH  47  48
ENDBRANCH  45  47
ENDBRANCH  42  43
BRANCH  42  52
ATOM     52  C   UNK A   5      -3.313   9.906 137.266  0.00  0.00    +0.000 C 
BRANCH  52  53
ATOM     53  C   UNK A   5      -4.071  11.164 137.667  0.00  0.00    +0.000 C 
BRANCH  53  54
ATOM     54  C   UNK A   5      -3.537  11.893 138.872  0.00  0.00    +0.000 C 
BRANCH  54  55
ATOM     55  C   UNK A   5      -4.100  13.312 138.878  0.00  0.00    +0.000 C 
BRANCH  55  56
ATOM     56  N   UNK A   5      -5.505  13.314 139.213  0.00  0.00    +0.000 N 
ATOM     57  C   UNK A   5      -6.036  14.346 139.948  0.00  0.00    +0.000 C 
ATOM     58  O   UNK A   5      -5.353  15.286 140.356  0.00  0.00    +0.000 OA
ATOM     59  H   UNK A   5      -6.097  12.572 138.862  0.00  0.00    +0.000 HD
BRANCH  57  60
ATOM     60  C   UNK A   5      -7.521  14.225 140.220  0.00  0.00    +0.000 C 
BRANCH  60  61
ATOM     61  C   UNK A   5      -8.009  12.831 139.838  0.00  0.00    +0.000 C 
BRANCH  61  62
ATOM     62  C   UNK A   5      -9.503  12.664 140.063  0.00  0.00    +0.000 C 
BRANCH  62  63
ATOM     63  C   UNK A   5      -9.792  11.311 140.702  0.00  0.00    +0.000 C 
BRANCH  63  64
ATOM     64  C   UNK A   5      -9.109  10.201 139.919  0.00  0.00    +0.000 C 
BRANCH  64  65
ATOM     65  C   UNK A   5      -9.934   9.834 138.697  0.00  0.00    +0.000 C 
BRANCH  65  66
ATOM     66  C   UNK A   5      -9.024   9.367 137.573  0.00  0.00    +0.000 C 
BRANCH  66  67
ATOM     67  C   UNK A   5      -7.571   9.650 137.921  0.00  0.00    +0.000 C 
BRANCH  67  68
ATOM     68  C   UNK A   5      -6.709   8.426 137.635  0.00  0.00    +0.000 C 
BRANCH  68  69
ATOM     69  C   UNK A   5      -7.553   7.162 137.689  0.00  0.00    +0.000 C 
BRANCH  69  70
ATOM     70  N   UNK A   5      -6.734   6.042 138.129  0.00  0.00    +0.000 NA
ATOM     71  H   UNK A   5      -5.792   6.141 137.751  0.00  0.00    +0.000 HD
ATOM     72  H   UNK A   5      -7.111   5.178 137.745  0.00  0.00    +0.000 HD
ENDBRANCH  69  70
ENDBRANCH  68  69
ENDBRANCH  67  68
ENDBRANCH  66  67
ENDBRANCH  65  66
ENDBRANCH  64  65
ENDBRANCH  63  64
ENDBRANCH  62  63
ENDBRANCH  61  62
ENDBRANCH  60  61
ENDBRANCH  57  60
ENDBRANCH  55  56
ENDBRANCH  54  55
ENDBRANCH  53  54
ENDBRANCH  52  53
ENDBRANCH  42  52
ENDBRANCH  40  42
ENDBRANCH  37  38
ENDBRANCH  18  31
BRANCH  22  73
ATOM     73  CB  ASN A   2      -5.283   2.242 129.643  0.00  0.00    +0.000 C 
BRANCH  73  74
ATOM     74  CG  ASN A   2      -4.066   1.752 128.998  0.00  0.00    +0.000 C 
ATOM     75  ND2 ASN A   2      -3.133   2.425 128.261  0.00  0.00    +0.000 N 
ATOM     76  OD1 ASN A   2      -3.706   0.786 129.691  0.00  0.00    +0.000 OA
ATOM     77 HD21 ASN A   2      -2.967   3.375 127.970  0.00  0.00    +0.000 HD
ATOM     78 HD22 ASN A   2      -2.815   2.365 127.324  0.00  0.00    +0.000 HD
ENDBRANCH  73  74
ENDBRANCH  22  73
BRANCH   9  79
ATOM     79  CB  TYR A   1      -8.122  -0.680 131.401  0.00  0.00    +0.000 C 
BRANCH  79  80
ATOM     80  CG  TYR A   1      -8.893   0.848 131.163  0.00  0.00    +0.000 A 
ATOM     81  CD1 TYR A   1      -9.595   1.559 132.124  0.00  0.00    +0.000 A 
ATOM     82  CE1 TYR A   1      -9.599   2.869 132.449  0.00  0.00    +0.000 A 
ATOM     83  CZ  TYR A   1      -9.921   3.586 131.383  0.00  0.00    +0.000 A 
ATOM     84  CE2 TYR A   1      -9.621   2.987 130.159  0.00  0.00    +0.000 A 
ATOM     85  CD2 TYR A   1      -8.956   1.669 130.061  0.00  0.00    +0.000 A 
BRANCH  83  86
ATOM     86  OH  TYR A   1     -10.815   4.604 131.564  0.00  0.00    +0.000 OA
ATOM     87  HH  TYR A   1     -11.196   4.574 132.486  0.00  0.00    +0.000 HD
ENDBRANCH  83  86
ENDBRANCH  79  80
ENDBRANCH   9  79
BRANCH   5  88
ATOM     88  CB  TYR A   1      -7.504  -1.750 126.603  0.00  0.00    +0.000 C 
BRANCH  88  89
ATOM     89  CG  TYR A   1      -8.075  -1.972 125.268  0.00  0.00    +0.000 A 
ATOM     90  CD1 TYR A   1      -9.160  -2.813 125.010  0.00  0.00    +0.000 A 
ATOM     91  CE1 TYR A   1      -9.426  -3.230 123.734  0.00  0.00    +0.000 A 
ATOM     92  CZ  TYR A   1      -8.787  -2.576 122.699  0.00  0.00    +0.000 A 
ATOM     93  CE2 TYR A   1      -7.770  -1.648 122.944  0.00  0.00    +0.000 A 
ATOM     94  CD2 TYR A   1      -7.368  -1.386 124.233  0.00  0.00    +0.000 A 
ENDBRANCH  88  89
ENDBRANCH   5  88
BRANCH   1  95
ATOM     95  CB  TYR A   1      -5.694   3.329 125.940  0.00  0.00    +0.000 C 
BRANCH  95  97
ATOM     96  CD1 TYR A   1      -5.528   4.501 123.778  0.00  0.00    +0.000 C 
ATOM     97  CG  TYR A   1      -6.362   3.533 124.603  0.00  0.00    +0.000 C 
ATOM     98  CD2 TYR A   1      -6.515   2.217 123.867  0.00  0.00    +0.000 C 
ENDBRANCH  95  97
ENDBRANCH   1  95
TORSDOF 32
ENDMDL
