MODEL 1
REMARK VINA RESULT:      -8.9      0.000      0.000
REMARK  Name = CHEMBL2037498
REMARK  11 active torsions:
REMARK  status: ('A' for Active; 'I' for Inactive)
REMARK    1  A    between atoms: CD1_1  and  CG1_2
REMARK    2  A    between atoms: CG1_2  and  CB_3
REMARK    3  A    between atoms: CB_3  and  CG2_4
REMARK    4  A    between atoms: CB_3  and  CA_5
REMARK    5  A    between atoms: C_9  and  C_10
REMARK    6  A    between atoms: N_21  and  C_22
REMARK    7  A    between atoms: C_22  and  C_23
REMARK    8  A    between atoms: C_22  and  C_28
REMARK    9  A    between atoms: N_25  and  C_26
REMARK   10  A    between atoms: N_25  and  C_27
REMARK   11  A    between atoms: C_31  and  C_32
REMARK                            x       y       z     vdW  Elec       q    Type
REMARK                         _______ _______ _______ _____ _____    ______ ____
ROOT
ATOM      1  CA  ILE A   2      -8.530   2.677 130.389  0.00  0.00    +0.000 C 
ATOM      2  C   ILE A   2      -8.598   3.722 129.195  0.00  0.00    +0.000 C 
ATOM      3  O   ILE A   2      -8.257   3.602 128.028  0.00  0.00    +0.000 OA
ATOM      4  N   UNK A   1      -9.233   4.857 129.556  0.00  0.00    +0.000 N 
ATOM      5  C   UNK A   1      -9.842   4.995 130.858  0.00  0.00    +0.000 C 
ATOM      6  C   UNK A   1      -8.873   4.562 131.953  0.00  0.00    +0.000 C 
ATOM      7  O   UNK A   1      -8.895   5.135 133.017  0.00  0.00    +0.000 OA
ATOM      8  N   ILE A   2      -8.064   3.479 131.614  0.00  0.00    +0.000 N 
ATOM      9  H   UNK A   1      -9.375   5.512 128.794  0.00  0.00    +0.000 HD
ENDROOT
BRANCH   5  10
ATOM     10  C   UNK A   1     -10.140   6.460 131.178  0.00  0.00    +0.000 C 
ATOM     11  C   UNK A   1     -11.647   6.669 131.281  0.00  0.00    +0.000 C 
ATOM     12  C   UNK A   1     -11.982   7.056 129.872  0.00  0.00    +0.000 A 
ATOM     13  C   UNK A   1     -13.197   6.908 129.234  0.00  0.00    +0.000 A 
ATOM     14  C   UNK A   1     -13.267   7.193 127.870  0.00  0.00    +0.000 A 
ATOM     15  C   UNK A   1     -12.125   7.593 127.158  0.00  0.00    +0.000 A 
ATOM     16  C   UNK A   1     -10.890   7.711 127.797  0.00  0.00    +0.000 A 
ATOM     17  C   UNK A   1     -10.836   7.453 129.158  0.00  0.00    +0.000 A 
ATOM     18  C   UNK A   1      -9.623   7.389 130.034  0.00  0.00    +0.000 C 
ENDBRANCH   5  10
BRANCH   1  19
ATOM     19  CB  ILE A   2      -7.670   1.460 129.999  0.00  0.00    +0.000 C 
ATOM     20  CG2 ILE A   2      -7.393   1.054 128.593  0.00  0.00    +0.000 C 
BRANCH  19  22
ATOM     21  CD1 ILE A   2      -7.750  -1.433 131.324  0.00  0.00    +0.000 C 
ATOM     22  CG1 ILE A   2      -8.245   0.172 130.696  0.00  0.00    +0.000 C 
ENDBRANCH  19  22
ENDBRANCH   1  19
BRANCH   8  23
ATOM     23  C   UNK A   0      -6.676   3.323 132.323  0.00  0.00    +0.000 C 
BRANCH  23  24
ATOM     24  C   UNK A   0      -5.540   4.126 131.679  0.00  0.00    +0.000 A 
ATOM     25  C   UNK A   0      -4.846   3.726 130.496  0.00  0.00    +0.000 A 
ATOM     26  C   UNK A   0      -3.626   4.329 130.217  0.00  0.00    +0.000 A 
ATOM     27  C   UNK A   0      -3.263   5.412 131.002  0.00  0.00    +0.000 A 
ATOM     28  C   UNK A   0      -2.004   6.163 130.843  0.00  0.00    +0.000 C 
ATOM     29  N   UNK A   0      -4.010   5.913 131.997  0.00  0.00    +0.000 NA
ATOM     30  C   UNK A   0      -5.103   5.246 132.323  0.00  0.00    +0.000 A 
ENDBRANCH  23  24
BRANCH  23  31
ATOM     31  C   UNK A   0      -6.128   1.638 133.160  0.00  0.00    +0.000 C 
ATOM     32  O   UNK A   0      -6.775   1.179 134.055  0.00  0.00    +0.000 OA
ATOM     33  N   UNK A   0      -4.900   0.596 132.493  0.00  0.00    +0.000 N 
ATOM     34  C   UNK A   0      -4.254   0.096 130.898  0.00  0.00    +0.000 C 
ATOM     35  C   UNK A   0      -4.717  -0.537 133.344  0.00  0.00    +0.000 C 
ENDBRANCH  23  31
ENDBRANCH   8  23
TORSDOF 6
ENDMDL
MODEL 2
REMARK VINA RESULT:      -8.8      1.569      2.041
REMARK  Name = CHEMBL2037498
REMARK  11 active torsions:
REMARK  status: ('A' for Active; 'I' for Inactive)
REMARK    1  A    between atoms: CD1_1  and  CG1_2
REMARK    2  A    between atoms: CG1_2  and  CB_3
REMARK    3  A    between atoms: CB_3  and  CG2_4
REMARK    4  A    between atoms: CB_3  and  CA_5
REMARK    5  A    between atoms: C_9  and  C_10
REMARK    6  A    between atoms: N_21  and  C_22
REMARK    7  A    between atoms: C_22  and  C_23
REMARK    8  A    between atoms: C_22  and  C_28
REMARK    9  A    between atoms: N_25  and  C_26
REMARK   10  A    between atoms: N_25  and  C_27
REMARK   11  A    between atoms: C_31  and  C_32
REMARK                            x       y       z     vdW  Elec       q    Type
REMARK                         _______ _______ _______ _____ _____    ______ ____
ROOT
ATOM      1  CA  ILE A   2      -8.592   2.451 129.205  0.00  0.00    +0.000 C 
ATOM      2  C   ILE A   2      -8.149   3.831 128.553  0.00  0.00    +0.000 C 
ATOM      3  O   ILE A   2      -7.512   4.047 127.533  0.00  0.00    +0.000 OA
ATOM      4  N   UNK A   1      -8.673   4.887 129.209  0.00  0.00    +0.000 N 
ATOM      5  C   UNK A   1      -9.599   4.708 130.302  0.00  0.00    +0.000 C 
ATOM      6  C   UNK A   1      -9.065   3.682 131.296  0.00  0.00    +0.000 C 
ATOM      7  O   UNK A   1      -9.299   3.828 132.473  0.00  0.00    +0.000 OA
ATOM      8  N   ILE A   2      -8.374   2.620 130.716  0.00  0.00    +0.000 N 
ATOM      9  H   UNK A   1      -8.486   5.782 128.769  0.00  0.00    +0.000 HD
ENDROOT
BRANCH   5  10
ATOM     10  C   UNK A   1      -9.740   5.989 131.124  0.00  0.00    +0.000 C 
ATOM     11  C   UNK A   1     -11.207   6.220 131.473  0.00  0.00    +0.000 C 
ATOM     12  C   UNK A   1     -11.646   7.076 130.323  0.00  0.00    +0.000 A 
ATOM     13  C   UNK A   1     -12.926   7.210 129.824  0.00  0.00    +0.000 A 
ATOM     14  C   UNK A   1     -13.105   7.943 128.651  0.00  0.00    +0.000 A 
ATOM     15  C   UNK A   1     -12.009   8.509 127.980  0.00  0.00    +0.000 A 
ATOM     16  C   UNK A   1     -10.712   8.347 128.468  0.00  0.00    +0.000 A 
ATOM     17  C   UNK A   1     -10.547   7.640 129.649  0.00  0.00    +0.000 A 
ATOM     18  C   UNK A   1      -9.263   7.227 130.301  0.00  0.00    +0.000 C 
ENDBRANCH   5  10
BRANCH   1  19
ATOM     19  CB  ILE A   2      -7.859   1.274 128.534  0.00  0.00    +0.000 C 
ATOM     20  CG2 ILE A   2      -6.434   1.316 128.106  0.00  0.00    +0.000 C 
BRANCH  19  22
ATOM     21  CD1 ILE A   2      -9.076   1.342 125.594  0.00  0.00    +0.000 C 
ATOM     22  CG1 ILE A   2      -8.661   0.821 127.258  0.00  0.00    +0.000 C 
ENDBRANCH  19  22
ENDBRANCH   1  19
BRANCH   8  23
ATOM     23  C   UNK A   0      -7.290   1.872 131.564  0.00  0.00    +0.000 C 
BRANCH  23  24
ATOM     24  C   UNK A   0      -5.984   2.653 131.756  0.00  0.00    +0.000 A 
ATOM     25  C   UNK A   0      -5.123   3.051 130.687  0.00  0.00    +0.000 A 
ATOM     26  C   UNK A   0      -3.822   3.424 130.998  0.00  0.00    +0.000 A 
ATOM     27  C   UNK A   0      -3.512   3.569 132.342  0.00  0.00    +0.000 A 
ATOM     28  C   UNK A   0      -2.181   3.957 132.845  0.00  0.00    +0.000 C 
ATOM     29  N   UNK A   0      -4.380   3.383 133.347  0.00  0.00    +0.000 NA
ATOM     30  C   UNK A   0      -5.572   2.907 133.031  0.00  0.00    +0.000 A 
ENDBRANCH  23  24
BRANCH  23  31
ATOM     31  C   UNK A   0      -7.088  -0.076 131.494  0.00  0.00    +0.000 C 
ATOM     32  O   UNK A   0      -8.057  -0.774 131.437  0.00  0.00    +0.000 OA
ATOM     33  N   UNK A   0      -5.559  -0.867 131.220  0.00  0.00    +0.000 N 
ATOM     34  C   UNK A   0      -4.028  -0.605 130.327  0.00  0.00    +0.000 C 
ATOM     35  C   UNK A   0      -5.740  -2.284 131.247  0.00  0.00    +0.000 C 
ENDBRANCH  23  31
ENDBRANCH   8  23
TORSDOF 6
ENDMDL
MODEL 3
REMARK VINA RESULT:      -8.7      4.066      6.815
REMARK  Name = CHEMBL2037498
REMARK  11 active torsions:
REMARK  status: ('A' for Active; 'I' for Inactive)
REMARK    1  A    between atoms: CD1_1  and  CG1_2
REMARK    2  A    between atoms: CG1_2  and  CB_3
REMARK    3  A    between atoms: CB_3  and  CG2_4
REMARK    4  A    between atoms: CB_3  and  CA_5
REMARK    5  A    between atoms: C_9  and  C_10
REMARK    6  A    between atoms: N_21  and  C_22
REMARK    7  A    between atoms: C_22  and  C_23
REMARK    8  A    between atoms: C_22  and  C_28
REMARK    9  A    between atoms: N_25  and  C_26
REMARK   10  A    between atoms: N_25  and  C_27
REMARK   11  A    between atoms: C_31  and  C_32
REMARK                            x       y       z     vdW  Elec       q    Type
REMARK                         _______ _______ _______ _____ _____    ______ ____
ROOT
ATOM      1  CA  ILE A   2      -4.865   4.339 127.766  0.00  0.00    +0.000 C 
ATOM      2  C   ILE A   2      -4.948   3.713 129.223  0.00  0.00    +0.000 C 
ATOM      3  O   ILE A   2      -4.052   3.385 129.987  0.00  0.00    +0.000 OA
ATOM      4  N   UNK A   1      -6.219   3.655 129.674  0.00  0.00    +0.000 N 
ATOM      5  C   UNK A   1      -7.311   4.209 128.911  0.00  0.00    +0.000 C 
ATOM      6  C   UNK A   1      -7.246   3.742 127.461  0.00  0.00    +0.000 C 
ATOM      7  O   UNK A   1      -8.275   3.547 126.859  0.00  0.00    +0.000 OA
ATOM      8  N   ILE A   2      -5.954   3.628 126.948  0.00  0.00    +0.000 N 
ATOM      9  H   UNK A   1      -6.302   3.344 130.636  0.00  0.00    +0.000 HD
ENDROOT
BRANCH   5  10
ATOM     10  C   UNK A   1      -8.658   3.686 129.412  0.00  0.00    +0.000 C 
ATOM     11  C   UNK A   1      -9.515   4.851 129.899  0.00  0.00    +0.000 C 
ATOM     12  C   UNK A   1      -9.148   4.892 131.352  0.00  0.00    +0.000 A 
ATOM     13  C   UNK A   1      -9.213   5.981 132.197  0.00  0.00    +0.000 A 
ATOM     14  C   UNK A   1      -8.685   5.853 133.482  0.00  0.00    +0.000 A 
ATOM     15  C   UNK A   1      -8.080   4.656 133.897  0.00  0.00    +0.000 A 
ATOM     16  C   UNK A   1      -7.987   3.566 133.031  0.00  0.00    +0.000 A 
ATOM     17  C   UNK A   1      -8.538   3.693 131.766  0.00  0.00    +0.000 A 
ATOM     18  C   UNK A   1      -8.457   2.725 130.626  0.00  0.00    +0.000 C 
ENDBRANCH   5  10
BRANCH   1  19
ATOM     19  CB  ILE A   2      -3.429   4.251 127.216  0.00  0.00    +0.000 C 
ATOM     20  CG2 ILE A   2      -2.572   3.038 127.320  0.00  0.00    +0.000 C 
BRANCH  19  22
ATOM     21  CD1 ILE A   2      -2.300   6.333 129.344  0.00  0.00    +0.000 C 
ATOM     22  CG1 ILE A   2      -2.567   5.419 127.824  0.00  0.00    +0.000 C 
ENDBRANCH  19  22
ENDBRANCH   1  19
BRANCH   8  23
ATOM     23  C   UNK A   0      -5.694   2.625 125.774  0.00  0.00    +0.000 C 
BRANCH  23  24
ATOM     24  C   UNK A   0      -5.984   3.191 124.379  0.00  0.00    +0.000 A 
ATOM     25  C   UNK A   0      -6.967   2.661 123.487  0.00  0.00    +0.000 A 
ATOM     26  C   UNK A   0      -6.893   3.014 122.146  0.00  0.00    +0.000 A 
ATOM     27  C   UNK A   0      -5.989   4.009 121.804  0.00  0.00    +0.000 A 
ATOM     28  C   UNK A   0      -5.783   4.500 120.430  0.00  0.00    +0.000 C 
ATOM     29  N   UNK A   0      -5.197   4.648 122.677  0.00  0.00    +0.000 NA
ATOM     30  C   UNK A   0      -5.196   4.206 123.923  0.00  0.00    +0.000 A 
ENDBRANCH  23  24
BRANCH  23  31
ATOM     31  C   UNK A   0      -6.013   0.701 125.970  0.00  0.00    +0.000 C 
ATOM     32  O   UNK A   0      -5.188   0.010 126.489  0.00  0.00    +0.000 OA
ATOM     33  N   UNK A   0      -7.565  -0.042 125.690  0.00  0.00    +0.000 N 
ATOM     34  C   UNK A   0      -9.309   0.337 125.856  0.00  0.00    +0.000 C 
ATOM     35  C   UNK A   0      -7.466  -1.452 125.894  0.00  0.00    +0.000 C 
ENDBRANCH  23  31
ENDBRANCH   8  23
TORSDOF 6
ENDMDL
MODEL 4
REMARK VINA RESULT:      -8.5      1.673      3.953
REMARK  Name = CHEMBL2037498
REMARK  11 active torsions:
REMARK  status: ('A' for Active; 'I' for Inactive)
REMARK    1  A    between atoms: CD1_1  and  CG1_2
REMARK    2  A    between atoms: CG1_2  and  CB_3
REMARK    3  A    between atoms: CB_3  and  CG2_4
REMARK    4  A    between atoms: CB_3  and  CA_5
REMARK    5  A    between atoms: C_9  and  C_10
REMARK    6  A    between atoms: N_21  and  C_22
REMARK    7  A    between atoms: C_22  and  C_23
REMARK    8  A    between atoms: C_22  and  C_28
REMARK    9  A    between atoms: N_25  and  C_26
REMARK   10  A    between atoms: N_25  and  C_27
REMARK   11  A    between atoms: C_31  and  C_32
REMARK                            x       y       z     vdW  Elec       q    Type
REMARK                         _______ _______ _______ _____ _____    ______ ____
ROOT
ATOM      1  CA  ILE A   2      -8.013   2.787 128.996  0.00  0.00    +0.000 C 
ATOM      2  C   ILE A   2      -7.970   4.234 128.340  0.00  0.00    +0.000 C 
ATOM      3  O   ILE A   2      -7.490   4.599 127.277  0.00  0.00    +0.000 OA
ATOM      4  N   UNK A   1      -8.674   5.132 129.060  0.00  0.00    +0.000 N 
ATOM      5  C   UNK A   1      -9.434   4.735 130.220  0.00  0.00    +0.000 C 
ATOM      6  C   UNK A   1      -8.589   3.866 131.145  0.00  0.00    +0.000 C 
ATOM      7  O   UNK A   1      -8.752   3.948 132.340  0.00  0.00    +0.000 OA
ATOM      8  N   ILE A   2      -7.716   3.001 130.488  0.00  0.00    +0.000 N 
ATOM      9  H   UNK A   1      -8.744   6.047 128.625  0.00  0.00    +0.000 HD
ENDROOT
BRANCH   5  10
ATOM     10  C   UNK A   1      -9.808   5.943 131.078  0.00  0.00    +0.000 C 
ATOM     11  C   UNK A   1     -11.322   5.997 131.263  0.00  0.00    +0.000 C 
ATOM     12  C   UNK A   1     -11.722   6.869 130.111  0.00  0.00    +0.000 A 
ATOM     13  C   UNK A   1     -12.946   6.896 129.473  0.00  0.00    +0.000 A 
ATOM     14  C   UNK A   1     -13.074   7.674 128.321  0.00  0.00    +0.000 A 
ATOM     15  C   UNK A   1     -11.980   8.391 127.811  0.00  0.00    +0.000 A 
ATOM     16  C   UNK A   1     -10.735   8.338 128.439  0.00  0.00    +0.000 A 
ATOM     17  C   UNK A   1     -10.624   7.584 129.597  0.00  0.00    +0.000 A 
ATOM     18  C   UNK A   1      -9.383   7.270 130.375  0.00  0.00    +0.000 C 
ENDBRANCH   5  10
BRANCH   1  19
ATOM     19  CB  ILE A   2      -7.079   1.821 128.243  0.00  0.00    +0.000 C 
ATOM     20  CG2 ILE A   2      -5.663   2.130 127.901  0.00  0.00    +0.000 C 
BRANCH  19  22
ATOM     21  CD1 ILE A   2      -9.263   0.716 126.207  0.00  0.00    +0.000 C 
ATOM     22  CG1 ILE A   2      -7.751   1.403 126.882  0.00  0.00    +0.000 C 
ENDBRANCH  19  22
ENDBRANCH   1  19
BRANCH   8  23
ATOM     23  C   UNK A   0      -6.417   2.534 131.228  0.00  0.00    +0.000 C 
BRANCH  23  24
ATOM     24  C   UNK A   0      -6.449   1.079 131.711  0.00  0.00    +0.000 A 
ATOM     25  C   UNK A   0      -5.592   0.049 131.212  0.00  0.00    +0.000 A 
ATOM     26  C   UNK A   0      -5.947  -1.272 131.452  0.00  0.00    +0.000 A 
ATOM     27  C   UNK A   0      -7.001  -1.493 132.325  0.00  0.00    +0.000 A 
ATOM     28  C   UNK A   0      -7.506  -2.830 132.687  0.00  0.00    +0.000 C 
ATOM     29  N   UNK A   0      -7.687  -0.524 132.949  0.00  0.00    +0.000 NA
ATOM     30  C   UNK A   0      -7.413   0.723 132.607  0.00  0.00    +0.000 A 
ENDBRANCH  23  24
BRANCH  23  31
ATOM     31  C   UNK A   0      -5.372   3.755 132.348  0.00  0.00    +0.000 C 
ATOM     32  O   UNK A   0      -4.420   3.349 132.946  0.00  0.00    +0.000 OA
ATOM     33  N   UNK A   0      -5.568   5.487 132.311  0.00  0.00    +0.000 N 
ATOM     34  C   UNK A   0      -5.980   6.789 131.151  0.00  0.00    +0.000 C 
ATOM     35  C   UNK A   0      -4.681   6.091 133.253  0.00  0.00    +0.000 C 
ENDBRANCH  23  31
ENDBRANCH   8  23
TORSDOF 6
ENDMDL
MODEL 5
REMARK VINA RESULT:      -8.4      3.517      7.601
REMARK  Name = CHEMBL2037498
REMARK  11 active torsions:
REMARK  status: ('A' for Active; 'I' for Inactive)
REMARK    1  A    between atoms: CD1_1  and  CG1_2
REMARK    2  A    between atoms: CG1_2  and  CB_3
REMARK    3  A    between atoms: CB_3  and  CG2_4
REMARK    4  A    between atoms: CB_3  and  CA_5
REMARK    5  A    between atoms: C_9  and  C_10
REMARK    6  A    between atoms: N_21  and  C_22
REMARK    7  A    between atoms: C_22  and  C_23
REMARK    8  A    between atoms: C_22  and  C_28
REMARK    9  A    between atoms: N_25  and  C_26
REMARK   10  A    between atoms: N_25  and  C_27
REMARK   11  A    between atoms: C_31  and  C_32
REMARK                            x       y       z     vdW  Elec       q    Type
REMARK                         _______ _______ _______ _____ _____    ______ ____
ROOT
ATOM      1  CA  ILE A   2      -4.527   2.373 127.973  0.00  0.00    +0.000 C 
ATOM      2  C   ILE A   2      -5.381   2.462 126.636  0.00  0.00    +0.000 C 
ATOM      3  O   ILE A   2      -5.423   3.343 125.790  0.00  0.00    +0.000 OA
ATOM      4  N   UNK A   1      -6.062   1.322 126.398  0.00  0.00    +0.000 N 
ATOM      5  C   UNK A   1      -5.906   0.164 127.246  0.00  0.00    +0.000 C 
ATOM      6  C   UNK A   1      -6.026   0.552 128.715  0.00  0.00    +0.000 C 
ATOM      7  O   UNK A   1      -6.533  -0.226 129.489  0.00  0.00    +0.000 OA
ATOM      8  N   ILE A   2      -5.477   1.794 129.032  0.00  0.00    +0.000 N 
ATOM      9  H   UNK A   1      -6.548   1.308 125.508  0.00  0.00    +0.000 HD
ENDROOT
BRANCH   5  10
ATOM     10  C   UNK A   1      -7.039  -0.839 127.028  0.00  0.00    +0.000 C 
ATOM     11  C   UNK A   1      -6.462  -2.239 126.847  0.00  0.00    +0.000 C 
ATOM     12  C   UNK A   1      -6.312  -2.299 125.357  0.00  0.00    +0.000 A 
ATOM     13  C   UNK A   1      -5.430  -3.083 124.639  0.00  0.00    +0.000 A 
ATOM     14  C   UNK A   1      -5.341  -2.884 123.261  0.00  0.00    +0.000 A 
ATOM     15  C   UNK A   1      -6.109  -1.897 122.623  0.00  0.00    +0.000 A 
ATOM     16  C   UNK A   1      -6.977  -1.085 123.355  0.00  0.00    +0.000 A 
ATOM     17  C   UNK A   1      -7.078  -1.307 124.719  0.00  0.00    +0.000 A 
ATOM     18  C   UNK A   1      -7.834  -0.497 125.729  0.00  0.00    +0.000 C 
ENDBRANCH   5  10
BRANCH   1  19
ATOM     19  CB  ILE A   2      -3.885   3.735 128.300  0.00  0.00    +0.000 C 
ATOM     20  CG2 ILE A   2      -4.510   5.048 127.978  0.00  0.00    +0.000 C 
BRANCH  19  22
ATOM     21  CD1 ILE A   2      -1.420   3.028 126.415  0.00  0.00    +0.000 C 
ATOM     22  CG1 ILE A   2      -2.446   3.797 127.668  0.00  0.00    +0.000 C 
ENDBRANCH  19  22
ENDBRANCH   1  19
BRANCH   8  23
ATOM     23  C   UNK A   0      -6.038   2.574 130.269  0.00  0.00    +0.000 C 
BRANCH  23  24
ATOM     24  C   UNK A   0      -7.431   3.179 130.059  0.00  0.00    +0.000 A 
ATOM     25  C   UNK A   0      -7.714   4.243 129.147  0.00  0.00    +0.000 A 
ATOM     26  C   UNK A   0      -8.907   4.937 129.302  0.00  0.00    +0.000 A 
ATOM     27  C   UNK A   0      -9.824   4.423 130.206  0.00  0.00    +0.000 A 
ATOM     28  C   UNK A   0     -11.134   5.036 130.491  0.00  0.00    +0.000 C 
ATOM     29  N   UNK A   0      -9.638   3.307 130.926  0.00  0.00    +0.000 NA
ATOM     30  C   UNK A   0      -8.447   2.737 130.854  0.00  0.00    +0.000 A 
ENDBRANCH  23  24
BRANCH  23  31
ATOM     31  C   UNK A   0      -4.866   3.587 131.468  0.00  0.00    +0.000 C 
ATOM     32  O   UNK A   0      -3.805   3.138 131.785  0.00  0.00    +0.000 OA
ATOM     33  N   UNK A   0      -5.145   5.256 131.889  0.00  0.00    +0.000 N 
ATOM     34  C   UNK A   0      -5.818   6.751 131.167  0.00  0.00    +0.000 C 
ATOM     35  C   UNK A   0      -4.132   5.698 132.794  0.00  0.00    +0.000 C 
ENDBRANCH  23  31
ENDBRANCH   8  23
TORSDOF 6
ENDMDL
MODEL 6
REMARK VINA RESULT:      -8.3      4.224      7.764
REMARK  Name = CHEMBL2037498
REMARK  11 active torsions:
REMARK  status: ('A' for Active; 'I' for Inactive)
REMARK    1  A    between atoms: CD1_1  and  CG1_2
REMARK    2  A    between atoms: CG1_2  and  CB_3
REMARK    3  A    between atoms: CB_3  and  CG2_4
REMARK    4  A    between atoms: CB_3  and  CA_5
REMARK    5  A    between atoms: C_9  and  C_10
REMARK    6  A    between atoms: N_21  and  C_22
REMARK    7  A    between atoms: C_22  and  C_23
REMARK    8  A    between atoms: C_22  and  C_28
REMARK    9  A    between atoms: N_25  and  C_26
REMARK   10  A    between atoms: N_25  and  C_27
REMARK   11  A    between atoms: C_31  and  C_32
REMARK                            x       y       z     vdW  Elec       q    Type
REMARK                         _______ _______ _______ _____ _____    ______ ____
ROOT
ATOM      1  CA  ILE A   2      -6.918  -1.462 128.728  0.00  0.00    +0.000 C 
ATOM      2  C   ILE A   2      -7.840  -0.868 129.877  0.00  0.00    +0.000 C 
ATOM      3  O   ILE A   2      -8.520  -1.444 130.713  0.00  0.00    +0.000 OA
ATOM      4  N   UNK A   1      -7.736   0.475 129.960  0.00  0.00    +0.000 N 
ATOM      5  C   UNK A   1      -6.802   1.208 129.138  0.00  0.00    +0.000 C 
ATOM      6  C   UNK A   1      -6.916   0.778 127.680  0.00  0.00    +0.000 C 
ATOM      7  O   UNK A   1      -6.743   1.599 126.810  0.00  0.00    +0.000 OA
ATOM      8  N   ILE A   2      -7.173  -0.580 127.496  0.00  0.00    +0.000 N 
ATOM      9  H   UNK A   1      -8.241   0.882 130.740  0.00  0.00    +0.000 HD
ENDROOT
BRANCH   5  10
ATOM     10  C   UNK A   1      -7.135   2.700 129.117  0.00  0.00    +0.000 C 
ATOM     11  C   UNK A   1      -6.305   3.429 130.168  0.00  0.00    +0.000 C 
ATOM     12  C   UNK A   1      -7.229   3.384 131.348  0.00  0.00    +0.000 A 
ATOM     13  C   UNK A   1      -6.880   3.442 132.682  0.00  0.00    +0.000 A 
ATOM     14  C   UNK A   1      -7.877   3.233 133.636  0.00  0.00    +0.000 A 
ATOM     15  C   UNK A   1      -9.196   2.947 133.250  0.00  0.00    +0.000 A 
ATOM     16  C   UNK A   1      -9.540   2.857 131.901  0.00  0.00    +0.000 A 
ATOM     17  C   UNK A   1      -8.550   3.092 130.960  0.00  0.00    +0.000 A 
ATOM     18  C   UNK A   1      -8.637   2.934 129.473  0.00  0.00    +0.000 C 
ENDBRANCH   5  10
BRANCH   1  19
ATOM     19  CB  ILE A   2      -7.172  -2.972 128.553  0.00  0.00    +0.000 C 
ATOM     20  CG2 ILE A   2      -8.526  -3.593 128.553  0.00  0.00    +0.000 C 
BRANCH  19  22
ATOM     21  CD1 ILE A   2      -6.082  -3.867 131.407  0.00  0.00    +0.000 C 
ATOM     22  CG1 ILE A   2      -6.354  -3.766 129.637  0.00  0.00    +0.000 C 
ENDBRANCH  19  22
ENDBRANCH   1  19
BRANCH   8  23
ATOM     23  C   UNK A   0      -7.901  -1.040 126.188  0.00  0.00    +0.000 C 
BRANCH  23  24
ATOM     24  C   UNK A   0      -7.067  -1.955 125.284  0.00  0.00    +0.000 A 
ATOM     25  C   UNK A   0      -7.492  -3.244 124.838  0.00  0.00    +0.000 A 
ATOM     26  C   UNK A   0      -6.532  -4.114 124.336  0.00  0.00    +0.000 A 
ATOM     27  C   UNK A   0      -5.263  -3.597 124.125  0.00  0.00    +0.000 A 
ATOM     28  C   UNK A   0      -4.129  -4.381 123.602  0.00  0.00    +0.000 C 
ATOM     29  N   UNK A   0      -4.910  -2.325 124.363  0.00  0.00    +0.000 NA
ATOM     30  C   UNK A   0      -5.805  -1.554 124.957  0.00  0.00    +0.000 A 
ENDBRANCH  23  24
BRANCH  23  31
ATOM     31  C   UNK A   0      -9.166   0.125 125.248  0.00  0.00    +0.000 C 
ATOM     32  O   UNK A   0     -10.224   0.380 125.743  0.00  0.00    +0.000 OA
ATOM     33  N   UNK A   0      -8.735   1.062 123.842  0.00  0.00    +0.000 N 
ATOM     34  C   UNK A   0      -7.321   1.924 123.157  0.00  0.00    +0.000 C 
ATOM     35  C   UNK A   0      -9.876   1.786 123.379  0.00  0.00    +0.000 C 
ENDBRANCH  23  31
ENDBRANCH   8  23
TORSDOF 6
ENDMDL
MODEL 7
REMARK VINA RESULT:      -8.3      3.559      7.420
REMARK  Name = CHEMBL2037498
REMARK  11 active torsions:
REMARK  status: ('A' for Active; 'I' for Inactive)
REMARK    1  A    between atoms: CD1_1  and  CG1_2
REMARK    2  A    between atoms: CG1_2  and  CB_3
REMARK    3  A    between atoms: CB_3  and  CG2_4
REMARK    4  A    between atoms: CB_3  and  CA_5
REMARK    5  A    between atoms: C_9  and  C_10
REMARK    6  A    between atoms: N_21  and  C_22
REMARK    7  A    between atoms: C_22  and  C_23
REMARK    8  A    between atoms: C_22  and  C_28
REMARK    9  A    between atoms: N_25  and  C_26
REMARK   10  A    between atoms: N_25  and  C_27
REMARK   11  A    between atoms: C_31  and  C_32
REMARK                            x       y       z     vdW  Elec       q    Type
REMARK                         _______ _______ _______ _____ _____    ______ ____
ROOT
ATOM      1  CA  ILE A   2      -4.662   2.416 127.841  0.00  0.00    +0.000 C 
ATOM      2  C   ILE A   2      -5.249   2.403 126.365  0.00  0.00    +0.000 C 
ATOM      3  O   ILE A   2      -5.048   3.169 125.434  0.00  0.00    +0.000 OA
ATOM      4  N   UNK A   1      -5.992   1.301 126.130  0.00  0.00    +0.000 N 
ATOM      5  C   UNK A   1      -6.111   0.252 127.114  0.00  0.00    +0.000 C 
ATOM      6  C   UNK A   1      -6.451   0.834 128.482  0.00  0.00    +0.000 C 
ATOM      7  O   UNK A   1      -7.166   0.205 129.226  0.00  0.00    +0.000 OA
ATOM      8  N   ILE A   2      -5.841   2.057 128.758  0.00  0.00    +0.000 N 
ATOM      9  H   UNK A   1      -6.310   1.213 125.170  0.00  0.00    +0.000 HD
ENDROOT
BRANCH   5  10
ATOM     10  C   UNK A   1      -7.285  -0.675 126.798  0.00  0.00    +0.000 C 
ATOM     11  C   UNK A   1      -6.795  -2.116 126.708  0.00  0.00    +0.000 C 
ATOM     12  C   UNK A   1      -6.495  -2.228 125.243  0.00  0.00    +0.000 A 
ATOM     13  C   UNK A   1      -5.603  -3.091 124.639  0.00  0.00    +0.000 A 
ATOM     14  C   UNK A   1      -5.355  -2.938 123.274  0.00  0.00    +0.000 A 
ATOM     15  C   UNK A   1      -5.979  -1.917 122.539  0.00  0.00    +0.000 A 
ATOM     16  C   UNK A   1      -6.857  -1.026 123.157  0.00  0.00    +0.000 A 
ATOM     17  C   UNK A   1      -7.117  -1.202 124.507  0.00  0.00    +0.000 A 
ATOM     18  C   UNK A   1      -7.913  -0.314 125.414  0.00  0.00    +0.000 C 
ENDBRANCH   5  10
BRANCH   1  19
ATOM     19  CB  ILE A   2      -3.952   3.752 128.131  0.00  0.00    +0.000 C 
ATOM     20  CG2 ILE A   2      -4.446   5.076 127.662  0.00  0.00    +0.000 C 
BRANCH  19  22
ATOM     21  CD1 ILE A   2      -1.447   2.973 126.328  0.00  0.00    +0.000 C 
ATOM     22  CG1 ILE A   2      -2.461   3.667 127.633  0.00  0.00    +0.000 C 
ENDBRANCH  19  22
ENDBRANCH   1  19
BRANCH   8  23
ATOM     23  C   UNK A   0      -6.530   3.032 129.771  0.00  0.00    +0.000 C 
BRANCH  23  24
ATOM     24  C   UNK A   0      -5.991   2.944 131.204  0.00  0.00    +0.000 A 
ATOM     25  C   UNK A   0      -6.238   1.849 132.088  0.00  0.00    +0.000 A 
ATOM     26  C   UNK A   0      -6.012   2.038 133.445  0.00  0.00    +0.000 A 
ATOM     27  C   UNK A   0      -5.378   3.213 133.821  0.00  0.00    +0.000 A 
ATOM     28  C   UNK A   0      -5.064   3.572 135.216  0.00  0.00    +0.000 C 
ATOM     29  N   UNK A   0      -4.968   4.162 132.966  0.00  0.00    +0.000 NA
ATOM     30  C   UNK A   0      -5.307   4.016 131.697  0.00  0.00    +0.000 A 
ENDBRANCH  23  24
BRANCH  23  31
ATOM     31  C   UNK A   0      -8.428   3.498 129.627  0.00  0.00    +0.000 C 
ATOM     32  O   UNK A   0      -8.860   3.928 128.599  0.00  0.00    +0.000 OA
ATOM     33  N   UNK A   0      -9.613   3.056 130.828  0.00  0.00    +0.000 N 
ATOM     34  C   UNK A   0      -9.952   1.733 131.988  0.00  0.00    +0.000 C 
ATOM     35  C   UNK A   0     -10.894   3.558 130.446  0.00  0.00    +0.000 C 
ENDBRANCH  23  31
ENDBRANCH   8  23
TORSDOF 6
ENDMDL
MODEL 8
REMARK VINA RESULT:      -8.2      3.317      7.202
REMARK  Name = CHEMBL2037498
REMARK  11 active torsions:
REMARK  status: ('A' for Active; 'I' for Inactive)
REMARK    1  A    between atoms: CD1_1  and  CG1_2
REMARK    2  A    between atoms: CG1_2  and  CB_3
REMARK    3  A    between atoms: CB_3  and  CG2_4
REMARK    4  A    between atoms: CB_3  and  CA_5
REMARK    5  A    between atoms: C_9  and  C_10
REMARK    6  A    between atoms: N_21  and  C_22
REMARK    7  A    between atoms: C_22  and  C_23
REMARK    8  A    between atoms: C_22  and  C_28
REMARK    9  A    between atoms: N_25  and  C_26
REMARK   10  A    between atoms: N_25  and  C_27
REMARK   11  A    between atoms: C_31  and  C_32
REMARK                            x       y       z     vdW  Elec       q    Type
REMARK                         _______ _______ _______ _____ _____    ______ ____
ROOT
ATOM      1  CA  ILE A   2      -7.861   0.898 129.530  0.00  0.00    +0.000 C 
ATOM      2  C   ILE A   2      -6.896  -0.142 128.816  0.00  0.00    +0.000 C 
ATOM      3  O   ILE A   2      -6.127  -0.959 129.300  0.00  0.00    +0.000 OA
ATOM      4  N   UNK A   1      -7.070  -0.151 127.477  0.00  0.00    +0.000 N 
ATOM      5  C   UNK A   1      -8.099   0.642 126.849  0.00  0.00    +0.000 C 
ATOM      6  C   UNK A   1      -8.064   2.076 127.365  0.00  0.00    +0.000 C 
ATOM      7  O   UNK A   1      -8.344   2.978 126.612  0.00  0.00    +0.000 OA
ATOM      8  N   ILE A   2      -7.745   2.196 128.717  0.00  0.00    +0.000 N 
ATOM      9  H   UNK A   1      -6.534  -0.866 126.995  0.00  0.00    +0.000 HD
ENDROOT
BRANCH   5  10
ATOM     10  C   UNK A   1      -7.853   0.778 125.346  0.00  0.00    +0.000 C 
ATOM     11  C   UNK A   1      -9.009   0.148 124.575  0.00  0.00    +0.000 C 
ATOM     12  C   UNK A   1      -8.502  -1.251 124.388  0.00  0.00    +0.000 A 
ATOM     13  C   UNK A   1      -9.256  -2.392 124.200  0.00  0.00    +0.000 A 
ATOM     14  C   UNK A   1      -8.600  -3.624 124.195  0.00  0.00    +0.000 A 
ATOM     15  C   UNK A   1      -7.214  -3.704 124.402  0.00  0.00    +0.000 A 
ATOM     16  C   UNK A   1      -6.458  -2.552 124.623  0.00  0.00    +0.000 A 
ATOM     17  C   UNK A   1      -7.113  -1.331 124.600  0.00  0.00    +0.000 A 
ATOM     18  C   UNK A   1      -6.554   0.019 124.930  0.00  0.00    +0.000 C 
ENDBRANCH   5  10
BRANCH   1  19
ATOM     19  CB  ILE A   2      -7.535   0.999 131.032  0.00  0.00    +0.000 C 
ATOM     20  CG2 ILE A   2      -7.000  -0.128 131.845  0.00  0.00    +0.000 C 
BRANCH  19  22
ATOM     21  CD1 ILE A   2      -9.346   2.728 132.998  0.00  0.00    +0.000 C 
ATOM     22  CG1 ILE A   2      -8.810   1.499 131.808  0.00  0.00    +0.000 C 
ENDBRANCH  19  22
ENDBRANCH   1  19
BRANCH   8  23
ATOM     23  C   UNK A   0      -7.086   3.524 129.221  0.00  0.00    +0.000 C 
BRANCH  23  24
ATOM     24  C   UNK A   0      -8.070   4.533 129.824  0.00  0.00    +0.000 A 
ATOM     25  C   UNK A   0      -7.697   5.573 130.732  0.00  0.00    +0.000 A 
ATOM     26  C   UNK A   0      -8.698   6.181 131.478  0.00  0.00    +0.000 A 
ATOM     27  C   UNK A   0     -10.009   5.871 131.146  0.00  0.00    +0.000 A 
ATOM     28  C   UNK A   0     -11.188   6.426 131.836  0.00  0.00    +0.000 C 
ATOM     29  N   UNK A   0     -10.366   5.037 130.159  0.00  0.00    +0.000 NA
ATOM     30  C   UNK A   0      -9.396   4.376 129.550  0.00  0.00    +0.000 A 
ENDBRANCH  23  24
BRANCH  23  31
ATOM     31  C   UNK A   0      -5.538   4.316 128.317  0.00  0.00    +0.000 C 
ATOM     32  O   UNK A   0      -5.693   4.952 127.317  0.00  0.00    +0.000 OA
ATOM     33  N   UNK A   0      -3.952   4.398 129.037  0.00  0.00    +0.000 N 
ATOM     34  C   UNK A   0      -3.193   4.580 130.649  0.00  0.00    +0.000 C 
ATOM     35  C   UNK A   0      -3.041   5.009 128.122  0.00  0.00    +0.000 C 
ENDBRANCH  23  31
ENDBRANCH   8  23
TORSDOF 6
ENDMDL
MODEL 9
REMARK VINA RESULT:      -8.2      2.127      6.995
REMARK  Name = CHEMBL2037498
REMARK  11 active torsions:
REMARK  status: ('A' for Active; 'I' for Inactive)
REMARK    1  A    between atoms: CD1_1  and  CG1_2
REMARK    2  A    between atoms: CG1_2  and  CB_3
REMARK    3  A    between atoms: CB_3  and  CG2_4
REMARK    4  A    between atoms: CB_3  and  CA_5
REMARK    5  A    between atoms: C_9  and  C_10
REMARK    6  A    between atoms: N_21  and  C_22
REMARK    7  A    between atoms: C_22  and  C_23
REMARK    8  A    between atoms: C_22  and  C_28
REMARK    9  A    between atoms: N_25  and  C_26
REMARK   10  A    between atoms: N_25  and  C_27
REMARK   11  A    between atoms: C_31  and  C_32
REMARK                            x       y       z     vdW  Elec       q    Type
REMARK                         _______ _______ _______ _____ _____    ______ ____
ROOT
ATOM      1  CA  ILE A   2      -6.752   4.010 132.029  0.00  0.00    +0.000 C 
ATOM      2  C   ILE A   2      -6.538   5.495 132.551  0.00  0.00    +0.000 C 
ATOM      3  O   ILE A   2      -7.080   6.087 133.472  0.00  0.00    +0.000 OA
ATOM      4  N   UNK A   1      -5.521   6.110 131.912  0.00  0.00    +0.000 N 
ATOM      5  C   UNK A   1      -4.703   5.407 130.952  0.00  0.00    +0.000 C 
ATOM      6  C   UNK A   1      -5.574   4.654 129.953  0.00  0.00    +0.000 C 
ATOM      7  O   UNK A   1      -5.200   4.551 128.808  0.00  0.00    +0.000 OA
ATOM      8  N   ILE A   2      -6.734   4.104 130.496  0.00  0.00    +0.000 N 
ATOM      9  H   UNK A   1      -5.296   7.028 132.281  0.00  0.00    +0.000 HD
ENDROOT
BRANCH   5  10
ATOM     10  C   UNK A   1      -3.900   6.382 130.091  0.00  0.00    +0.000 C 
ATOM     11  C   UNK A   1      -2.437   5.951 130.052  0.00  0.00    +0.000 C 
ATOM     12  C   UNK A   1      -1.877   6.728 131.205  0.00  0.00    +0.000 A 
ATOM     13  C   UNK A   1      -0.762   6.415 131.958  0.00  0.00    +0.000 A 
ATOM     14  C   UNK A   1      -0.489   7.188 133.087  0.00  0.00    +0.000 A 
ATOM     15  C   UNK A   1      -1.339   8.241 133.463  0.00  0.00    +0.000 A 
ATOM     16  C   UNK A   1      -2.482   8.536 132.719  0.00  0.00    +0.000 A 
ATOM     17  C   UNK A   1      -2.731   7.780 131.584  0.00  0.00    +0.000 A 
ATOM     18  C   UNK A   1      -3.940   7.818 130.701  0.00  0.00    +0.000 C 
ENDBRANCH   5  10
BRANCH   1  19
ATOM     19  CB  ILE A   2      -8.011   3.387 132.662  0.00  0.00    +0.000 C 
ATOM     20  CG2 ILE A   2      -8.401   3.567 134.088  0.00  0.00    +0.000 C 
BRANCH  19  22
ATOM     21  CD1 ILE A   2      -9.012   0.477 131.848  0.00  0.00    +0.000 C 
ATOM     22  CG1 ILE A   2      -7.992   1.830 132.433  0.00  0.00    +0.000 C 
ENDBRANCH  19  22
ENDBRANCH   1  19
BRANCH   8  23
ATOM     23  C   UNK A   0      -7.967   3.867 129.560  0.00  0.00    +0.000 C 
BRANCH  23  24
ATOM     24  C   UNK A   0      -9.245   4.593 129.996  0.00  0.00    +0.000 A 
ATOM     25  C   UNK A   0     -10.472   3.932 130.318  0.00  0.00    +0.000 A 
ATOM     26  C   UNK A   0     -11.635   4.690 130.348  0.00  0.00    +0.000 A 
ATOM     27  C   UNK A   0     -11.494   6.066 130.254  0.00  0.00    +0.000 A 
ATOM     28  C   UNK A   0     -12.623   7.014 130.266  0.00  0.00    +0.000 C 
ATOM     29  N   UNK A   0     -10.320   6.704 130.145  0.00  0.00    +0.000 NA
ATOM     30  C   UNK A   0      -9.241   5.956 129.993  0.00  0.00    +0.000 A 
ENDBRANCH  23  24
BRANCH  23  31
ATOM     31  C   UNK A   0      -8.255   2.158 128.646  0.00  0.00    +0.000 C 
ATOM     32  O   UNK A   0      -9.012   2.096 127.722  0.00  0.00    +0.000 OA
ATOM     33  N   UNK A   0      -7.255   0.755 128.908  0.00  0.00    +0.000 N 
ATOM     34  C   UNK A   0      -5.553   0.345 129.290  0.00  0.00    +0.000 C 
ATOM     35  C   UNK A   0      -7.734  -0.332 128.115  0.00  0.00    +0.000 C 
ENDBRANCH  23  31
ENDBRANCH   8  23
TORSDOF 6
ENDMDL
