MODEL 1
REMARK VINA RESULT:      -9.6      0.000      0.000
REMARK  Name = CHEMBL1253935
REMARK  9 active torsions:
REMARK  status: ('A' for Active; 'I' for Inactive)
REMARK    1  A    between atoms: C_1  and  O_2
REMARK    2  A    between atoms: O_2  and  N_3
REMARK    3  A    between atoms: C_6  and  C_7
REMARK    4  A    between atoms: N_9  and  C_10
REMARK    5  A    between atoms: C_10  and  C_11
REMARK    6  A    between atoms: C_11  and  O_12
REMARK    7  A    between atoms: C_11  and  C_13
REMARK    8  A    between atoms: C_20  and  C_22
REMARK    9  A    between atoms: C_25  and  C_26
REMARK                            x       y       z     vdW  Elec       q    Type
REMARK                         _______ _______ _______ _____ _____    ______ ____
ROOT
ATOM      1  N   UNL     1      -8.663   4.109 129.279  0.00  0.00    +0.000 NA
ATOM      2  C   UNL     1      -8.383   3.001 128.645  0.00  0.00    +0.000 C 
ATOM      3  C   UNL     1      -8.481   1.582 129.148  0.00  0.00    +0.000 C 
ATOM      4  C   UNL     1      -7.325   0.923 128.368  0.00  0.00    +0.000 C 
ATOM      5  N   UNL     1      -7.314   1.684 127.064  0.00  0.00    +0.000 N 
ATOM      6  C   UNL     1      -6.578   1.298 125.935  0.00  0.00    +0.000 C 
ATOM      7  O   UNL     1      -5.789   0.352 125.853  0.00  0.00    +0.000 OA
ATOM      8  C   UNL     1      -7.921   3.014 127.199  0.00  0.00    +0.000 C 
ENDROOT
BRANCH   6   9
ATOM      9  C   UNL     1      -6.653   2.061 124.677  0.00  0.00    +0.000 A 
ATOM     10  C   UNL     1      -7.284   1.531 123.541  0.00  0.00    +0.000 A 
ATOM     11  C   UNL     1      -7.129   2.171 122.306  0.00  0.00    +0.000 A 
ATOM     12  C   UNL     1      -6.395   3.366 122.201  0.00  0.00    +0.000 A 
ATOM     13  C   UNL     1      -5.717   3.834 123.335  0.00  0.00    +0.000 A 
ATOM     14  C   UNL     1      -5.826   3.174 124.556  0.00  0.00    +0.000 A 
BRANCH  12  15
ATOM     15  C   UNL     1      -6.360   4.109 120.936  0.00  0.00    +0.000 A 
ATOM     16  C   UNL     1      -7.424   3.995 120.023  0.00  0.00    +0.000 A 
ATOM     17  C   UNL     1      -7.363   4.606 118.770  0.00  0.00    +0.000 A 
ATOM     18  C   UNL     1      -6.276   5.412 118.445  0.00  0.00    +0.000 A 
ATOM     19  C   UNL     1      -5.235   5.576 119.356  0.00  0.00    +0.000 A 
ATOM     20  C   UNL     1      -5.274   4.925 120.592  0.00  0.00    +0.000 A 
ENDBRANCH  12  15
ENDBRANCH   6   9
BRANCH   4  21
ATOM     21  C   UNL     1      -7.429  -0.631 128.175  0.00  0.00    +0.000 C 
ATOM     22  O   UNL     1      -6.938  -1.422 128.984  0.00  0.00    +0.000 OA
ATOM     23  N   UNL     1      -8.167  -1.227 127.179  0.00  0.00    +0.000 N 
ATOM     24  H   UNL     1      -8.615  -0.741 126.412  0.00  0.00    +0.000 HD
BRANCH  23  25
ATOM     25  C   UNL     1      -8.151  -2.703 127.205  0.00  0.00    +0.000 C 
BRANCH  25  26
ATOM     26  C   UNL     1      -8.639  -3.383 125.930  0.00  0.00    +0.000 C 
BRANCH  26  27
ATOM     27  C   UNL     1      -7.816  -3.012 124.703  0.00  0.00    +0.000 A 
ATOM     28  C   UNL     1      -6.414  -3.033 124.717  0.00  0.00    +0.000 A 
ATOM     29  C   UNL     1      -5.681  -2.462 123.675  0.00  0.00    +0.000 A 
ATOM     30  C   UNL     1      -6.334  -1.952 122.557  0.00  0.00    +0.000 A 
ATOM     31  C   UNL     1      -7.724  -1.996 122.487  0.00  0.00    +0.000 A 
ATOM     32  C   UNL     1      -8.460  -2.519 123.554  0.00  0.00    +0.000 A 
ENDBRANCH  26  27
BRANCH  26  33
ATOM     33  O   UNL     1     -10.025  -3.067 125.757  0.00  0.00    +0.000 OA
ATOM     34  H   UNL     1     -10.197  -2.288 126.315  0.00  0.00    +0.000 HD
ENDBRANCH  26  33
ENDBRANCH  25  26
ENDBRANCH  23  25
ENDBRANCH   4  21
BRANCH   1  36
ATOM     35  C   UNL     1     -10.407   4.414 130.811  0.00  0.00    +0.000 C 
ATOM     36  O   UNL     1      -9.087   3.884 130.606  0.00  0.00    +0.000 OA
ENDBRANCH   1  36
TORSDOF 8
ENDMDL
MODEL 2
REMARK VINA RESULT:      -9.1      1.074      1.854
REMARK  Name = CHEMBL1253935
REMARK  9 active torsions:
REMARK  status: ('A' for Active; 'I' for Inactive)
REMARK    1  A    between atoms: C_1  and  O_2
REMARK    2  A    between atoms: O_2  and  N_3
REMARK    3  A    between atoms: C_6  and  C_7
REMARK    4  A    between atoms: N_9  and  C_10
REMARK    5  A    between atoms: C_10  and  C_11
REMARK    6  A    between atoms: C_11  and  O_12
REMARK    7  A    between atoms: C_11  and  C_13
REMARK    8  A    between atoms: C_20  and  C_22
REMARK    9  A    between atoms: C_25  and  C_26
REMARK                            x       y       z     vdW  Elec       q    Type
REMARK                         _______ _______ _______ _____ _____    ______ ____
ROOT
ATOM      1  N   UNL     1      -8.861   5.155 128.938  0.00  0.00    +0.000 NA
ATOM      2  C   UNL     1      -8.373   3.989 128.607  0.00  0.00    +0.000 C 
ATOM      3  C   UNL     1      -8.399   2.702 129.393  0.00  0.00    +0.000 C 
ATOM      4  C   UNL     1      -7.074   2.060 128.934  0.00  0.00    +0.000 C 
ATOM      5  N   UNL     1      -6.941   2.534 127.507  0.00  0.00    +0.000 N 
ATOM      6  C   UNL     1      -6.002   2.029 126.596  0.00  0.00    +0.000 C 
ATOM      7  O   UNL     1      -5.115   1.201 126.828  0.00  0.00    +0.000 OA
ATOM      8  C   UNL     1      -7.695   3.769 127.265  0.00  0.00    +0.000 C 
ENDROOT
BRANCH   6   9
ATOM      9  C   UNL     1      -5.960   2.503 125.202  0.00  0.00    +0.000 A 
ATOM     10  C   UNL     1      -5.339   3.715 124.863  0.00  0.00    +0.000 A 
ATOM     11  C   UNL     1      -5.525   4.251 123.584  0.00  0.00    +0.000 A 
ATOM     12  C   UNL     1      -6.281   3.562 122.618  0.00  0.00    +0.000 A 
ATOM     13  C   UNL     1      -6.948   2.391 123.003  0.00  0.00    +0.000 A 
ATOM     14  C   UNL     1      -6.808   1.879 124.291  0.00  0.00    +0.000 A 
BRANCH  12  15
ATOM     15  C   UNL     1      -6.348   4.054 121.237  0.00  0.00    +0.000 A 
ATOM     16  C   UNL     1      -5.270   4.775 120.693  0.00  0.00    +0.000 A 
ATOM     17  C   UNL     1      -5.356   5.344 119.422  0.00  0.00    +0.000 A 
ATOM     18  C   UNL     1      -6.487   5.127 118.641  0.00  0.00    +0.000 A 
ATOM     19  C   UNL     1      -7.546   4.374 119.145  0.00  0.00    +0.000 A 
ATOM     20  C   UNL     1      -7.479   3.845 120.436  0.00  0.00    +0.000 A 
ENDBRANCH  12  15
ENDBRANCH   6   9
BRANCH   4  21
ATOM     21  C   UNL     1      -6.985   0.500 129.077  0.00  0.00    +0.000 C 
ATOM     22  O   UNL     1      -6.399  -0.035 130.022  0.00  0.00    +0.000 OA
ATOM     23  N   UNL     1      -7.644  -0.380 128.251  0.00  0.00    +0.000 N 
ATOM     24  H   UNL     1      -8.150  -0.126 127.410  0.00  0.00    +0.000 HD
BRANCH  23  25
ATOM     25  C   UNL     1      -7.445  -1.803 128.588  0.00  0.00    +0.000 C 
BRANCH  25  26
ATOM     26  C   UNL     1      -7.667  -2.783 127.441  0.00  0.00    +0.000 C 
BRANCH  26  27
ATOM     27  C   UNL     1      -7.206  -2.240 126.094  0.00  0.00    +0.000 A 
ATOM     28  C   UNL     1      -8.109  -1.968 125.056  0.00  0.00    +0.000 A 
ATOM     29  C   UNL     1      -7.653  -1.708 123.763  0.00  0.00    +0.000 A 
ATOM     30  C   UNL     1      -6.289  -1.615 123.507  0.00  0.00    +0.000 A 
ATOM     31  C   UNL     1      -5.376  -1.801 124.542  0.00  0.00    +0.000 A 
ATOM     32  C   UNL     1      -5.830  -2.115 125.825  0.00  0.00    +0.000 A 
ENDBRANCH  26  27
BRANCH  26  33
ATOM     33  O   UNL     1      -9.053  -3.144 127.423  0.00  0.00    +0.000 OA
ATOM     34  H   UNL     1      -9.520  -2.405 126.996  0.00  0.00    +0.000 HD
ENDBRANCH  26  33
ENDBRANCH  25  26
ENDBRANCH  23  25
ENDBRANCH   4  21
BRANCH   1  36
ATOM     35  C   UNL     1     -10.879   5.361 130.109  0.00  0.00    +0.000 C 
ATOM     36  O   UNL     1      -9.461   5.149 130.215  0.00  0.00    +0.000 OA
ENDBRANCH   1  36
TORSDOF 8
ENDMDL
MODEL 3
REMARK VINA RESULT:      -8.9      5.433      8.687
REMARK  Name = CHEMBL1253935
REMARK  9 active torsions:
REMARK  status: ('A' for Active; 'I' for Inactive)
REMARK    1  A    between atoms: C_1  and  O_2
REMARK    2  A    between atoms: O_2  and  N_3
REMARK    3  A    between atoms: C_6  and  C_7
REMARK    4  A    between atoms: N_9  and  C_10
REMARK    5  A    between atoms: C_10  and  C_11
REMARK    6  A    between atoms: C_11  and  O_12
REMARK    7  A    between atoms: C_11  and  C_13
REMARK    8  A    between atoms: C_20  and  C_22
REMARK    9  A    between atoms: C_25  and  C_26
REMARK                            x       y       z     vdW  Elec       q    Type
REMARK                         _______ _______ _______ _____ _____    ______ ____
ROOT
ATOM      1  N   UNL     1      -8.934   4.259 130.405  0.00  0.00    +0.000 NA
ATOM      2  C   UNL     1      -8.098   4.471 129.423  0.00  0.00    +0.000 C 
ATOM      3  C   UNL     1      -8.351   4.382 127.939  0.00  0.00    +0.000 C 
ATOM      4  C   UNL     1      -6.967   3.918 127.441  0.00  0.00    +0.000 C 
ATOM      5  N   UNL     1      -6.015   4.580 128.409  0.00  0.00    +0.000 N 
ATOM      6  C   UNL     1      -4.626   4.637 128.230  0.00  0.00    +0.000 C 
ATOM      7  O   UNL     1      -3.973   4.106 127.326  0.00  0.00    +0.000 OA
ATOM      8  C   UNL     1      -6.665   4.899 129.686  0.00  0.00    +0.000 C 
ENDROOT
BRANCH   6   9
ATOM      9  C   UNL     1      -3.761   5.343 129.190  0.00  0.00    +0.000 A 
ATOM     10  C   UNL     1      -3.097   4.654 130.216  0.00  0.00    +0.000 A 
ATOM     11  C   UNL     1      -2.485   5.376 131.248  0.00  0.00    +0.000 A 
ATOM     12  C   UNL     1      -2.480   6.782 131.238  0.00  0.00    +0.000 A 
ATOM     13  C   UNL     1      -3.211   7.445 130.242  0.00  0.00    +0.000 A 
ATOM     14  C   UNL     1      -3.865   6.731 129.241  0.00  0.00    +0.000 A 
BRANCH  12  15
ATOM     15  C   UNL     1      -1.711   7.530 132.239  0.00  0.00    +0.000 A 
ATOM     16  C   UNL     1      -2.176   8.775 132.698  0.00  0.00    +0.000 A 
ATOM     17  C   UNL     1      -1.409   9.551 133.567  0.00  0.00    +0.000 A 
ATOM     18  C   UNL     1      -0.206   9.056 134.059  0.00  0.00    +0.000 A 
ATOM     19  C   UNL     1       0.248   7.802 133.654  0.00  0.00    +0.000 A 
ATOM     20  C   UNL     1      -0.496   7.046 132.746  0.00  0.00    +0.000 A 
ENDBRANCH  12  15
ENDBRANCH   6   9
BRANCH   4  21
ATOM     21  C   UNL     1      -6.639   4.235 125.939  0.00  0.00    +0.000 C 
ATOM     22  O   UNL     1      -6.744   5.373 125.476  0.00  0.00    +0.000 OA
ATOM     23  N   UNL     1      -6.100   3.318 125.067  0.00  0.00    +0.000 N 
ATOM     24  H   UNL     1      -5.969   2.332 125.262  0.00  0.00    +0.000 HD
BRANCH  23  25
ATOM     25  C   UNL     1      -5.840   3.841 123.712  0.00  0.00    +0.000 C 
BRANCH  25  26
ATOM     26  C   UNL     1      -6.814   3.372 122.635  0.00  0.00    +0.000 C 
BRANCH  26  27
ATOM     27  C   UNL     1      -6.492   3.929 121.255  0.00  0.00    +0.000 A 
ATOM     28  C   UNL     1      -5.284   4.590 120.985  0.00  0.00    +0.000 A 
ATOM     29  C   UNL     1      -5.110   5.302 119.797  0.00  0.00    +0.000 A 
ATOM     30  C   UNL     1      -6.098   5.282 118.818  0.00  0.00    +0.000 A 
ATOM     31  C   UNL     1      -7.272   4.564 119.033  0.00  0.00    +0.000 A 
ATOM     32  C   UNL     1      -7.470   3.896 120.243  0.00  0.00    +0.000 A 
ENDBRANCH  26  27
BRANCH  26  33
ATOM     33  O   UNL     1      -8.140   3.715 123.053  0.00  0.00    +0.000 OA
ATOM     34  H   UNL     1      -8.270   3.292 123.919  0.00  0.00    +0.000 HD
ENDBRANCH  26  33
ENDBRANCH  25  26
ENDBRANCH  23  25
ENDBRANCH   4  21
BRANCH   1  36
ATOM     35  C   UNL     1     -11.203   4.837 130.382  0.00  0.00    +0.000 C 
ATOM     36  O   UNL     1     -10.217   3.883 129.954  0.00  0.00    +0.000 OA
ENDBRANCH   1  36
TORSDOF 8
ENDMDL
MODEL 4
REMARK VINA RESULT:      -8.8      2.371      3.868
REMARK  Name = CHEMBL1253935
REMARK  9 active torsions:
REMARK  status: ('A' for Active; 'I' for Inactive)
REMARK    1  A    between atoms: C_1  and  O_2
REMARK    2  A    between atoms: O_2  and  N_3
REMARK    3  A    between atoms: C_6  and  C_7
REMARK    4  A    between atoms: N_9  and  C_10
REMARK    5  A    between atoms: C_10  and  C_11
REMARK    6  A    between atoms: C_11  and  O_12
REMARK    7  A    between atoms: C_11  and  C_13
REMARK    8  A    between atoms: C_20  and  C_22
REMARK    9  A    between atoms: C_25  and  C_26
REMARK                            x       y       z     vdW  Elec       q    Type
REMARK                         _______ _______ _______ _____ _____    ______ ____
ROOT
ATOM      1  N   UNL     1      -8.819   4.898 129.277  0.00  0.00    +0.000 NA
ATOM      2  C   UNL     1      -8.278   3.805 128.808  0.00  0.00    +0.000 C 
ATOM      3  C   UNL     1      -8.082   2.481 129.503  0.00  0.00    +0.000 C 
ATOM      4  C   UNL     1      -6.780   1.997 128.833  0.00  0.00    +0.000 C 
ATOM      5  N   UNL     1      -6.884   2.559 127.436  0.00  0.00    +0.000 N 
ATOM      6  C   UNL     1      -6.036   2.198 126.379  0.00  0.00    +0.000 C 
ATOM      7  O   UNL     1      -5.055   1.450 126.438  0.00  0.00    +0.000 OA
ATOM      8  C   UNL     1      -7.772   3.726 127.378  0.00  0.00    +0.000 C 
ENDROOT
BRANCH   6   9
ATOM      9  C   UNL     1      -6.225   2.750 125.026  0.00  0.00    +0.000 A 
ATOM     10  C   UNL     1      -6.982   2.068 124.062  0.00  0.00    +0.000 A 
ATOM     11  C   UNL     1      -6.943   2.492 122.728  0.00  0.00    +0.000 A 
ATOM     12  C   UNL     1      -6.199   3.626 122.355  0.00  0.00    +0.000 A 
ATOM     13  C   UNL     1      -5.397   4.245 123.323  0.00  0.00    +0.000 A 
ATOM     14  C   UNL     1      -5.392   3.796 124.642  0.00  0.00    +0.000 A 
BRANCH  12  15
ATOM     15  C   UNL     1      -6.281   4.152 120.988  0.00  0.00    +0.000 A 
ATOM     16  C   UNL     1      -5.248   4.961 120.481  0.00  0.00    +0.000 A 
ATOM     17  C   UNL     1      -5.355   5.558 119.225  0.00  0.00    +0.000 A 
ATOM     18  C   UNL     1      -6.457   5.286 118.421  0.00  0.00    +0.000 A 
ATOM     19  C   UNL     1      -7.468   4.448 118.886  0.00  0.00    +0.000 A 
ATOM     20  C   UNL     1      -7.384   3.888 120.163  0.00  0.00    +0.000 A 
ENDBRANCH  12  15
ENDBRANCH   6   9
BRANCH   4  21
ATOM     21  C   UNL     1      -6.532   0.447 128.858  0.00  0.00    +0.000 C 
ATOM     22  O   UNL     1      -5.540  -0.045 129.400  0.00  0.00    +0.000 OA
ATOM     23  N   UNL     1      -7.443  -0.477 128.401  0.00  0.00    +0.000 N 
ATOM     24  H   UNL     1      -8.298  -0.259 127.903  0.00  0.00    +0.000 HD
BRANCH  23  25
ATOM     25  C   UNL     1      -7.017  -1.882 128.552  0.00  0.00    +0.000 C 
BRANCH  25  26
ATOM     26  C   UNL     1      -7.816  -2.700 129.561  0.00  0.00    +0.000 C 
BRANCH  26  27
ATOM     27  C   UNL     1      -6.945  -3.354 130.624  0.00  0.00    +0.000 A 
ATOM     28  C   UNL     1      -6.033  -4.374 130.312  0.00  0.00    +0.000 A 
ATOM     29  C   UNL     1      -5.427  -5.124 131.321  0.00  0.00    +0.000 A 
ATOM     30  C   UNL     1      -5.642  -4.803 132.657  0.00  0.00    +0.000 A 
ATOM     31  C   UNL     1      -6.480  -3.741 132.988  0.00  0.00    +0.000 A 
ATOM     32  C   UNL     1      -7.130  -3.024 131.980  0.00  0.00    +0.000 A 
ENDBRANCH  26  27
BRANCH  26  33
ATOM     33  O   UNL     1      -8.592  -3.665 128.840  0.00  0.00    +0.000 OA
ATOM     34  H   UNL     1      -8.261  -4.537 129.114  0.00  0.00    +0.000 HD
ENDBRANCH  26  33
ENDBRANCH  25  26
ENDBRANCH  23  25
ENDBRANCH   4  21
BRANCH   1  36
ATOM     35  C   UNL     1     -10.653   4.985 130.731  0.00  0.00    +0.000 C 
ATOM     36  O   UNL     1      -9.237   4.764 130.618  0.00  0.00    +0.000 OA
ENDBRANCH   1  36
TORSDOF 8
ENDMDL
MODEL 5
REMARK VINA RESULT:      -8.8      5.809      9.200
REMARK  Name = CHEMBL1253935
REMARK  9 active torsions:
REMARK  status: ('A' for Active; 'I' for Inactive)
REMARK    1  A    between atoms: C_1  and  O_2
REMARK    2  A    between atoms: O_2  and  N_3
REMARK    3  A    between atoms: C_6  and  C_7
REMARK    4  A    between atoms: N_9  and  C_10
REMARK    5  A    between atoms: C_10  and  C_11
REMARK    6  A    between atoms: C_11  and  O_12
REMARK    7  A    between atoms: C_11  and  C_13
REMARK    8  A    between atoms: C_20  and  C_22
REMARK    9  A    between atoms: C_25  and  C_26
REMARK                            x       y       z     vdW  Elec       q    Type
REMARK                         _______ _______ _______ _____ _____    ______ ____
ROOT
ATOM      1  N   UNL     1     -10.666   6.622 132.145  0.00  0.00    +0.000 NA
ATOM      2  C   UNL     1      -9.797   6.152 131.290  0.00  0.00    +0.000 C 
ATOM      3  C   UNL     1     -10.051   5.346 130.041  0.00  0.00    +0.000 C 
ATOM      4  C   UNL     1      -8.780   4.472 130.001  0.00  0.00    +0.000 C 
ATOM      5  N   UNL     1      -7.726   5.375 130.594  0.00  0.00    +0.000 N 
ATOM      6  C   UNL     1      -6.351   5.101 130.564  0.00  0.00    +0.000 C 
ATOM      7  O   UNL     1      -5.807   4.080 130.134  0.00  0.00    +0.000 OA
ATOM      8  C   UNL     1      -8.310   6.413 131.452  0.00  0.00    +0.000 C 
ENDROOT
BRANCH   6   9
ATOM      9  C   UNL     1      -5.372   6.052 131.119  0.00  0.00    +0.000 A 
ATOM     10  C   UNL     1      -4.900   7.136 130.363  0.00  0.00    +0.000 A 
ATOM     11  C   UNL     1      -3.802   7.872 130.823  0.00  0.00    +0.000 A 
ATOM     12  C   UNL     1      -3.202   7.573 132.060  0.00  0.00    +0.000 A 
ATOM     13  C   UNL     1      -3.646   6.442 132.760  0.00  0.00    +0.000 A 
ATOM     14  C   UNL     1      -4.705   5.675 132.282  0.00  0.00    +0.000 A 
BRANCH  12  15
ATOM     15  C   UNL     1      -2.151   8.439 132.604  0.00  0.00    +0.000 A 
ATOM     16  C   UNL     1      -0.916   7.889 132.994  0.00  0.00    +0.000 A 
ATOM     17  C   UNL     1       0.056   8.673 133.613  0.00  0.00    +0.000 A 
ATOM     18  C   UNL     1      -0.155  10.039 133.773  0.00  0.00    +0.000 A 
ATOM     19  C   UNL     1      -1.352  10.613 133.348  0.00  0.00    +0.000 A 
ATOM     20  C   UNL     1      -2.346   9.817 132.773  0.00  0.00    +0.000 A 
ENDBRANCH  12  15
ENDBRANCH   6   9
BRANCH   4  21
ATOM     21  C   UNL     1      -8.385   3.902 128.594  0.00  0.00    +0.000 C 
ATOM     22  O   UNL     1      -8.693   2.760 128.244  0.00  0.00    +0.000 OA
ATOM     23  N   UNL     1      -7.788   4.653 127.609  0.00  0.00    +0.000 N 
ATOM     24  H   UNL     1      -7.440   5.598 127.722  0.00  0.00    +0.000 HD
BRANCH  23  25
ATOM     25  C   UNL     1      -7.535   3.923 126.351  0.00  0.00    +0.000 C 
BRANCH  25  26
ATOM     26  C   UNL     1      -6.312   4.383 125.564  0.00  0.00    +0.000 C 
BRANCH  26  27
ATOM     27  C   UNL     1      -5.011   4.236 126.341  0.00  0.00    +0.000 A 
ATOM     28  C   UNL     1      -4.495   5.276 127.128  0.00  0.00    +0.000 A 
ATOM     29  C   UNL     1      -3.195   5.214 127.631  0.00  0.00    +0.000 A 
ATOM     30  C   UNL     1      -2.425   4.070 127.442  0.00  0.00    +0.000 A 
ATOM     31  C   UNL     1      -2.950   2.992 126.733  0.00  0.00    +0.000 A 
ATOM     32  C   UNL     1      -4.231   3.075 126.183  0.00  0.00    +0.000 A 
ENDBRANCH  26  27
BRANCH  26  33
ATOM     33  O   UNL     1      -6.533   5.736 125.147  0.00  0.00    +0.000 OA
ATOM     34  H   UNL     1      -5.971   5.873 124.365  0.00  0.00    +0.000 HD
ENDBRANCH  26  33
ENDBRANCH  25  26
ENDBRANCH  23  25
ENDBRANCH   4  21
BRANCH   1  36
ATOM     35  C   UNL     1     -12.736   7.454 131.434  0.00  0.00    +0.000 C 
ATOM     36  O   UNL     1     -11.994   6.282 131.812  0.00  0.00    +0.000 OA
ENDBRANCH   1  36
TORSDOF 8
ENDMDL
MODEL 6
REMARK VINA RESULT:      -8.7      3.911      7.170
REMARK  Name = CHEMBL1253935
REMARK  9 active torsions:
REMARK  status: ('A' for Active; 'I' for Inactive)
REMARK    1  A    between atoms: C_1  and  O_2
REMARK    2  A    between atoms: O_2  and  N_3
REMARK    3  A    between atoms: C_6  and  C_7
REMARK    4  A    between atoms: N_9  and  C_10
REMARK    5  A    between atoms: C_10  and  C_11
REMARK    6  A    between atoms: C_11  and  O_12
REMARK    7  A    between atoms: C_11  and  C_13
REMARK    8  A    between atoms: C_20  and  C_22
REMARK    9  A    between atoms: C_25  and  C_26
REMARK                            x       y       z     vdW  Elec       q    Type
REMARK                         _______ _______ _______ _____ _____    ______ ____
ROOT
ATOM      1  N   UNL     1      -5.439   4.587 122.145  0.00  0.00    +0.000 NA
ATOM      2  C   UNL     1      -6.030   3.822 123.024  0.00  0.00    +0.000 C 
ATOM      3  C   UNL     1      -7.052   2.737 122.789  0.00  0.00    +0.000 C 
ATOM      4  C   UNL     1      -7.885   2.844 124.083  0.00  0.00    +0.000 C 
ATOM      5  N   UNL     1      -6.863   3.259 125.114  0.00  0.00    +0.000 N 
ATOM      6  C   UNL     1      -7.101   3.268 126.496  0.00  0.00    +0.000 C 
ATOM      7  O   UNL     1      -8.168   3.021 127.066  0.00  0.00    +0.000 OA
ATOM      8  C   UNL     1      -5.705   3.923 124.504  0.00  0.00    +0.000 C 
ENDROOT
BRANCH   6   9
ATOM      9  C   UNL     1      -6.041   3.638 127.450  0.00  0.00    +0.000 A 
ATOM     10  C   UNL     1      -4.881   2.860 127.588  0.00  0.00    +0.000 A 
ATOM     11  C   UNL     1      -4.015   3.098 128.661  0.00  0.00    +0.000 A 
ATOM     12  C   UNL     1      -4.265   4.142 129.570  0.00  0.00    +0.000 A 
ATOM     13  C   UNL     1      -5.465   4.857 129.451  0.00  0.00    +0.000 A 
ATOM     14  C   UNL     1      -6.356   4.591 128.414  0.00  0.00    +0.000 A 
BRANCH  12  15
ATOM     15  C   UNL     1      -3.279   4.481 130.602  0.00  0.00    +0.000 A 
ATOM     16  C   UNL     1      -3.155   3.676 131.749  0.00  0.00    +0.000 A 
ATOM     17  C   UNL     1      -2.301   4.038 132.791  0.00  0.00    +0.000 A 
ATOM     18  C   UNL     1      -1.494   5.164 132.665  0.00  0.00    +0.000 A 
ATOM     19  C   UNL     1      -1.567   5.948 131.515  0.00  0.00    +0.000 A 
ATOM     20  C   UNL     1      -2.457   5.612 130.492  0.00  0.00    +0.000 A 
ENDBRANCH  12  15
ENDBRANCH   6   9
BRANCH   4  21
ATOM     21  C   UNL     1      -8.684   1.556 124.490  0.00  0.00    +0.000 C 
ATOM     22  O   UNL     1      -9.870   1.403 124.186  0.00  0.00    +0.000 OA
ATOM     23  N   UNL     1      -8.110   0.462 125.094  0.00  0.00    +0.000 N 
ATOM     24  H   UNL     1      -7.159   0.416 125.439  0.00  0.00    +0.000 HD
BRANCH  23  25
ATOM     25  C   UNL     1      -9.043  -0.651 125.357  0.00  0.00    +0.000 C 
BRANCH  25  26
ATOM     26  C   UNL     1      -8.913  -1.846 124.418  0.00  0.00    +0.000 C 
BRANCH  26  27
ATOM     27  C   UNL     1      -7.472  -2.142 124.023  0.00  0.00    +0.000 A 
ATOM     28  C   UNL     1      -6.951  -1.757 122.779  0.00  0.00    +0.000 A 
ATOM     29  C   UNL     1      -5.719  -2.245 122.339  0.00  0.00    +0.000 A 
ATOM     30  C   UNL     1      -4.944  -3.043 123.175  0.00  0.00    +0.000 A 
ATOM     31  C   UNL     1      -5.407  -3.369 124.446  0.00  0.00    +0.000 A 
ATOM     32  C   UNL     1      -6.664  -2.926 124.866  0.00  0.00    +0.000 A 
ENDBRANCH  26  27
BRANCH  26  33
ATOM     33  O   UNL     1      -9.741  -1.606 123.274  0.00  0.00    +0.000 OA
ATOM     34  H   UNL     1     -10.534  -2.156 123.394  0.00  0.00    +0.000 HD
ENDBRANCH  26  33
ENDBRANCH  25  26
ENDBRANCH  23  25
ENDBRANCH   4  21
BRANCH   1  36
ATOM     35  C   UNL     1      -5.248   5.241 119.904  0.00  0.00    +0.000 C 
ATOM     36  O   UNL     1      -5.868   4.328 120.825  0.00  0.00    +0.000 OA
ENDBRANCH   1  36
TORSDOF 8
ENDMDL
MODEL 7
REMARK VINA RESULT:      -8.6      2.227      3.130
REMARK  Name = CHEMBL1253935
REMARK  9 active torsions:
REMARK  status: ('A' for Active; 'I' for Inactive)
REMARK    1  A    between atoms: C_1  and  O_2
REMARK    2  A    between atoms: O_2  and  N_3
REMARK    3  A    between atoms: C_6  and  C_7
REMARK    4  A    between atoms: N_9  and  C_10
REMARK    5  A    between atoms: C_10  and  C_11
REMARK    6  A    between atoms: C_11  and  O_12
REMARK    7  A    between atoms: C_11  and  C_13
REMARK    8  A    between atoms: C_20  and  C_22
REMARK    9  A    between atoms: C_25  and  C_26
REMARK                            x       y       z     vdW  Elec       q    Type
REMARK                         _______ _______ _______ _____ _____    ______ ____
ROOT
ATOM      1  N   UNL     1      -8.505   5.647 129.834  0.00  0.00    +0.000 NA
ATOM      2  C   UNL     1      -8.177   4.407 129.582  0.00  0.00    +0.000 C 
ATOM      3  C   UNL     1      -8.348   3.194 130.461  0.00  0.00    +0.000 C 
ATOM      4  C   UNL     1      -7.128   2.355 130.031  0.00  0.00    +0.000 C 
ATOM      5  N   UNL     1      -6.969   2.705 128.571  0.00  0.00    +0.000 N 
ATOM      6  C   UNL     1      -6.124   2.020 127.687  0.00  0.00    +0.000 C 
ATOM      7  O   UNL     1      -5.345   1.104 127.966  0.00  0.00    +0.000 OA
ATOM      8  C   UNL     1      -7.566   4.007 128.251  0.00  0.00    +0.000 C 
ENDROOT
BRANCH   6   9
ATOM      9  C   UNL     1      -6.056   2.384 126.261  0.00  0.00    +0.000 A 
ATOM     10  C   UNL     1      -5.249   3.444 125.818  0.00  0.00    +0.000 A 
ATOM     11  C   UNL     1      -5.391   3.917 124.508  0.00  0.00    +0.000 A 
ATOM     12  C   UNL     1      -6.290   3.306 123.615  0.00  0.00    +0.000 A 
ATOM     13  C   UNL     1      -7.132   2.298 124.103  0.00  0.00    +0.000 A 
ATOM     14  C   UNL     1      -7.032   1.857 125.420  0.00  0.00    +0.000 A 
BRANCH  12  15
ATOM     15  C   UNL     1      -6.325   3.708 122.205  0.00  0.00    +0.000 A 
ATOM     16  C   UNL     1      -5.190   4.286 121.608  0.00  0.00    +0.000 A 
ATOM     17  C   UNL     1      -5.235   4.773 120.302  0.00  0.00    +0.000 A 
ATOM     18  C   UNL     1      -6.390   4.612 119.543  0.00  0.00    +0.000 A 
ATOM     19  C   UNL     1      -7.509   3.999 120.100  0.00  0.00    +0.000 A 
ATOM     20  C   UNL     1      -7.480   3.554 121.424  0.00  0.00    +0.000 A 
ENDBRANCH  12  15
ENDBRANCH   6   9
BRANCH   4  21
ATOM     21  C   UNL     1      -7.234   0.810 130.287  0.00  0.00    +0.000 C 
ATOM     22  O   UNL     1      -8.313   0.214 130.233  0.00  0.00    +0.000 OA
ATOM     23  N   UNL     1      -6.144  -0.009 130.465  0.00  0.00    +0.000 N 
ATOM     24  H   UNL     1      -5.186   0.304 130.565  0.00  0.00    +0.000 HD
BRANCH  23  25
ATOM     25  C   UNL     1      -6.475  -1.435 130.657  0.00  0.00    +0.000 C 
BRANCH  25  26
ATOM     26  C   UNL     1      -6.101  -2.353 129.498  0.00  0.00    +0.000 C 
BRANCH  26  27
ATOM     27  C   UNL     1      -7.249  -2.584 128.524  0.00  0.00    +0.000 A 
ATOM     28  C   UNL     1      -8.175  -3.623 128.702  0.00  0.00    +0.000 A 
ATOM     29  C   UNL     1      -9.063  -3.969 127.683  0.00  0.00    +0.000 A 
ATOM     30  C   UNL     1      -9.111  -3.221 126.511  0.00  0.00    +0.000 A 
ATOM     31  C   UNL     1      -8.256  -2.135 126.348  0.00  0.00    +0.000 A 
ATOM     32  C   UNL     1      -7.329  -1.820 127.345  0.00  0.00    +0.000 A 
ENDBRANCH  26  27
BRANCH  26  33
ATOM     33  O   UNL     1      -5.610  -3.583 130.043  0.00  0.00    +0.000 OA
ATOM     34  H   UNL     1      -4.856  -3.346 130.611  0.00  0.00    +0.000 HD
ENDBRANCH  26  33
ENDBRANCH  25  26
ENDBRANCH  23  25
ENDBRANCH   4  21
BRANCH   1  36
ATOM     35  C   UNL     1     -10.406   6.329 131.019  0.00  0.00    +0.000 C 
ATOM     36  O   UNL     1      -9.070   5.809 131.116  0.00  0.00    +0.000 OA
ENDBRANCH   1  36
TORSDOF 8
ENDMDL
MODEL 8
REMARK VINA RESULT:      -8.6      4.606      8.598
REMARK  Name = CHEMBL1253935
REMARK  9 active torsions:
REMARK  status: ('A' for Active; 'I' for Inactive)
REMARK    1  A    between atoms: C_1  and  O_2
REMARK    2  A    between atoms: O_2  and  N_3
REMARK    3  A    between atoms: C_6  and  C_7
REMARK    4  A    between atoms: N_9  and  C_10
REMARK    5  A    between atoms: C_10  and  C_11
REMARK    6  A    between atoms: C_11  and  O_12
REMARK    7  A    between atoms: C_11  and  C_13
REMARK    8  A    between atoms: C_20  and  C_22
REMARK    9  A    between atoms: C_25  and  C_26
REMARK                            x       y       z     vdW  Elec       q    Type
REMARK                         _______ _______ _______ _____ _____    ______ ____
ROOT
ATOM      1  N   UNL     1      -3.418   4.294 128.979  0.00  0.00    +0.000 NA
ATOM      2  C   UNL     1      -4.678   4.364 129.319  0.00  0.00    +0.000 C 
ATOM      3  C   UNL     1      -5.393   5.472 130.050  0.00  0.00    +0.000 C 
ATOM      4  C   UNL     1      -6.458   4.666 130.820  0.00  0.00    +0.000 C 
ATOM      5  N   UNL     1      -6.762   3.520 129.885  0.00  0.00    +0.000 N 
ATOM      6  C   UNL     1      -7.837   2.635 130.050  0.00  0.00    +0.000 C 
ATOM      7  O   UNL     1      -8.633   2.604 130.994  0.00  0.00    +0.000 OA
ATOM      8  C   UNL     1      -5.655   3.259 128.958  0.00  0.00    +0.000 C 
ENDROOT
BRANCH   6   9
ATOM      9  C   UNL     1      -8.105   1.569 129.070  0.00  0.00    +0.000 A 
ATOM     10  C   UNL     1      -7.615   0.267 129.258  0.00  0.00    +0.000 A 
ATOM     11  C   UNL     1      -7.677  -0.652 128.204  0.00  0.00    +0.000 A 
ATOM     12  C   UNL     1      -8.276  -0.304 126.980  0.00  0.00    +0.000 A 
ATOM     13  C   UNL     1      -8.693   1.021 126.794  0.00  0.00    +0.000 A 
ATOM     14  C   UNL     1      -8.586   1.955 127.822  0.00  0.00    +0.000 A 
BRANCH  12  15
ATOM     15  C   UNL     1      -8.472  -1.315 125.935  0.00  0.00    +0.000 A 
ATOM     16  C   UNL     1      -8.312  -2.680 126.235  0.00  0.00    +0.000 A 
ATOM     17  C   UNL     1      -8.388  -3.649 125.235  0.00  0.00    +0.000 A 
ATOM     18  C   UNL     1      -8.711  -3.276 123.934  0.00  0.00    +0.000 A 
ATOM     19  C   UNL     1      -8.921  -1.934 123.626  0.00  0.00    +0.000 A 
ATOM     20  C   UNL     1      -8.797  -0.959 124.619  0.00  0.00    +0.000 A 
ENDBRANCH  12  15
ENDBRANCH   6   9
BRANCH   4  21
ATOM     21  C   UNL     1      -7.738   5.463 131.256  0.00  0.00    +0.000 C 
ATOM     22  O   UNL     1      -7.814   6.023 132.352  0.00  0.00    +0.000 OA
ATOM     23  N   UNL     1      -8.805   5.706 130.422  0.00  0.00    +0.000 N 
ATOM     24  H   UNL     1      -8.929   5.306 129.499  0.00  0.00    +0.000 HD
BRANCH  23  25
ATOM     25  C   UNL     1      -9.886   6.506 131.029  0.00  0.00    +0.000 C 
BRANCH  25  26
ATOM     26  C   UNL     1     -11.302   6.032 130.716  0.00  0.00    +0.000 C 
BRANCH  26  27
ATOM     27  C   UNL     1     -12.011   6.904 129.688  0.00  0.00    +0.000 A 
ATOM     28  C   UNL     1     -11.821   8.293 129.637  0.00  0.00    +0.000 A 
ATOM     29  C   UNL     1     -12.654   9.099 128.859  0.00  0.00    +0.000 A 
ATOM     30  C   UNL     1     -13.623   8.522 128.043  0.00  0.00    +0.000 A 
ATOM     31  C   UNL     1     -13.773   7.138 128.018  0.00  0.00    +0.000 A 
ATOM     32  C   UNL     1     -12.976   6.335 128.837  0.00  0.00    +0.000 A 
ENDBRANCH  26  27
BRANCH  26  33
ATOM     33  O   UNL     1     -12.031   5.961 131.947  0.00  0.00    +0.000 OA
ATOM     34  H   UNL     1     -11.687   6.678 132.508  0.00  0.00    +0.000 HD
ENDBRANCH  26  33
ENDBRANCH  25  26
ENDBRANCH  23  25
ENDBRANCH   4  21
BRANCH   1  36
ATOM     35  C   UNL     1      -2.381   6.272 128.273  0.00  0.00    +0.000 C 
ATOM     36  O   UNL     1      -2.680   5.424 129.394  0.00  0.00    +0.000 OA
ENDBRANCH   1  36
TORSDOF 8
ENDMDL
MODEL 9
REMARK VINA RESULT:      -8.6      7.928     10.275
REMARK  Name = CHEMBL1253935
REMARK  9 active torsions:
REMARK  status: ('A' for Active; 'I' for Inactive)
REMARK    1  A    between atoms: C_1  and  O_2
REMARK    2  A    between atoms: O_2  and  N_3
REMARK    3  A    between atoms: C_6  and  C_7
REMARK    4  A    between atoms: N_9  and  C_10
REMARK    5  A    between atoms: C_10  and  C_11
REMARK    6  A    between atoms: C_11  and  O_12
REMARK    7  A    between atoms: C_11  and  C_13
REMARK    8  A    between atoms: C_20  and  C_22
REMARK    9  A    between atoms: C_25  and  C_26
REMARK                            x       y       z     vdW  Elec       q    Type
REMARK                         _______ _______ _______ _____ _____    ______ ____
ROOT
ATOM      1  N   UNL     1      -7.304   0.727 133.605  0.00  0.00    +0.000 NA
ATOM      2  C   UNL     1      -6.552   1.751 133.296  0.00  0.00    +0.000 C 
ATOM      3  C   UNL     1      -5.047   1.833 133.257  0.00  0.00    +0.000 C 
ATOM      4  C   UNL     1      -4.831   3.307 133.656  0.00  0.00    +0.000 C 
ATOM      5  N   UNL     1      -6.037   4.000 133.070  0.00  0.00    +0.000 N 
ATOM      6  C   UNL     1      -6.175   5.393 132.981  0.00  0.00    +0.000 C 
ATOM      7  O   UNL     1      -5.398   6.245 133.421  0.00  0.00    +0.000 OA
ATOM      8  C   UNL     1      -7.160   3.077 132.874  0.00  0.00    +0.000 C 
ENDROOT
BRANCH   6   9
ATOM      9  C   UNL     1      -7.359   6.003 132.351  0.00  0.00    +0.000 A 
ATOM     10  C   UNL     1      -8.651   5.768 132.848  0.00  0.00    +0.000 A 
ATOM     11  C   UNL     1      -9.762   6.159 132.091  0.00  0.00    +0.000 A 
ATOM     12  C   UNL     1      -9.598   6.833 130.867  0.00  0.00    +0.000 A 
ATOM     13  C   UNL     1      -8.301   6.991 130.361  0.00  0.00    +0.000 A 
ATOM     14  C   UNL     1      -7.193   6.558 131.086  0.00  0.00    +0.000 A 
BRANCH  12  15
ATOM     15  C   UNL     1     -10.762   7.371 130.154  0.00  0.00    +0.000 A 
ATOM     16  C   UNL     1     -12.055   7.191 130.678  0.00  0.00    +0.000 A 
ATOM     17  C   UNL     1     -13.182   7.599 129.965  0.00  0.00    +0.000 A 
ATOM     18  C   UNL     1     -13.030   8.272 128.757  0.00  0.00    +0.000 A 
ATOM     19  C   UNL     1     -11.755   8.503 128.244  0.00  0.00    +0.000 A 
ATOM     20  C   UNL     1     -10.628   8.051 128.935  0.00  0.00    +0.000 A 
ENDBRANCH  12  15
ENDBRANCH   6   9
BRANCH   4  21
ATOM     21  C   UNL     1      -3.471   3.946 133.204  0.00  0.00    +0.000 C 
ATOM     22  O   UNL     1      -2.968   3.697 132.105  0.00  0.00    +0.000 OA
ATOM     23  N   UNL     1      -2.805   4.910 133.925  0.00  0.00    +0.000 N 
ATOM     24  H   UNL     1      -3.053   5.219 134.857  0.00  0.00    +0.000 HD
BRANCH  23  25
ATOM     25  C   UNL     1      -1.561   5.395 133.295  0.00  0.00    +0.000 C 
BRANCH  25  26
ATOM     26  C   UNL     1      -1.564   6.867 132.895  0.00  0.00    +0.000 C 
BRANCH  26  27
ATOM     27  C   UNL     1      -2.203   7.116 131.536  0.00  0.00    +0.000 A 
ATOM     28  C   UNL     1      -3.273   8.009 131.373  0.00  0.00    +0.000 A 
ATOM     29  C   UNL     1      -4.000   8.042 130.182  0.00  0.00    +0.000 A 
ATOM     30  C   UNL     1      -3.608   7.258 129.101  0.00  0.00    +0.000 A 
ATOM     31  C   UNL     1      -2.499   6.424 129.216  0.00  0.00    +0.000 A 
ATOM     32  C   UNL     1      -1.804   6.350 130.425  0.00  0.00    +0.000 A 
ENDBRANCH  26  27
BRANCH  26  33
ATOM     33  O   UNL     1      -0.214   7.345 132.945  0.00  0.00    +0.000 OA
ATOM     34  H   UNL     1       0.341   6.570 133.142  0.00  0.00    +0.000 HD
ENDBRANCH  26  33
ENDBRANCH  25  26
ENDBRANCH  23  25
ENDBRANCH   4  21
BRANCH   1  36
ATOM     35  C   UNL     1      -6.934  -1.541 133.151  0.00  0.00    +0.000 C 
ATOM     36  O   UNL     1      -6.550  -0.413 133.956  0.00  0.00    +0.000 OA
ENDBRANCH   1  36
TORSDOF 8
ENDMDL
