MODEL 1
REMARK VINA RESULT:     -10.3      0.000      0.000
REMARK  Name = CHEMBL287042
REMARK  6 active torsions:
REMARK  status: ('A' for Active; 'I' for Inactive)
REMARK    1  A    between atoms: C_1  and  S_2
REMARK    2  A    between atoms: S_2  and  N_5
REMARK    3  A    between atoms: C_9  and  C_10
REMARK    4  A    between atoms: C_10  and  N_11
REMARK    5  A    between atoms: C_16  and  C_17
REMARK    6  A    between atoms: C_22  and  N_23
REMARK                            x       y       z     vdW  Elec       q    Type
REMARK                         _______ _______ _______ _____ _____    ______ ____
ROOT
ATOM      1  N   UNL     1     -10.447   4.933 130.982  0.00  0.00    +0.000 N 
ATOM      2  C   UNL     1     -10.532   3.584 130.711  0.00  0.00    +0.000 A 
ATOM      3  C   UNL     1      -9.252   3.071 130.651  0.00  0.00    +0.000 A 
ATOM      4  C   UNL     1      -8.324   4.130 130.891  0.00  0.00    +0.000 A 
ATOM      5  C   UNL     1      -6.883   4.239 130.953  0.00  0.00    +0.000 A 
ATOM      6  C   UNL     1      -6.227   5.483 131.211  0.00  0.00    +0.000 A 
ATOM      7  C   UNL     1      -7.041   6.570 131.399  0.00  0.00    +0.000 A 
ATOM      8  C   UNL     1      -8.423   6.453 131.487  0.00  0.00    +0.000 A 
ATOM      9  C   UNL     1      -9.098   5.271 131.149  0.00  0.00    +0.000 A 
ENDROOT
BRANCH   6  10
ATOM     10  C   UNL     1      -4.710   5.712 131.227  0.00  0.00    +0.000 C 
ATOM     11  O   UNL     1      -4.064   5.121 130.357  0.00  0.00    +0.000 OA
ATOM     12  N   UNL     1      -4.074   6.620 132.182  0.00  0.00    +0.000 N 
ATOM     13  C   UNL     1      -3.267   7.772 131.739  0.00  0.00    +0.000 C 
ATOM     14  C   UNL     1      -1.992   8.046 132.618  0.00  0.00    +0.000 C 
ATOM     15  C   UNL     1      -2.281   8.409 134.339  0.00  0.00    +0.000 C 
ATOM     16  C   UNL     1      -3.099   6.922 134.553  0.00  0.00    +0.000 C 
ATOM     17  C   UNL     1      -4.354   6.655 133.626  0.00  0.00    +0.000 C 
BRANCH  15  18
ATOM     18  N   UNL     1      -1.916   9.975 135.213  0.00  0.00    +0.000 N 
ATOM     19  C   UNL     1      -0.624   9.821 134.716  0.00  0.00    +0.000 C 
ATOM     20  O   UNL     1       0.160   8.861 135.100  0.00  0.00    +0.000 OA
ATOM     21  O   UNL     1      -0.260  10.554 133.669  0.00  0.00    +0.000 OA
ATOM     22  C   UNL     1       0.243  11.669 134.334  0.00  0.00    +0.000 C 
ATOM     23  C   UNL     1      -1.055  12.338 134.458  0.00  0.00    +0.000 A 
ATOM     24  C   UNL     1      -1.710  13.280 133.665  0.00  0.00    +0.000 A 
ATOM     25  C   UNL     1      -2.059  14.502 134.226  0.00  0.00    +0.000 A 
ATOM     26  C   UNL     1      -1.939  14.491 135.583  0.00  0.00    +0.000 A 
ATOM     27  C   UNL     1      -1.873  13.073 136.217  0.00  0.00    +0.000 A 
ATOM     28  C   UNL     1      -1.885  11.784 135.324  0.00  0.00    +0.000 A 
ENDBRANCH  15  18
ENDBRANCH   6  10
BRANCH   1  29
ATOM     29  C   UNL     1     -11.641   5.807 131.013  0.00  0.00    +0.000 C 
BRANCH  29  34
ATOM     30  N   UNL     1     -11.653   6.545 128.542  0.00  0.00    +0.000 NA
ATOM     31  C   UNL     1     -13.096   6.790 128.141  0.00  0.00    +0.000 C 
ATOM     32  C   UNL     1     -13.407   8.120 128.801  0.00  0.00    +0.000 C 
ATOM     33  C   UNL     1     -12.776   7.881 130.138  0.00  0.00    +0.000 C 
ATOM     34  C   UNL     1     -11.571   6.973 129.993  0.00  0.00    +0.000 C 
BRANCH  30  36
ATOM     35  C   UNL     1     -11.578   7.758 126.013  0.00  0.00    +0.000 C 
ATOM     36  S   UNL     1     -10.572   7.309 127.422  0.00  0.00    +0.000 S 
ATOM     37  O   UNL     1      -9.628   6.318 126.949  0.00  0.00    +0.000 OA
ATOM     38  O   UNL     1     -10.110   8.526 128.055  0.00  0.00    +0.000 OA
ENDBRANCH  30  36
ENDBRANCH  29  34
ENDBRANCH   1  29
TORSDOF 5
ENDMDL
MODEL 2
REMARK VINA RESULT:     -10.3      1.828      2.458
REMARK  Name = CHEMBL287042
REMARK  6 active torsions:
REMARK  status: ('A' for Active; 'I' for Inactive)
REMARK    1  A    between atoms: C_1  and  S_2
REMARK    2  A    between atoms: S_2  and  N_5
REMARK    3  A    between atoms: C_9  and  C_10
REMARK    4  A    between atoms: C_10  and  N_11
REMARK    5  A    between atoms: C_16  and  C_17
REMARK    6  A    between atoms: C_22  and  N_23
REMARK                            x       y       z     vdW  Elec       q    Type
REMARK                         _______ _______ _______ _____ _____    ______ ____
ROOT
ATOM      1  N   UNL     1      -9.159   4.301 132.128  0.00  0.00    +0.000 N 
ATOM      2  C   UNL     1      -9.546   3.930 133.398  0.00  0.00    +0.000 A 
ATOM      3  C   UNL     1      -8.416   3.817 134.182  0.00  0.00    +0.000 A 
ATOM      4  C   UNL     1      -7.273   4.127 133.383  0.00  0.00    +0.000 A 
ATOM      5  C   UNL     1      -5.846   4.181 133.609  0.00  0.00    +0.000 A 
ATOM      6  C   UNL     1      -4.926   4.525 132.569  0.00  0.00    +0.000 A 
ATOM      7  C   UNL     1      -5.473   4.803 131.343  0.00  0.00    +0.000 A 
ATOM      8  C   UNL     1      -6.846   4.896 131.150  0.00  0.00    +0.000 A 
ATOM      9  C   UNL     1      -7.770   4.478 132.119  0.00  0.00    +0.000 A 
ENDROOT
BRANCH   6  10
ATOM     10  C   UNL     1      -3.397   4.541 132.692  0.00  0.00    +0.000 C 
ATOM     11  O   UNL     1      -2.834   3.448 132.591  0.00  0.00    +0.000 OA
ATOM     12  N   UNL     1      -2.648   5.786 132.864  0.00  0.00    +0.000 N 
ATOM     13  C   UNL     1      -1.606   6.204 131.907  0.00  0.00    +0.000 C 
ATOM     14  C   UNL     1      -0.352   6.884 132.571  0.00  0.00    +0.000 C 
ATOM     15  C   UNL     1      -0.658   8.376 133.494  0.00  0.00    +0.000 C 
ATOM     16  C   UNL     1      -1.763   7.563 134.515  0.00  0.00    +0.000 C 
ATOM     17  C   UNL     1      -2.994   6.853 133.817  0.00  0.00    +0.000 C 
BRANCH  15  18
ATOM     18  N   UNL     1      -0.040  10.057 133.112  0.00  0.00    +0.000 N 
ATOM     19  C   UNL     1      -1.350  10.470 133.347  0.00  0.00    +0.000 C 
ATOM     20  O   UNL     1      -2.336  10.132 132.575  0.00  0.00    +0.000 OA
ATOM     21  O   UNL     1      -1.627  11.053 134.509  0.00  0.00    +0.000 OA
ATOM     22  C   UNL     1      -1.385  12.380 134.162  0.00  0.00    +0.000 C 
ATOM     23  C   UNL     1       0.054  12.321 134.440  0.00  0.00    +0.000 A 
ATOM     24  C   UNL     1       0.809  12.624 135.572  0.00  0.00    +0.000 A 
ATOM     25  C   UNL     1       1.799  13.594 135.478  0.00  0.00    +0.000 A 
ATOM     26  C   UNL     1       2.065  13.924 134.183  0.00  0.00    +0.000 A 
ATOM     27  C   UNL     1       1.561  12.893 133.134  0.00  0.00    +0.000 A 
ATOM     28  C   UNL     1       0.758  11.619 133.570  0.00  0.00    +0.000 A 
ENDBRANCH  15  18
ENDBRANCH   6  10
BRANCH   1  29
ATOM     29  C   UNL     1     -10.124   4.410 131.011  0.00  0.00    +0.000 C 
BRANCH  29  34
ATOM     30  N   UNL     1     -11.090   6.010 129.234  0.00  0.00    +0.000 NA
ATOM     31  C   UNL     1     -12.539   6.278 129.594  0.00  0.00    +0.000 C 
ATOM     32  C   UNL     1     -12.422   7.242 130.760  0.00  0.00    +0.000 C 
ATOM     33  C   UNL     1     -11.318   6.572 131.519  0.00  0.00    +0.000 C 
ATOM     34  C   UNL     1     -10.374   5.873 130.561  0.00  0.00    +0.000 C 
BRANCH  30  36
ATOM     35  C   UNL     1     -11.963   7.987 127.444  0.00  0.00    +0.000 C 
ATOM     36  S   UNL     1     -10.504   7.211 128.129  0.00  0.00    +0.000 S 
ATOM     37  O   UNL     1      -9.846   6.540 127.029  0.00  0.00    +0.000 OA
ATOM     38  O   UNL     1      -9.799   8.195 128.923  0.00  0.00    +0.000 OA
ENDBRANCH  30  36
ENDBRANCH  29  34
ENDBRANCH   1  29
TORSDOF 5
ENDMDL
MODEL 3
REMARK VINA RESULT:     -10.2      1.633      2.181
REMARK  Name = CHEMBL287042
REMARK  6 active torsions:
REMARK  status: ('A' for Active; 'I' for Inactive)
REMARK    1  A    between atoms: C_1  and  S_2
REMARK    2  A    between atoms: S_2  and  N_5
REMARK    3  A    between atoms: C_9  and  C_10
REMARK    4  A    between atoms: C_10  and  N_11
REMARK    5  A    between atoms: C_16  and  C_17
REMARK    6  A    between atoms: C_22  and  N_23
REMARK                            x       y       z     vdW  Elec       q    Type
REMARK                         _______ _______ _______ _____ _____    ______ ____
ROOT
ATOM      1  N   UNL     1     -10.347   4.994 131.076  0.00  0.00    +0.000 N 
ATOM      2  C   UNL     1     -10.771   3.731 130.723  0.00  0.00    +0.000 A 
ATOM      3  C   UNL     1      -9.661   2.965 130.427  0.00  0.00    +0.000 A 
ATOM      4  C   UNL     1      -8.494   3.770 130.598  0.00  0.00    +0.000 A 
ATOM      5  C   UNL     1      -7.071   3.562 130.444  0.00  0.00    +0.000 A 
ATOM      6  C   UNL     1      -6.121   4.603 130.688  0.00  0.00    +0.000 A 
ATOM      7  C   UNL     1      -6.634   5.812 131.080  0.00  0.00    +0.000 A 
ATOM      8  C   UNL     1      -7.982   5.984 131.371  0.00  0.00    +0.000 A 
ATOM      9  C   UNL     1      -8.947   5.016 131.056  0.00  0.00    +0.000 A 
ENDROOT
BRANCH   6  10
ATOM     10  C   UNL     1      -4.604   4.499 130.485  0.00  0.00    +0.000 C 
ATOM     11  O   UNL     1      -4.221   3.633 129.694  0.00  0.00    +0.000 OA
ATOM     12  N   UNL     1      -3.671   5.411 131.148  0.00  0.00    +0.000 N 
ATOM     13  C   UNL     1      -2.739   6.260 130.383  0.00  0.00    +0.000 C 
ATOM     14  C   UNL     1      -1.316   6.412 131.036  0.00  0.00    +0.000 C 
ATOM     15  C   UNL     1      -1.265   7.141 132.661  0.00  0.00    +0.000 C 
ATOM     16  C   UNL     1      -2.306   5.931 133.277  0.00  0.00    +0.000 C 
ATOM     17  C   UNL     1      -3.715   5.772 132.574  0.00  0.00    +0.000 C 
BRANCH  15  18
ATOM     18  N   UNL     1      -0.484   8.727 133.136  0.00  0.00    +0.000 N 
ATOM     19  C   UNL     1      -1.788   9.184 133.321  0.00  0.00    +0.000 C 
ATOM     20  O   UNL     1      -2.620   9.332 132.336  0.00  0.00    +0.000 OA
ATOM     21  O   UNL     1      -2.254   9.273 134.562  0.00  0.00    +0.000 OA
ATOM     22  C   UNL     1      -1.869  10.577 134.859  0.00  0.00    +0.000 C 
ATOM     23  C   UNL     1      -0.520  10.211 135.303  0.00  0.00    +0.000 A 
ATOM     24  C   UNL     1       0.013   9.916 136.556  0.00  0.00    +0.000 A 
ATOM     25  C   UNL     1       1.058  10.692 137.041  0.00  0.00    +0.000 A 
ATOM     26  C   UNL     1       1.595  11.484 136.071  0.00  0.00    +0.000 A 
ATOM     27  C   UNL     1       1.248  11.054 134.617  0.00  0.00    +0.000 A 
ATOM     28  C   UNL     1       0.300   9.837 134.336  0.00  0.00    +0.000 A 
ENDBRANCH  15  18
ENDBRANCH   6  10
BRANCH   1  29
ATOM     29  C   UNL     1     -11.297   6.094 131.356  0.00  0.00    +0.000 C 
BRANCH  29  34
ATOM     30  N   UNL     1     -11.507   6.551 128.827  0.00  0.00    +0.000 NA
ATOM     31  C   UNL     1     -12.985   6.654 128.499  0.00  0.00    +0.000 C 
ATOM     32  C   UNL     1     -13.352   8.026 129.032  0.00  0.00    +0.000 C 
ATOM     33  C   UNL     1     -12.628   7.979 130.342  0.00  0.00    +0.000 C 
ATOM     34  C   UNL     1     -11.372   7.141 130.215  0.00  0.00    +0.000 C 
BRANCH  30  36
ATOM     35  C   UNL     1     -11.673   7.496 126.190  0.00  0.00    +0.000 C 
ATOM     36  S   UNL     1     -10.552   7.254 127.562  0.00  0.00    +0.000 S 
ATOM     37  O   UNL     1      -9.579   6.275 127.125  0.00  0.00    +0.000 OA
ATOM     38  O   UNL     1     -10.129   8.555 128.036  0.00  0.00    +0.000 OA
ENDBRANCH  30  36
ENDBRANCH  29  34
ENDBRANCH   1  29
TORSDOF 5
ENDMDL
MODEL 4
REMARK VINA RESULT:     -10.1      6.257      9.718
REMARK  Name = CHEMBL287042
REMARK  6 active torsions:
REMARK  status: ('A' for Active; 'I' for Inactive)
REMARK    1  A    between atoms: C_1  and  S_2
REMARK    2  A    between atoms: S_2  and  N_5
REMARK    3  A    between atoms: C_9  and  C_10
REMARK    4  A    between atoms: C_10  and  N_11
REMARK    5  A    between atoms: C_16  and  C_17
REMARK    6  A    between atoms: C_22  and  N_23
REMARK                            x       y       z     vdW  Elec       q    Type
REMARK                         _______ _______ _______ _____ _____    ______ ____
ROOT
ATOM      1  N   UNL     1      -7.220  -2.507 127.345  0.00  0.00    +0.000 N 
ATOM      2  C   UNL     1      -8.031  -3.402 128.011  0.00  0.00    +0.000 A 
ATOM      3  C   UNL     1      -8.396  -2.843 129.219  0.00  0.00    +0.000 A 
ATOM      4  C   UNL     1      -7.796  -1.551 129.324  0.00  0.00    +0.000 A 
ATOM      5  C   UNL     1      -7.788  -0.500 130.318  0.00  0.00    +0.000 A 
ATOM      6  C   UNL     1      -7.057   0.714 130.130  0.00  0.00    +0.000 A 
ATOM      7  C   UNL     1      -6.365   0.830 128.953  0.00  0.00    +0.000 A 
ATOM      8  C   UNL     1      -6.482  -0.104 127.932  0.00  0.00    +0.000 A 
ATOM      9  C   UNL     1      -7.112  -1.344 128.118  0.00  0.00    +0.000 A 
ENDROOT
BRANCH   6  10
ATOM     10  C   UNL     1      -6.930   1.853 131.152  0.00  0.00    +0.000 C 
ATOM     11  O   UNL     1      -6.012   1.747 131.969  0.00  0.00    +0.000 OA
ATOM     12  N   UNL     1      -7.812   3.020 131.123  0.00  0.00    +0.000 N 
ATOM     13  C   UNL     1      -7.284   4.390 130.982  0.00  0.00    +0.000 C 
ATOM     14  C   UNL     1      -8.039   5.468 131.843  0.00  0.00    +0.000 C 
ATOM     15  C   UNL     1      -9.775   5.680 131.499  0.00  0.00    +0.000 C 
ATOM     16  C   UNL     1     -10.080   4.030 131.830  0.00  0.00    +0.000 C 
ATOM     17  C   UNL     1      -9.276   2.967 130.977  0.00  0.00    +0.000 C 
BRANCH  15  18
ATOM     18  N   UNL     1     -10.593   7.178 130.837  0.00  0.00    +0.000 N 
ATOM     19  C   UNL     1      -9.573   7.179 129.888  0.00  0.00    +0.000 C 
ATOM     20  O   UNL     1      -8.334   7.403 130.196  0.00  0.00    +0.000 OA
ATOM     21  O   UNL     1      -9.850   6.732 128.666  0.00  0.00    +0.000 OA
ATOM     22  C   UNL     1     -10.257   7.924 128.074  0.00  0.00    +0.000 C 
ATOM     23  C   UNL     1     -11.650   7.816 128.519  0.00  0.00    +0.000 A 
ATOM     24  C   UNL     1     -12.794   7.289 127.921  0.00  0.00    +0.000 A 
ATOM     25  C   UNL     1     -13.887   8.122 127.714  0.00  0.00    +0.000 A 
ATOM     26  C   UNL     1     -13.764   9.298 128.391  0.00  0.00    +0.000 A 
ATOM     27  C   UNL     1     -12.711   9.282 129.534  0.00  0.00    +0.000 A 
ATOM     28  C   UNL     1     -11.835   8.011 129.813  0.00  0.00    +0.000 A 
ENDBRANCH  15  18
ENDBRANCH   6  10
BRANCH   1  29
ATOM     29  C   UNL     1      -6.571  -2.839 126.057  0.00  0.00    +0.000 C 
BRANCH  29  34
ATOM     30  N   UNL     1      -7.634  -0.934 124.682  0.00  0.00    +0.000 NA
ATOM     31  C   UNL     1      -6.614  -0.483 123.654  0.00  0.00    +0.000 C 
ATOM     32  C   UNL     1      -6.663  -1.594 122.622  0.00  0.00    +0.000 C 
ATOM     33  C   UNL     1      -6.690  -2.777 123.540  0.00  0.00    +0.000 C 
ATOM     34  C   UNL     1      -7.415  -2.426 124.824  0.00  0.00    +0.000 C 
BRANCH  30  36
ATOM     35  C   UNL     1      -8.978   1.087 123.274  0.00  0.00    +0.000 C 
ATOM     36  S   UNL     1      -9.223  -0.398 124.240  0.00  0.00    +0.000 S 
ATOM     37  O   UNL     1      -9.921   0.009 125.441  0.00  0.00    +0.000 OA
ATOM     38  O   UNL     1      -9.778  -1.415 123.372  0.00  0.00    +0.000 OA
ENDBRANCH  30  36
ENDBRANCH  29  34
ENDBRANCH   1  29
TORSDOF 5
ENDMDL
MODEL 5
REMARK VINA RESULT:     -10.1      6.424     10.755
REMARK  Name = CHEMBL287042
REMARK  6 active torsions:
REMARK  status: ('A' for Active; 'I' for Inactive)
REMARK    1  A    between atoms: C_1  and  S_2
REMARK    2  A    between atoms: S_2  and  N_5
REMARK    3  A    between atoms: C_9  and  C_10
REMARK    4  A    between atoms: C_10  and  N_11
REMARK    5  A    between atoms: C_16  and  C_17
REMARK    6  A    between atoms: C_22  and  N_23
REMARK                            x       y       z     vdW  Elec       q    Type
REMARK                         _______ _______ _______ _____ _____    ______ ____
ROOT
ATOM      1  N   UNL     1     -10.590   5.691 132.006  0.00  0.00    +0.000 N 
ATOM      2  C   UNL     1      -9.906   6.492 132.896  0.00  0.00    +0.000 A 
ATOM      3  C   UNL     1      -8.840   5.773 133.398  0.00  0.00    +0.000 A 
ATOM      4  C   UNL     1      -8.849   4.472 132.808  0.00  0.00    +0.000 A 
ATOM      5  C   UNL     1      -8.027   3.287 132.921  0.00  0.00    +0.000 A 
ATOM      6  C   UNL     1      -8.308   2.096 132.182  0.00  0.00    +0.000 A 
ATOM      7  C   UNL     1      -9.401   2.139 131.356  0.00  0.00    +0.000 A 
ATOM      8  C   UNL     1     -10.111   3.311 131.129  0.00  0.00    +0.000 A 
ATOM      9  C   UNL     1      -9.919   4.466 131.902  0.00  0.00    +0.000 A 
ENDROOT
BRANCH   6  10
ATOM     10  C   UNL     1      -7.540   0.772 132.287  0.00  0.00    +0.000 C 
ATOM     11  O   UNL     1      -7.397   0.317 133.425  0.00  0.00    +0.000 OA
ATOM     12  N   UNL     1      -7.054   0.064 131.102  0.00  0.00    +0.000 N 
ATOM     13  C   UNL     1      -7.467  -1.320 130.800  0.00  0.00    +0.000 C 
ATOM     14  C   UNL     1      -6.324  -2.222 130.205  0.00  0.00    +0.000 C 
ATOM     15  C   UNL     1      -5.610  -1.681 128.665  0.00  0.00    +0.000 C 
ATOM     16  C   UNL     1      -5.170  -0.179 129.354  0.00  0.00    +0.000 C 
ATOM     17  C   UNL     1      -6.334   0.690 129.982  0.00  0.00    +0.000 C 
BRANCH  15  18
ATOM     18  N   UNL     1      -5.677  -2.546 127.053  0.00  0.00    +0.000 N 
ATOM     19  C   UNL     1      -7.048  -2.635 127.285  0.00  0.00    +0.000 C 
ATOM     20  O   UNL     1      -7.549  -3.356 128.240  0.00  0.00    +0.000 OA
ATOM     21  O   UNL     1      -7.852  -1.794 126.640  0.00  0.00    +0.000 OA
ATOM     22  C   UNL     1      -8.104  -2.550 125.499  0.00  0.00    +0.000 C 
ATOM     23  C   UNL     1      -6.911  -2.093 124.779  0.00  0.00    +0.000 A 
ATOM     24  C   UNL     1      -6.695  -1.053 123.876  0.00  0.00    +0.000 A 
ATOM     25  C   UNL     1      -6.220  -1.357 122.606  0.00  0.00    +0.000 A 
ATOM     26  C   UNL     1      -5.774  -2.641 122.524  0.00  0.00    +0.000 A 
ATOM     27  C   UNL     1      -5.490  -3.318 123.894  0.00  0.00    +0.000 A 
ATOM     28  C   UNL     1      -5.768  -2.568 125.243  0.00  0.00    +0.000 A 
ENDBRANCH  15  18
ENDBRANCH   6  10
BRANCH   1  29
ATOM     29  C   UNL     1     -11.849   6.126 131.362  0.00  0.00    +0.000 C 
BRANCH  29  34
ATOM     30  N   UNL     1     -11.640   6.641 128.844  0.00  0.00    +0.000 NA
ATOM     31  C   UNL     1     -13.032   6.930 128.316  0.00  0.00    +0.000 C 
ATOM     32  C   UNL     1     -13.304   8.330 128.835  0.00  0.00    +0.000 C 
ATOM     33  C   UNL     1     -12.785   8.176 130.232  0.00  0.00    +0.000 C 
ATOM     34  C   UNL     1     -11.634   7.190 130.255  0.00  0.00    +0.000 C 
BRANCH  30  36
ATOM     35  C   UNL     1     -11.297   7.548 126.211  0.00  0.00    +0.000 C 
ATOM     36  S   UNL     1     -10.436   7.237 127.748  0.00  0.00    +0.000 S 
ATOM     37  O   UNL     1      -9.494   6.172 127.478  0.00  0.00    +0.000 OA
ATOM     38  O   UNL     1      -9.984   8.506 128.279  0.00  0.00    +0.000 OA
ENDBRANCH  30  36
ENDBRANCH  29  34
ENDBRANCH   1  29
TORSDOF 5
ENDMDL
MODEL 6
REMARK VINA RESULT:     -10.0      5.577      6.241
REMARK  Name = CHEMBL287042
REMARK  6 active torsions:
REMARK  status: ('A' for Active; 'I' for Inactive)
REMARK    1  A    between atoms: C_1  and  S_2
REMARK    2  A    between atoms: S_2  and  N_5
REMARK    3  A    between atoms: C_9  and  C_10
REMARK    4  A    between atoms: C_10  and  N_11
REMARK    5  A    between atoms: C_16  and  C_17
REMARK    6  A    between atoms: C_22  and  N_23
REMARK                            x       y       z     vdW  Elec       q    Type
REMARK                         _______ _______ _______ _____ _____    ______ ____
ROOT
ATOM      1  N   UNL     1      -8.971   4.365 131.014  0.00  0.00    +0.000 N 
ATOM      2  C   UNL     1      -9.790   3.287 131.280  0.00  0.00    +0.000 A 
ATOM      3  C   UNL     1      -9.576   2.891 132.585  0.00  0.00    +0.000 A 
ATOM      4  C   UNL     1      -8.589   3.744 133.165  0.00  0.00    +0.000 A 
ATOM      5  C   UNL     1      -7.946   3.841 134.457  0.00  0.00    +0.000 A 
ATOM      6  C   UNL     1      -6.953   4.831 134.738  0.00  0.00    +0.000 A 
ATOM      7  C   UNL     1      -6.646   5.688 133.714  0.00  0.00    +0.000 A 
ATOM      8  C   UNL     1      -7.357   5.700 132.521  0.00  0.00    +0.000 A 
ATOM      9  C   UNL     1      -8.268   4.689 132.180  0.00  0.00    +0.000 A 
ENDROOT
BRANCH   6  10
ATOM     10  C   UNL     1      -6.167   4.968 136.049  0.00  0.00    +0.000 C 
ATOM     11  O   UNL     1      -5.245   4.165 136.213  0.00  0.00    +0.000 OA
ATOM     12  N   UNL     1      -6.459   6.023 137.019  0.00  0.00    +0.000 N 
ATOM     13  C   UNL     1      -5.436   7.001 137.435  0.00  0.00    +0.000 C 
ATOM     14  C   UNL     1      -5.487   7.384 138.959  0.00  0.00    +0.000 C 
ATOM     15  C   UNL     1      -6.999   8.129 139.537  0.00  0.00    +0.000 C 
ATOM     16  C   UNL     1      -7.908   6.776 139.019  0.00  0.00    +0.000 C 
ATOM     17  C   UNL     1      -7.806   6.388 137.488  0.00  0.00    +0.000 C 
BRANCH  15  18
ATOM     18  N   UNL     1      -7.214   9.824 140.195  0.00  0.00    +0.000 N 
ATOM     19  C   UNL     1      -7.972  10.052 139.048  0.00  0.00    +0.000 C 
ATOM     20  O   UNL     1      -7.452  10.058 137.859  0.00  0.00    +0.000 OA
ATOM     21  O   UNL     1      -9.296  10.057 139.159  0.00  0.00    +0.000 OA
ATOM     22  C   UNL     1      -9.498  11.407 139.432  0.00  0.00    +0.000 C 
ATOM     23  C   UNL     1      -9.293  11.276 140.877  0.00  0.00    +0.000 A 
ATOM     24  C   UNL     1     -10.172  11.073 141.940  0.00  0.00    +0.000 A 
ATOM     25  C   UNL     1     -10.221  12.015 142.960  0.00  0.00    +0.000 A 
ATOM     26  C   UNL     1      -9.177  12.889 142.894  0.00  0.00    +0.000 A 
ATOM     27  C   UNL     1      -7.984  12.409 142.021  0.00  0.00    +0.000 A 
ATOM     28  C   UNL     1      -8.043  11.049 141.242  0.00  0.00    +0.000 A 
ENDBRANCH  15  18
ENDBRANCH   6  10
BRANCH   1  29
ATOM     29  C   UNL     1      -8.880   4.970 129.666  0.00  0.00    +0.000 C 
BRANCH  29  34
ATOM     30  N   UNL     1     -10.959   6.138 128.684  0.00  0.00    +0.000 NA
ATOM     31  C   UNL     1     -12.090   5.983 129.684  0.00  0.00    +0.000 C 
ATOM     32  C   UNL     1     -11.725   6.987 130.761  0.00  0.00    +0.000 C 
ATOM     33  C   UNL     1     -10.259   6.704 130.871  0.00  0.00    +0.000 C 
ATOM     34  C   UNL     1      -9.708   6.274 129.526  0.00  0.00    +0.000 C 
BRANCH  30  36
ATOM     35  C   UNL     1     -13.067   7.712 127.707  0.00  0.00    +0.000 C 
ATOM     36  S   UNL     1     -11.310   7.411 127.560  0.00  0.00    +0.000 S 
ATOM     37  O   UNL     1     -11.094   6.911 126.219  0.00  0.00    +0.000 OA
ATOM     38  O   UNL     1     -10.608   8.585 128.032  0.00  0.00    +0.000 OA
ENDBRANCH  30  36
ENDBRANCH  29  34
ENDBRANCH   1  29
TORSDOF 5
ENDMDL
MODEL 7
REMARK VINA RESULT:     -10.0      6.553      9.140
REMARK  Name = CHEMBL287042
REMARK  6 active torsions:
REMARK  status: ('A' for Active; 'I' for Inactive)
REMARK    1  A    between atoms: C_1  and  S_2
REMARK    2  A    between atoms: S_2  and  N_5
REMARK    3  A    between atoms: C_9  and  C_10
REMARK    4  A    between atoms: C_10  and  N_11
REMARK    5  A    between atoms: C_16  and  C_17
REMARK    6  A    between atoms: C_22  and  N_23
REMARK                            x       y       z     vdW  Elec       q    Type
REMARK                         _______ _______ _______ _____ _____    ______ ____
ROOT
ATOM      1  N   UNL     1      -7.433  -1.642 124.139  0.00  0.00    +0.000 N 
ATOM      2  C   UNL     1      -6.142  -1.683 123.657  0.00  0.00    +0.000 A 
ATOM      3  C   UNL     1      -5.298  -2.012 124.699  0.00  0.00    +0.000 A 
ATOM      4  C   UNL     1      -6.080  -2.184 125.882  0.00  0.00    +0.000 A 
ATOM      5  C   UNL     1      -5.796  -2.516 127.261  0.00  0.00    +0.000 A 
ATOM      6  C   UNL     1      -6.828  -2.604 128.247  0.00  0.00    +0.000 A 
ATOM      7  C   UNL     1      -8.105  -2.359 127.812  0.00  0.00    +0.000 A 
ATOM      8  C   UNL     1      -8.407  -2.183 126.467  0.00  0.00    +0.000 A 
ATOM      9  C   UNL     1      -7.415  -2.000 125.493  0.00  0.00    +0.000 A 
ENDROOT
BRANCH   6  10
ATOM     10  C   UNL     1      -6.620  -2.880 129.742  0.00  0.00    +0.000 C 
ATOM     11  O   UNL     1      -6.480  -4.063 130.060  0.00  0.00    +0.000 OA
ATOM     12  N   UNL     1      -6.538  -1.797 130.723  0.00  0.00    +0.000 N 
ATOM     13  C   UNL     1      -5.353  -1.616 131.583  0.00  0.00    +0.000 C 
ATOM     14  C   UNL     1      -5.682  -1.172 133.055  0.00  0.00    +0.000 C 
ATOM     15  C   UNL     1      -6.540   0.379 133.240  0.00  0.00    +0.000 C 
ATOM     16  C   UNL     1      -7.829  -0.175 132.262  0.00  0.00    +0.000 C 
ATOM     17  C   UNL     1      -7.463  -0.655 130.798  0.00  0.00    +0.000 C 
BRANCH  15  18
ATOM     18  N   UNL     1      -5.915   1.897 134.051  0.00  0.00    +0.000 N 
ATOM     19  C   UNL     1      -5.903   2.442 132.768  0.00  0.00    +0.000 C 
ATOM     20  O   UNL     1      -5.098   2.024 131.841  0.00  0.00    +0.000 OA
ATOM     21  O   UNL     1      -6.886   3.269 132.427  0.00  0.00    +0.000 OA
ATOM     22  C   UNL     1      -6.319   4.475 132.829  0.00  0.00    +0.000 C 
ATOM     23  C   UNL     1      -6.775   4.372 134.218  0.00  0.00    +0.000 A 
ATOM     24  C   UNL     1      -7.910   4.846 134.876  0.00  0.00    +0.000 A 
ATOM     25  C   UNL     1      -7.749   5.703 135.958  0.00  0.00    +0.000 A 
ATOM     26  C   UNL     1      -6.457   5.740 136.388  0.00  0.00    +0.000 A 
ATOM     27  C   UNL     1      -5.577   4.555 135.902  0.00  0.00    +0.000 A 
ATOM     28  C   UNL     1      -6.152   3.458 134.941  0.00  0.00    +0.000 A 
ENDBRANCH  15  18
ENDBRANCH   6  10
BRANCH   1  29
ATOM     29  C   UNL     1      -8.575  -1.218 123.298  0.00  0.00    +0.000 C 
BRANCH  29  34
ATOM     30  N   UNL     1      -8.138   1.195 124.095  0.00  0.00    +0.000 NA
ATOM     31  C   UNL     1      -7.997   2.069 122.863  0.00  0.00    +0.000 C 
ATOM     32  C   UNL     1      -9.430   2.217 122.391  0.00  0.00    +0.000 C 
ATOM     33  C   UNL     1      -9.888   0.801 122.555  0.00  0.00    +0.000 C 
ATOM     34  C   UNL     1      -9.168   0.151 123.720  0.00  0.00    +0.000 C 
BRANCH  30  36
ATOM     35  C   UNL     1      -6.880   2.359 126.317  0.00  0.00    +0.000 C 
ATOM     36  S   UNL     1      -8.458   2.165 125.497  0.00  0.00    +0.000 S 
ATOM     37  O   UNL     1      -9.295   1.404 126.400  0.00  0.00    +0.000 OA
ATOM     38  O   UNL     1      -8.880   3.463 125.015  0.00  0.00    +0.000 OA
ENDBRANCH  30  36
ENDBRANCH  29  34
ENDBRANCH   1  29
TORSDOF 5
ENDMDL
MODEL 8
REMARK VINA RESULT:     -10.0      5.446     10.066
REMARK  Name = CHEMBL287042
REMARK  6 active torsions:
REMARK  status: ('A' for Active; 'I' for Inactive)
REMARK    1  A    between atoms: C_1  and  S_2
REMARK    2  A    between atoms: S_2  and  N_5
REMARK    3  A    between atoms: C_9  and  C_10
REMARK    4  A    between atoms: C_10  and  N_11
REMARK    5  A    between atoms: C_16  and  C_17
REMARK    6  A    between atoms: C_22  and  N_23
REMARK                            x       y       z     vdW  Elec       q    Type
REMARK                         _______ _______ _______ _____ _____    ______ ____
ROOT
ATOM      1  N   UNL     1      -3.572  -1.410 133.313  0.00  0.00    +0.000 N 
ATOM      2  C   UNL     1      -3.326  -1.525 134.665  0.00  0.00    +0.000 A 
ATOM      3  C   UNL     1      -3.345  -0.261 135.220  0.00  0.00    +0.000 A 
ATOM      4  C   UNL     1      -3.612   0.687 134.186  0.00  0.00    +0.000 A 
ATOM      5  C   UNL     1      -3.749   2.125 134.121  0.00  0.00    +0.000 A 
ATOM      6  C   UNL     1      -4.015   2.808 132.893  0.00  0.00    +0.000 A 
ATOM      7  C   UNL     1      -4.136   2.022 131.777  0.00  0.00    +0.000 A 
ATOM      8  C   UNL     1      -4.152   0.634 131.848  0.00  0.00    +0.000 A 
ATOM      9  C   UNL     1      -3.804  -0.062 133.015  0.00  0.00    +0.000 A 
ENDROOT
BRANCH   6  10
ATOM     10  C   UNL     1      -4.107   4.329 132.713  0.00  0.00    +0.000 C 
ATOM     11  O   UNL     1      -3.107   4.974 133.040  0.00  0.00    +0.000 OA
ATOM     12  N   UNL     1      -5.289   4.969 132.135  0.00  0.00    +0.000 N 
ATOM     13  C   UNL     1      -5.205   5.805 130.922  0.00  0.00    +0.000 C 
ATOM     14  C   UNL     1      -6.135   7.073 130.944  0.00  0.00    +0.000 C 
ATOM     15  C   UNL     1      -7.885   6.769 131.090  0.00  0.00    +0.000 C 
ATOM     16  C   UNL     1      -7.652   5.919 132.556  0.00  0.00    +0.000 C 
ATOM     17  C   UNL     1      -6.679   4.671 132.515  0.00  0.00    +0.000 C 
BRANCH  15  18
ATOM     18  N   UNL     1      -9.179   7.152 129.853  0.00  0.00    +0.000 N 
ATOM     19  C   UNL     1      -9.713   5.910 130.193  0.00  0.00    +0.000 C 
ATOM     20  O   UNL     1      -9.107   4.794 129.927  0.00  0.00    +0.000 OA
ATOM     21  O   UNL     1     -10.772   5.879 130.995  0.00  0.00    +0.000 OA
ATOM     22  C   UNL     1     -11.783   5.933 130.041  0.00  0.00    +0.000 C 
ATOM     23  C   UNL     1     -11.792   7.397 129.950  0.00  0.00    +0.000 A 
ATOM     24  C   UNL     1     -12.540   8.378 130.597  0.00  0.00    +0.000 A 
ATOM     25  C   UNL     1     -13.316   9.243 129.835  0.00  0.00    +0.000 A 
ATOM     26  C   UNL     1     -13.010   9.164 128.510  0.00  0.00    +0.000 A 
ATOM     27  C   UNL     1     -11.640   8.499 128.199  0.00  0.00    +0.000 A 
ATOM     28  C   UNL     1     -10.740   7.920 129.345  0.00  0.00    +0.000 A 
ENDBRANCH  15  18
ENDBRANCH   6  10
BRANCH   1  29
ATOM     29  C   UNL     1      -3.521  -2.575 132.402  0.00  0.00    +0.000 C 
BRANCH  29  34
ATOM     30  N   UNL     1      -5.610  -2.892 130.924  0.00  0.00    +0.000 NA
ATOM     31  C   UNL     1      -5.334  -4.044 129.977  0.00  0.00    +0.000 C 
ATOM     32  C   UNL     1      -5.477  -5.259 130.875  0.00  0.00    +0.000 C 
ATOM     33  C   UNL     1      -4.732  -4.761 132.076  0.00  0.00    +0.000 C 
ATOM     34  C   UNL     1      -4.898  -3.261 132.209  0.00  0.00    +0.000 C 
BRANCH  30  36
ATOM     35  C   UNL     1      -7.491  -0.820 130.718  0.00  0.00    +0.000 C 
ATOM     36  S   UNL     1      -7.312  -2.574 131.017  0.00  0.00    +0.000 S 
ATOM     37  O   UNL     1      -7.748  -2.801 132.379  0.00  0.00    +0.000 OA
ATOM     38  O   UNL     1      -7.928  -3.285 129.917  0.00  0.00    +0.000 OA
ENDBRANCH  30  36
ENDBRANCH  29  34
ENDBRANCH   1  29
TORSDOF 5
ENDMDL
MODEL 9
REMARK VINA RESULT:     -10.0      5.267      7.444
REMARK  Name = CHEMBL287042
REMARK  6 active torsions:
REMARK  status: ('A' for Active; 'I' for Inactive)
REMARK    1  A    between atoms: C_1  and  S_2
REMARK    2  A    between atoms: S_2  and  N_5
REMARK    3  A    between atoms: C_9  and  C_10
REMARK    4  A    between atoms: C_10  and  N_11
REMARK    5  A    between atoms: C_16  and  C_17
REMARK    6  A    between atoms: C_22  and  N_23
REMARK                            x       y       z     vdW  Elec       q    Type
REMARK                         _______ _______ _______ _____ _____    ______ ____
ROOT
ATOM      1  N   UNL     1      -7.590  -2.217 127.869  0.00  0.00    +0.000 N 
ATOM      2  C   UNL     1      -7.539  -3.359 128.640  0.00  0.00    +0.000 A 
ATOM      3  C   UNL     1      -7.748  -3.004 129.958  0.00  0.00    +0.000 A 
ATOM      4  C   UNL     1      -7.937  -1.589 130.024  0.00  0.00    +0.000 A 
ATOM      5  C   UNL     1      -8.184  -0.635 131.082  0.00  0.00    +0.000 A 
ATOM      6  C   UNL     1      -8.320   0.765 130.824  0.00  0.00    +0.000 A 
ATOM      7  C   UNL     1      -8.207   1.154 129.515  0.00  0.00    +0.000 A 
ATOM      8  C   UNL     1      -8.115   0.236 128.476  0.00  0.00    +0.000 A 
ATOM      9  C   UNL     1      -7.888  -1.131 128.700  0.00  0.00    +0.000 A 
ENDROOT
BRANCH   6  10
ATOM     10  C   UNL     1      -8.512   1.859 131.884  0.00  0.00    +0.000 C 
ATOM     11  O   UNL     1      -9.642   1.949 132.370  0.00  0.00    +0.000 OA
ATOM     12  N   UNL     1      -7.406   2.707 132.328  0.00  0.00    +0.000 N 
ATOM     13  C   UNL     1      -6.992   2.765 133.743  0.00  0.00    +0.000 C 
ATOM     14  C   UNL     1      -6.573   4.198 134.237  0.00  0.00    +0.000 C 
ATOM     15  C   UNL     1      -5.197   4.954 133.395  0.00  0.00    +0.000 C 
ATOM     16  C   UNL     1      -6.000   4.827 131.890  0.00  0.00    +0.000 C 
ATOM     17  C   UNL     1      -6.447   3.378 131.436  0.00  0.00    +0.000 C 
BRANCH  15  18
ATOM     18  N   UNL     1      -3.570   5.392 134.111  0.00  0.00    +0.000 N 
ATOM     19  C   UNL     1      -3.074   4.345 133.337  0.00  0.00    +0.000 C 
ATOM     20  O   UNL     1      -3.382   3.105 133.563  0.00  0.00    +0.000 OA
ATOM     21  O   UNL     1      -2.434   4.642 132.211  0.00  0.00    +0.000 OA
ATOM     22  C   UNL     1      -1.137   4.749 132.707  0.00  0.00    +0.000 C 
ATOM     23  C   UNL     1      -1.269   6.154 133.102  0.00  0.00    +0.000 A 
ATOM     24  C   UNL     1      -0.969   7.350 132.450  0.00  0.00    +0.000 A 
ATOM     25  C   UNL     1      -0.062   8.224 133.035  0.00  0.00    +0.000 A 
ATOM     26  C   UNL     1       0.205   7.889 134.328  0.00  0.00    +0.000 A 
ATOM     27  C   UNL     1      -0.832   6.929 134.976  0.00  0.00    +0.000 A 
ATOM     28  C   UNL     1      -2.042   6.365 134.153  0.00  0.00    +0.000 A 
ENDBRANCH  15  18
ENDBRANCH   6  10
BRANCH   1  29
ATOM     29  C   UNL     1      -7.305  -2.235 126.417  0.00  0.00    +0.000 C 
BRANCH  29  34
ATOM     30  N   UNL     1      -8.268  -1.132 124.294  0.00  0.00    +0.000 NA
ATOM     31  C   UNL     1      -8.207  -2.156 123.175  0.00  0.00    +0.000 C 
ATOM     32  C   UNL     1      -9.353  -3.090 123.513  0.00  0.00    +0.000 C 
ATOM     33  C   UNL     1      -9.134  -3.220 124.989  0.00  0.00    +0.000 C 
ATOM     34  C   UNL     1      -8.552  -1.936 125.545  0.00  0.00    +0.000 C 
BRANCH  30  36
ATOM     35  C   UNL     1      -8.351   1.557 123.498  0.00  0.00    +0.000 C 
ATOM     36  S   UNL     1      -9.372   0.143 123.894  0.00  0.00    +0.000 S 
ATOM     37  O   UNL     1     -10.114   0.498 125.085  0.00  0.00    +0.000 OA
ATOM     38  O   UNL     1     -10.063  -0.269 122.690  0.00  0.00    +0.000 OA
ENDBRANCH  30  36
ENDBRANCH  29  34
ENDBRANCH   1  29
TORSDOF 5
ENDMDL
