MODEL 1
REMARK VINA RESULT:     -10.0      0.000      0.000
REMARK  Name = CHEMBL279230
REMARK  8 active torsions:
REMARK  status: ('A' for Active; 'I' for Inactive)
REMARK    1  A    between atoms: C_1  and  O_2
REMARK    2  A    between atoms: O_2  and  C_3
REMARK    3  A    between atoms: C_5  and  O_6
REMARK    4  A    between atoms: O_6  and  C_7
REMARK    5  A    between atoms: C_11  and  C_12
REMARK    6  A    between atoms: C_18  and  C_19
REMARK    7  A    between atoms: C_19  and  C_20
REMARK    8  A    between atoms: C_25  and  N_26
REMARK                            x       y       z     vdW  Elec       q    Type
REMARK                         _______ _______ _______ _____ _____    ______ ____
ROOT
ATOM      1  C   UNL     1      -5.198   4.962 130.716  0.00  0.00    +0.000 C 
ENDROOT
BRANCH   1   2
ATOM      2  C   UNL     1      -5.193   4.985 129.190  0.00  0.00    +0.000 C 
ATOM      3  O   UNL     1      -4.434   5.801 128.647  0.00  0.00    +0.000 OA
ATOM      4  N   UNL     1      -6.046   4.150 128.402  0.00  0.00    +0.000 N 
ATOM      5  C   UNL     1      -5.683   4.118 126.991  0.00  0.00    +0.000 C 
ATOM      6  C   UNL     1      -6.815   3.758 126.010  0.00  0.00    +0.000 C 
ATOM      7  C   UNL     1      -7.456   2.117 126.190  0.00  0.00    +0.000 C 
ATOM      8  C   UNL     1      -7.982   2.497 127.801  0.00  0.00    +0.000 C 
ATOM      9  C   UNL     1      -6.858   2.987 128.835  0.00  0.00    +0.000 C 
BRANCH   7  10
ATOM     10  N   UNL     1      -7.258   0.758 124.965  0.00  0.00    +0.000 N 
ATOM     11  C   UNL     1      -6.394   0.177 125.869  0.00  0.00    +0.000 C 
ATOM     12  O   UNL     1      -5.250   0.683 126.215  0.00  0.00    +0.000 OA
ATOM     13  O   UNL     1      -6.904  -0.794 126.605  0.00  0.00    +0.000 OA
ATOM     14  C   UNL     1      -6.583  -1.854 125.770  0.00  0.00    +0.000 C 
ATOM     15  C   UNL     1      -7.835  -1.796 125.008  0.00  0.00    +0.000 A 
ATOM     16  C   UNL     1      -8.972  -2.605 125.128  0.00  0.00    +0.000 A 
ATOM     17  C   UNL     1      -9.458  -3.321 124.040  0.00  0.00    +0.000 A 
ATOM     18  C   UNL     1      -8.780  -3.046 122.892  0.00  0.00    +0.000 A 
ATOM     19  C   UNL     1      -7.938  -1.739 122.952  0.00  0.00    +0.000 A 
ATOM     20  C   UNL     1      -7.964  -0.740 124.196  0.00  0.00    +0.000 A 
ENDBRANCH   7  10
ENDBRANCH   1   2
BRANCH   1  26
ATOM     21  C   UNL     1      -7.278   4.657 132.407  0.00  0.00    +0.000 A 
ATOM     22  C   UNL     1      -8.610   5.063 132.793  0.00  0.00    +0.000 A 
ATOM     23  C   UNL     1      -9.177   6.176 132.235  0.00  0.00    +0.000 A 
ATOM     24  C   UNL     1      -8.282   6.837 131.453  0.00  0.00    +0.000 A 
ATOM     25  C   UNL     1      -7.055   6.472 130.955  0.00  0.00    +0.000 A 
ATOM     26  C   UNL     1      -6.526   5.302 131.392  0.00  0.00    +0.000 A 
BRANCH  21  28
ATOM     27  C   UNL     1      -7.500   2.344 132.731  0.00  0.00    +0.000 C 
ATOM     28  O   UNL     1      -6.856   3.553 133.084  0.00  0.00    +0.000 OA
ENDBRANCH  21  28
BRANCH  23  29
ATOM     29  O   UNL     1     -10.458   6.589 132.445  0.00  0.00    +0.000 OA
BRANCH  29  30
ATOM     30  C   UNL     1     -11.617   6.110 131.676  0.00  0.00    +0.000 C 
ATOM     31  C   UNL     1     -11.328   5.378 130.351  0.00  0.00    +0.000 C 
ATOM     32  C   UNL     1     -11.080   6.310 129.193  0.00  0.00    +0.000 C 
ATOM     33  N   UNL     1     -12.123   7.415 129.142  0.00  0.00    +0.000 N 
ATOM     34  C   UNL     1     -12.652   7.886 127.954  0.00  0.00    +0.000 C 
ATOM     35  C   UNL     1     -12.257   7.217 126.661  0.00  0.00    +0.000 C 
ATOM     36  O   UNL     1     -13.474   8.804 127.925  0.00  0.00    +0.000 OA
ATOM     37  C   UNL     1     -12.583   8.125 130.426  0.00  0.00    +0.000 C 
ATOM     38  C   UNL     1     -12.774   7.124 131.547  0.00  0.00    +0.000 C 
ENDBRANCH  29  30
ENDBRANCH  23  29
ENDBRANCH   1  26
TORSDOF 6
ENDMDL
MODEL 2
REMARK VINA RESULT:      -9.9      2.542      9.070
REMARK  Name = CHEMBL279230
REMARK  8 active torsions:
REMARK  status: ('A' for Active; 'I' for Inactive)
REMARK    1  A    between atoms: C_1  and  O_2
REMARK    2  A    between atoms: O_2  and  C_3
REMARK    3  A    between atoms: C_5  and  O_6
REMARK    4  A    between atoms: O_6  and  C_7
REMARK    5  A    between atoms: C_11  and  C_12
REMARK    6  A    between atoms: C_18  and  C_19
REMARK    7  A    between atoms: C_19  and  C_20
REMARK    8  A    between atoms: C_25  and  N_26
REMARK                            x       y       z     vdW  Elec       q    Type
REMARK                         _______ _______ _______ _____ _____    ______ ____
ROOT
ATOM      1  C   UNL     1      -5.138   0.181 130.221  0.00  0.00    +0.000 C 
ENDROOT
BRANCH   1   2
ATOM      2  C   UNL     1      -6.302   0.530 131.144  0.00  0.00    +0.000 C 
ATOM      3  O   UNL     1      -6.273   0.047 132.286  0.00  0.00    +0.000 OA
ATOM      4  N   UNL     1      -7.408   1.333 130.723  0.00  0.00    +0.000 N 
ATOM      5  C   UNL     1      -8.250   1.782 131.823  0.00  0.00    +0.000 C 
ATOM      6  C   UNL     1      -9.708   2.124 131.463  0.00  0.00    +0.000 C 
ATOM      7  C   UNL     1      -9.895   3.501 130.364  0.00  0.00    +0.000 C 
ATOM      8  C   UNL     1      -9.023   2.640 129.134  0.00  0.00    +0.000 C 
ATOM      9  C   UNL     1      -7.536   2.160 129.499  0.00  0.00    +0.000 C 
BRANCH   7  10
ATOM     10  N   UNL     1     -10.631   5.127 130.813  0.00  0.00    +0.000 N 
ATOM     11  C   UNL     1      -9.352   5.635 130.738  0.00  0.00    +0.000 C 
ATOM     12  O   UNL     1      -8.386   5.306 131.542  0.00  0.00    +0.000 OA
ATOM     13  O   UNL     1      -9.054   6.274 129.622  0.00  0.00    +0.000 OA
ATOM     14  C   UNL     1      -9.429   7.548 130.024  0.00  0.00    +0.000 C 
ATOM     15  C   UNL     1     -10.816   7.420 129.563  0.00  0.00    +0.000 A 
ATOM     16  C   UNL     1     -11.401   7.926 128.395  0.00  0.00    +0.000 A 
ATOM     17  C   UNL     1     -12.505   8.769 128.455  0.00  0.00    +0.000 A 
ATOM     18  C   UNL     1     -12.971   8.924 129.725  0.00  0.00    +0.000 A 
ATOM     19  C   UNL     1     -12.465   7.843 130.722  0.00  0.00    +0.000 A 
ATOM     20  C   UNL     1     -11.584   6.589 130.278  0.00  0.00    +0.000 A 
ENDBRANCH   7  10
ENDBRANCH   1   2
BRANCH   1  26
ATOM     21  C   UNL     1      -6.035  -1.940 128.816  0.00  0.00    +0.000 A 
ATOM     22  C   UNL     1      -6.129  -2.610 127.538  0.00  0.00    +0.000 A 
ATOM     23  C   UNL     1      -5.757  -1.960 126.394  0.00  0.00    +0.000 A 
ATOM     24  C   UNL     1      -5.464  -0.656 126.649  0.00  0.00    +0.000 A 
ATOM     25  C   UNL     1      -5.248   0.021 127.824  0.00  0.00    +0.000 A 
ATOM     26  C   UNL     1      -5.483  -0.643 128.981  0.00  0.00    +0.000 A 
BRANCH  21  28
ATOM     27  C   UNL     1      -7.865  -3.001 129.831  0.00  0.00    +0.000 C 
ATOM     28  O   UNL     1      -6.479  -2.717 129.842  0.00  0.00    +0.000 OA
ENDBRANCH  21  28
BRANCH  23  29
ATOM     29  O   UNL     1      -5.705  -2.526 125.156  0.00  0.00    +0.000 OA
BRANCH  29  30
ATOM     30  C   UNL     1      -6.788  -2.442 124.164  0.00  0.00    +0.000 C 
ATOM     31  C   UNL     1      -6.654  -1.370 123.064  0.00  0.00    +0.000 C 
ATOM     32  C   UNL     1      -7.097   0.001 123.506  0.00  0.00    +0.000 C 
ATOM     33  N   UNL     1      -8.431  -0.060 124.234  0.00  0.00    +0.000 N 
ATOM     34  C   UNL     1      -9.411   0.904 124.073  0.00  0.00    +0.000 C 
ATOM     35  C   UNL     1      -9.196   2.006 123.067  0.00  0.00    +0.000 C 
ATOM     36  O   UNL     1     -10.476   0.860 124.692  0.00  0.00    +0.000 OA
ATOM     37  C   UNL     1      -8.722  -1.168 125.258  0.00  0.00    +0.000 C 
ATOM     38  C   UNL     1      -8.214  -2.503 124.753  0.00  0.00    +0.000 C 
ENDBRANCH  29  30
ENDBRANCH  23  29
ENDBRANCH   1  26
TORSDOF 6
ENDMDL
MODEL 3
REMARK VINA RESULT:      -9.5      4.475      9.892
REMARK  Name = CHEMBL279230
REMARK  8 active torsions:
REMARK  status: ('A' for Active; 'I' for Inactive)
REMARK    1  A    between atoms: C_1  and  O_2
REMARK    2  A    between atoms: O_2  and  C_3
REMARK    3  A    between atoms: C_5  and  O_6
REMARK    4  A    between atoms: O_6  and  C_7
REMARK    5  A    between atoms: C_11  and  C_12
REMARK    6  A    between atoms: C_18  and  C_19
REMARK    7  A    between atoms: C_19  and  C_20
REMARK    8  A    between atoms: C_25  and  N_26
REMARK                            x       y       z     vdW  Elec       q    Type
REMARK                         _______ _______ _______ _____ _____    ______ ____
ROOT
ATOM      1  C   UNL     1      -7.742   3.627 124.709  0.00  0.00    +0.000 C 
ENDROOT
BRANCH   1   2
ATOM      2  C   UNL     1      -6.224   3.738 124.821  0.00  0.00    +0.000 C 
ATOM      3  O   UNL     1      -5.586   3.762 123.758  0.00  0.00    +0.000 OA
ATOM      4  N   UNL     1      -5.543   3.768 126.078  0.00  0.00    +0.000 N 
ATOM      5  C   UNL     1      -4.145   4.165 125.970  0.00  0.00    +0.000 C 
ATOM      6  C   UNL     1      -3.216   3.683 127.100  0.00  0.00    +0.000 C 
ATOM      7  C   UNL     1      -3.591   4.345 128.699  0.00  0.00    +0.000 C 
ATOM      8  C   UNL     1      -5.146   3.574 128.656  0.00  0.00    +0.000 C 
ATOM      9  C   UNL     1      -6.112   3.957 127.434  0.00  0.00    +0.000 C 
BRANCH   7  10
ATOM     10  N   UNL     1      -2.535   5.527 129.635  0.00  0.00    +0.000 N 
ATOM     11  C   UNL     1      -3.585   6.415 129.539  0.00  0.00    +0.000 C 
ATOM     12  O   UNL     1      -4.009   6.928 128.424  0.00  0.00    +0.000 OA
ATOM     13  O   UNL     1      -4.349   6.517 130.612  0.00  0.00    +0.000 OA
ATOM     14  C   UNL     1      -3.664   7.549 131.237  0.00  0.00    +0.000 C 
ATOM     15  C   UNL     1      -2.761   6.665 131.982  0.00  0.00    +0.000 A 
ATOM     16  C   UNL     1      -2.827   6.277 133.326  0.00  0.00    +0.000 A 
ATOM     17  C   UNL     1      -1.765   6.513 134.192  0.00  0.00    +0.000 A 
ATOM     18  C   UNL     1      -0.682   7.036 133.555  0.00  0.00    +0.000 A 
ATOM     19  C   UNL     1      -0.711   6.861 132.010  0.00  0.00    +0.000 A 
ATOM     20  C   UNL     1      -1.840   6.033 131.246  0.00  0.00    +0.000 A 
ENDBRANCH   7  10
ENDBRANCH   1   2
BRANCH   1  26
ATOM     21  C   UNL     1      -8.845   1.458 125.874  0.00  0.00    +0.000 A 
ATOM     22  C   UNL     1      -9.197   0.060 125.770  0.00  0.00    +0.000 A 
ATOM     23  C   UNL     1      -9.119  -0.579 124.563  0.00  0.00    +0.000 A 
ATOM     24  C   UNL     1      -8.830   0.299 123.565  0.00  0.00    +0.000 A 
ATOM     25  C   UNL     1      -8.383   1.597 123.589  0.00  0.00    +0.000 A 
ATOM     26  C   UNL     1      -8.323   2.216 124.794  0.00  0.00    +0.000 A 
BRANCH  21  28
ATOM     27  C   UNL     1      -8.363   1.211 128.156  0.00  0.00    +0.000 C 
ATOM     28  O   UNL     1      -9.014   1.942 127.135  0.00  0.00    +0.000 OA
ENDBRANCH  21  28
BRANCH  23  29
ATOM     29  O   UNL     1      -9.325  -1.912 124.371  0.00  0.00    +0.000 OA
BRANCH  29  30
ATOM     30  C   UNL     1      -8.398  -2.964 124.819  0.00  0.00    +0.000 C 
ATOM     31  C   UNL     1      -8.733  -3.680 126.142  0.00  0.00    +0.000 C 
ATOM     32  C   UNL     1      -8.290  -2.919 127.364  0.00  0.00    +0.000 C 
ATOM     33  N   UNL     1      -6.865  -2.411 127.211  0.00  0.00    +0.000 N 
ATOM     34  C   UNL     1      -5.960  -2.405 128.257  0.00  0.00    +0.000 C 
ATOM     35  C   UNL     1      -6.363  -3.014 129.577  0.00  0.00    +0.000 C 
ATOM     36  O   UNL     1      -4.817  -1.962 128.128  0.00  0.00    +0.000 OA
ATOM     37  C   UNL     1      -6.385  -1.795 125.886  0.00  0.00    +0.000 C 
ATOM     38  C   UNL     1      -6.902  -2.599 124.710  0.00  0.00    +0.000 C 
ENDBRANCH  29  30
ENDBRANCH  23  29
ENDBRANCH   1  26
TORSDOF 6
ENDMDL
MODEL 4
REMARK VINA RESULT:      -9.5      1.484      1.828
REMARK  Name = CHEMBL279230
REMARK  8 active torsions:
REMARK  status: ('A' for Active; 'I' for Inactive)
REMARK    1  A    between atoms: C_1  and  O_2
REMARK    2  A    between atoms: O_2  and  C_3
REMARK    3  A    between atoms: C_5  and  O_6
REMARK    4  A    between atoms: O_6  and  C_7
REMARK    5  A    between atoms: C_11  and  C_12
REMARK    6  A    between atoms: C_18  and  C_19
REMARK    7  A    between atoms: C_19  and  C_20
REMARK    8  A    between atoms: C_25  and  N_26
REMARK                            x       y       z     vdW  Elec       q    Type
REMARK                         _______ _______ _______ _____ _____    ______ ____
ROOT
ATOM      1  C   UNL     1      -4.276   5.620 130.074  0.00  0.00    +0.000 C 
ENDROOT
BRANCH   1   2
ATOM      2  C   UNL     1      -4.097   4.403 129.171  0.00  0.00    +0.000 C 
ATOM      3  O   UNL     1      -2.998   3.830 129.218  0.00  0.00    +0.000 OA
ATOM      4  N   UNL     1      -5.113   3.953 128.271  0.00  0.00    +0.000 N 
ATOM      5  C   UNL     1      -4.856   2.627 127.724  0.00  0.00    +0.000 C 
ATOM      6  C   UNL     1      -5.527   2.310 126.374  0.00  0.00    +0.000 C 
ATOM      7  C   UNL     1      -7.297   2.277 126.418  0.00  0.00    +0.000 C 
ATOM      8  C   UNL     1      -7.320   3.954 126.867  0.00  0.00    +0.000 C 
ATOM      9  C   UNL     1      -6.538   4.356 128.209  0.00  0.00    +0.000 C 
BRANCH   7  10
ATOM     10  N   UNL     1      -8.337   0.775 126.199  0.00  0.00    +0.000 N 
ATOM     11  C   UNL     1      -8.731   1.323 124.996  0.00  0.00    +0.000 C 
ATOM     12  O   UNL     1      -9.429   2.412 124.883  0.00  0.00    +0.000 OA
ATOM     13  O   UNL     1      -8.124   0.847 123.924  0.00  0.00    +0.000 OA
ATOM     14  C   UNL     1      -9.017  -0.175 123.637  0.00  0.00    +0.000 C 
ATOM     15  C   UNL     1      -8.325  -1.177 124.454  0.00  0.00    +0.000 A 
ATOM     16  C   UNL     1      -7.461  -2.201 124.042  0.00  0.00    +0.000 A 
ATOM     17  C   UNL     1      -7.731  -3.530 124.346  0.00  0.00    +0.000 A 
ATOM     18  C   UNL     1      -8.821  -3.669 125.150  0.00  0.00    +0.000 A 
ATOM     19  C   UNL     1      -9.249  -2.357 125.868  0.00  0.00    +0.000 A 
ATOM     20  C   UNL     1      -8.414  -1.000 125.777  0.00  0.00    +0.000 A 
ENDBRANCH   7  10
ENDBRANCH   1   2
BRANCH   1  26
ATOM     21  C   UNL     1      -6.264   4.818 131.712  0.00  0.00    +0.000 A 
ATOM     22  C   UNL     1      -7.610   5.028 132.197  0.00  0.00    +0.000 A 
ATOM     23  C   UNL     1      -8.281   6.177 131.880  0.00  0.00    +0.000 A 
ATOM     24  C   UNL     1      -7.469   7.050 131.226  0.00  0.00    +0.000 A 
ATOM     25  C   UNL     1      -6.236   6.893 130.642  0.00  0.00    +0.000 A 
ATOM     26  C   UNL     1      -5.601   5.710 130.830  0.00  0.00    +0.000 A 
BRANCH  21  28
ATOM     27  C   UNL     1      -5.491   3.570 133.542  0.00  0.00    +0.000 C 
ATOM     28  O   UNL     1      -5.733   3.643 132.150  0.00  0.00    +0.000 OA
ENDBRANCH  21  28
BRANCH  23  29
ATOM     29  O   UNL     1      -9.582   6.432 132.193  0.00  0.00    +0.000 OA
BRANCH  29  30
ATOM     30  C   UNL     1     -10.731   5.837 131.493  0.00  0.00    +0.000 C 
ATOM     31  C   UNL     1     -10.484   5.286 130.075  0.00  0.00    +0.000 C 
ATOM     32  C   UNL     1     -10.518   6.347 129.005  0.00  0.00    +0.000 C 
ATOM     33  N   UNL     1     -11.721   7.262 129.176  0.00  0.00    +0.000 N 
ATOM     34  C   UNL     1     -12.448   7.743 128.102  0.00  0.00    +0.000 C 
ATOM     35  C   UNL     1     -12.104   7.269 126.713  0.00  0.00    +0.000 C 
ATOM     36  O   UNL     1     -13.403   8.509 128.252  0.00  0.00    +0.000 OA
ATOM     37  C   UNL     1     -12.138   7.767 130.567  0.00  0.00    +0.000 C 
ATOM     38  C   UNL     1     -12.041   6.650 131.587  0.00  0.00    +0.000 C 
ENDBRANCH  29  30
ENDBRANCH  23  29
ENDBRANCH   1  26
TORSDOF 6
ENDMDL
MODEL 5
REMARK VINA RESULT:      -9.5      3.429      6.194
REMARK  Name = CHEMBL279230
REMARK  8 active torsions:
REMARK  status: ('A' for Active; 'I' for Inactive)
REMARK    1  A    between atoms: C_1  and  O_2
REMARK    2  A    between atoms: O_2  and  C_3
REMARK    3  A    between atoms: C_5  and  O_6
REMARK    4  A    between atoms: O_6  and  C_7
REMARK    5  A    between atoms: C_11  and  C_12
REMARK    6  A    between atoms: C_18  and  C_19
REMARK    7  A    between atoms: C_19  and  C_20
REMARK    8  A    between atoms: C_25  and  N_26
REMARK                            x       y       z     vdW  Elec       q    Type
REMARK                         _______ _______ _______ _____ _____    ______ ____
ROOT
ATOM      1  C   UNL     1      -7.614   5.002 134.291  0.00  0.00    +0.000 C 
ENDROOT
BRANCH   1   2
ATOM      2  C   UNL     1      -8.328   3.760 133.764  0.00  0.00    +0.000 C 
ATOM      3  O   UNL     1      -9.565   3.750 133.848  0.00  0.00    +0.000 OA
ATOM      4  N   UNL     1      -7.626   2.632 133.236  0.00  0.00    +0.000 N 
ATOM      5  C   UNL     1      -8.487   1.692 132.530  0.00  0.00    +0.000 C 
ATOM      6  C   UNL     1      -7.980   0.240 132.447  0.00  0.00    +0.000 C 
ATOM      7  C   UNL     1      -6.486   0.031 131.518  0.00  0.00    +0.000 C 
ATOM      8  C   UNL     1      -5.637   1.036 132.653  0.00  0.00    +0.000 C 
ATOM      9  C   UNL     1      -6.195   2.525 132.861  0.00  0.00    +0.000 C 
BRANCH   7  10
ATOM     10  N   UNL     1      -6.352  -0.841 129.904  0.00  0.00    +0.000 N 
ATOM     11  C   UNL     1      -5.784  -1.883 130.606  0.00  0.00    +0.000 C 
ATOM     12  O   UNL     1      -4.638  -1.816 131.213  0.00  0.00    +0.000 OA
ATOM     13  O   UNL     1      -6.589  -2.891 130.887  0.00  0.00    +0.000 OA
ATOM     14  C   UNL     1      -6.344  -3.653 129.754  0.00  0.00    +0.000 C 
ATOM     15  C   UNL     1      -7.413  -3.040 128.959  0.00  0.00    +0.000 A 
ATOM     16  C   UNL     1      -8.690  -3.542 128.672  0.00  0.00    +0.000 A 
ATOM     17  C   UNL     1      -9.113  -3.710 127.359  0.00  0.00    +0.000 A 
ATOM     18  C   UNL     1      -8.210  -3.238 126.457  0.00  0.00    +0.000 A 
ATOM     19  C   UNL     1      -7.153  -2.273 127.065  0.00  0.00    +0.000 A 
ATOM     20  C   UNL     1      -7.194  -1.776 128.581  0.00  0.00    +0.000 A 
ENDBRANCH   7  10
ENDBRANCH   1   2
BRANCH   1  26
ATOM     21  C   UNL     1      -6.968   6.326 132.032  0.00  0.00    +0.000 A 
ATOM     22  C   UNL     1      -5.927   6.835 131.167  0.00  0.00    +0.000 A 
ATOM     23  C   UNL     1      -4.627   6.845 131.591  0.00  0.00    +0.000 A 
ATOM     24  C   UNL     1      -4.538   6.472 132.896  0.00  0.00    +0.000 A 
ATOM     25  C   UNL     1      -5.444   5.881 133.743  0.00  0.00    +0.000 A 
ATOM     26  C   UNL     1      -6.716   5.737 133.297  0.00  0.00    +0.000 A 
BRANCH  21  28
ATOM     27  C   UNL     1      -8.505   5.439 130.497  0.00  0.00    +0.000 C 
ATOM     28  O   UNL     1      -8.203   6.424 131.467  0.00  0.00    +0.000 OA
ENDBRANCH  21  28
BRANCH  23  29
ATOM     29  O   UNL     1      -3.558   7.202 130.825  0.00  0.00    +0.000 OA
BRANCH  29  30
ATOM     30  C   UNL     1      -2.703   6.245 130.105  0.00  0.00    +0.000 C 
ATOM     31  C   UNL     1      -2.500   6.480 128.595  0.00  0.00    +0.000 C 
ATOM     32  C   UNL     1      -3.626   5.945 127.749  0.00  0.00    +0.000 C 
ATOM     33  N   UNL     1      -4.010   4.535 128.170  0.00  0.00    +0.000 N 
ATOM     34  C   UNL     1      -4.353   3.554 127.257  0.00  0.00    +0.000 C 
ATOM     35  C   UNL     1      -4.252   3.857 125.784  0.00  0.00    +0.000 C 
ATOM     36  O   UNL     1      -4.692   2.423 127.613  0.00  0.00    +0.000 OA
ATOM     37  C   UNL     1      -4.113   4.155 129.656  0.00  0.00    +0.000 C 
ATOM     38  C   UNL     1      -2.965   4.761 130.439  0.00  0.00    +0.000 C 
ENDBRANCH  29  30
ENDBRANCH  23  29
ENDBRANCH   1  26
TORSDOF 6
ENDMDL
MODEL 6
REMARK VINA RESULT:      -9.2      5.269     10.002
REMARK  Name = CHEMBL279230
REMARK  8 active torsions:
REMARK  status: ('A' for Active; 'I' for Inactive)
REMARK    1  A    between atoms: C_1  and  O_2
REMARK    2  A    between atoms: O_2  and  C_3
REMARK    3  A    between atoms: C_5  and  O_6
REMARK    4  A    between atoms: O_6  and  C_7
REMARK    5  A    between atoms: C_11  and  C_12
REMARK    6  A    between atoms: C_18  and  C_19
REMARK    7  A    between atoms: C_19  and  C_20
REMARK    8  A    between atoms: C_25  and  N_26
REMARK                            x       y       z     vdW  Elec       q    Type
REMARK                         _______ _______ _______ _____ _____    ______ ____
ROOT
ATOM      1  C   UNL     1      -5.507   3.726 134.808  0.00  0.00    +0.000 C 
ENDROOT
BRANCH   1   2
ATOM      2  C   UNL     1      -4.293   3.933 133.908  0.00  0.00    +0.000 C 
ATOM      3  O   UNL     1      -4.145   3.127 132.977  0.00  0.00    +0.000 OA
ATOM      4  N   UNL     1      -3.332   4.969 134.132  0.00  0.00    +0.000 N 
ATOM      5  C   UNL     1      -2.427   5.172 133.009  0.00  0.00    +0.000 C 
ATOM      6  C   UNL     1      -1.062   5.802 133.346  0.00  0.00    +0.000 C 
ATOM      7  C   UNL     1      -1.146   7.460 133.965  0.00  0.00    +0.000 C 
ATOM      8  C   UNL     1      -2.051   6.904 135.339  0.00  0.00    +0.000 C 
ATOM      9  C   UNL     1      -3.428   6.138 135.039  0.00  0.00    +0.000 C 
BRANCH   7  10
ATOM     10  N   UNL     1      -0.543   8.956 133.080  0.00  0.00    +0.000 N 
ATOM     11  C   UNL     1      -1.867   9.323 132.966  0.00  0.00    +0.000 C 
ATOM     12  O   UNL     1      -2.748   8.674 132.267  0.00  0.00    +0.000 OA
ATOM     13  O   UNL     1      -2.289  10.221 133.837  0.00  0.00    +0.000 OA
ATOM     14  C   UNL     1      -2.014  11.357 133.090  0.00  0.00    +0.000 C 
ATOM     15  C   UNL     1      -0.651  11.519 133.608  0.00  0.00    +0.000 A 
ATOM     16  C   UNL     1      -0.186  12.400 134.592  0.00  0.00    +0.000 A 
ATOM     17  C   UNL     1       0.834  13.305 134.318  0.00  0.00    +0.000 A 
ATOM     18  C   UNL     1       1.357  13.136 133.073  0.00  0.00    +0.000 A 
ATOM     19  C   UNL     1       1.016  11.765 132.423  0.00  0.00    +0.000 A 
ATOM     20  C   UNL     1       0.233  10.605 133.190  0.00  0.00    +0.000 A 
ENDBRANCH   7  10
ENDBRANCH   1   2
BRANCH   1  26
ATOM     21  C   UNL     1      -7.727   2.885 133.527  0.00  0.00    +0.000 A 
ATOM     22  C   UNL     1      -8.921   3.234 132.790  0.00  0.00    +0.000 A 
ATOM     23  C   UNL     1      -9.331   4.537 132.727  0.00  0.00    +0.000 A 
ATOM     24  C   UNL     1      -8.570   5.326 133.532  0.00  0.00    +0.000 A 
ATOM     25  C   UNL     1      -7.374   5.102 134.169  0.00  0.00    +0.000 A 
ATOM     26  C   UNL     1      -6.874   3.842 134.135  0.00  0.00    +0.000 A 
BRANCH  21  28
ATOM     27  C   UNL     1      -7.966   0.852 132.380  0.00  0.00    +0.000 C 
ATOM     28  O   UNL     1      -7.485   1.545 133.516  0.00  0.00    +0.000 OA
ENDBRANCH  21  28
BRANCH  23  29
ATOM     29  O   UNL     1     -10.376   4.991 131.980  0.00  0.00    +0.000 OA
BRANCH  29  30
ATOM     30  C   UNL     1     -10.598   6.407 131.647  0.00  0.00    +0.000 C 
ATOM     31  C   UNL     1     -12.059   6.872 131.489  0.00  0.00    +0.000 C 
ATOM     32  C   UNL     1     -12.641   6.571 130.132  0.00  0.00    +0.000 C 
ATOM     33  N   UNL     1     -11.681   6.968 129.021  0.00  0.00    +0.000 N 
ATOM     34  C   UNL     1     -12.108   7.541 127.837  0.00  0.00    +0.000 C 
ATOM     35  C   UNL     1     -13.568   7.879 127.673  0.00  0.00    +0.000 C 
ATOM     36  O   UNL     1     -11.323   7.830 126.932  0.00  0.00    +0.000 OA
ATOM     37  C   UNL     1     -10.177   6.669 129.134  0.00  0.00    +0.000 C 
ATOM     38  C   UNL     1      -9.682   6.964 130.536  0.00  0.00    +0.000 C 
ENDBRANCH  29  30
ENDBRANCH  23  29
ENDBRANCH   1  26
TORSDOF 6
ENDMDL
MODEL 7
REMARK VINA RESULT:      -9.2      4.433      6.894
REMARK  Name = CHEMBL279230
REMARK  8 active torsions:
REMARK  status: ('A' for Active; 'I' for Inactive)
REMARK    1  A    between atoms: C_1  and  O_2
REMARK    2  A    between atoms: O_2  and  C_3
REMARK    3  A    between atoms: C_5  and  O_6
REMARK    4  A    between atoms: O_6  and  C_7
REMARK    5  A    between atoms: C_11  and  C_12
REMARK    6  A    between atoms: C_18  and  C_19
REMARK    7  A    between atoms: C_19  and  C_20
REMARK    8  A    between atoms: C_25  and  N_26
REMARK                            x       y       z     vdW  Elec       q    Type
REMARK                         _______ _______ _______ _____ _____    ______ ____
ROOT
ATOM      1  C   UNL     1      -3.956   5.869 128.234  0.00  0.00    +0.000 C 
ENDROOT
BRANCH   1   2
ATOM      2  C   UNL     1      -3.969   4.736 127.211  0.00  0.00    +0.000 C 
ATOM      3  O   UNL     1      -2.866   4.326 126.819  0.00  0.00    +0.000 OA
ATOM      4  N   UNL     1      -5.178   4.189 126.681  0.00  0.00    +0.000 N 
ATOM      5  C   UNL     1      -4.979   2.942 125.953  0.00  0.00    +0.000 C 
ATOM      6  C   UNL     1      -6.046   2.599 124.895  0.00  0.00    +0.000 C 
ATOM      7  C   UNL     1      -7.667   2.309 125.547  0.00  0.00    +0.000 C 
ATOM      8  C   UNL     1      -7.725   3.941 126.136  0.00  0.00    +0.000 C 
ATOM      9  C   UNL     1      -6.569   4.385 127.156  0.00  0.00    +0.000 C 
BRANCH   7  10
ATOM     10  N   UNL     1      -8.533   0.685 125.557  0.00  0.00    +0.000 N 
ATOM     11  C   UNL     1      -8.960   0.996 124.284  0.00  0.00    +0.000 C 
ATOM     12  O   UNL     1      -9.770   1.971 124.003  0.00  0.00    +0.000 OA
ATOM     13  O   UNL     1      -8.284   0.433 123.299  0.00  0.00    +0.000 OA
ATOM     14  C   UNL     1      -9.054  -0.713 123.169  0.00  0.00    +0.000 C 
ATOM     15  C   UNL     1      -8.273  -1.497 124.133  0.00  0.00    +0.000 A 
ATOM     16  C   UNL     1      -7.295  -2.469 123.885  0.00  0.00    +0.000 A 
ATOM     17  C   UNL     1      -7.424  -3.758 124.389  0.00  0.00    +0.000 A 
ATOM     18  C   UNL     1      -8.508  -3.892 125.201  0.00  0.00    +0.000 A 
ATOM     19  C   UNL     1      -9.091  -2.542 125.708  0.00  0.00    +0.000 A 
ATOM     20  C   UNL     1      -8.408  -1.131 125.413  0.00  0.00    +0.000 A 
ENDBRANCH   7  10
ENDBRANCH   1   2
BRANCH   1  26
ATOM     21  C   UNL     1      -3.462   4.710 130.620  0.00  0.00    +0.000 A 
ATOM     22  C   UNL     1      -2.708   4.722 131.853  0.00  0.00    +0.000 A 
ATOM     23  C   UNL     1      -1.630   5.554 131.989  0.00  0.00    +0.000 A 
ATOM     24  C   UNL     1      -1.347   6.180 130.816  0.00  0.00    +0.000 A 
ATOM     25  C   UNL     1      -2.061   6.307 129.650  0.00  0.00    +0.000 A 
ATOM     26  C   UNL     1      -3.208   5.592 129.538  0.00  0.00    +0.000 A 
BRANCH  21  28
ATOM     27  C   UNL     1      -4.167   2.538 130.083  0.00  0.00    +0.000 C 
ATOM     28  O   UNL     1      -4.475   3.801 130.641  0.00  0.00    +0.000 OA
ENDBRANCH  21  28
BRANCH  23  29
ATOM     29  O   UNL     1      -0.915   5.724 133.137  0.00  0.00    +0.000 OA
BRANCH  29  30
ATOM     30  C   UNL     1      -1.215   6.744 134.153  0.00  0.00    +0.000 C 
ATOM     31  C   UNL     1      -2.508   7.563 133.969  0.00  0.00    +0.000 C 
ATOM     32  C   UNL     1      -2.355   8.716 133.010  0.00  0.00    +0.000 C 
ATOM     33  N   UNL     1      -1.088   9.506 133.297  0.00  0.00    +0.000 N 
ATOM     34  C   UNL     1      -1.035  10.886 133.207  0.00  0.00    +0.000 C 
ATOM     35  C   UNL     1      -2.301  11.650 132.911  0.00  0.00    +0.000 C 
ATOM     36  O   UNL     1       0.007  11.512 133.412  0.00  0.00    +0.000 OA
ATOM     37  C   UNL     1       0.232   8.789 133.623  0.00  0.00    +0.000 C 
ATOM     38  C   UNL     1      -0.015   7.625 134.561  0.00  0.00    +0.000 C 
ENDBRANCH  29  30
ENDBRANCH  23  29
ENDBRANCH   1  26
TORSDOF 6
ENDMDL
MODEL 8
REMARK VINA RESULT:      -9.2      3.344      9.428
REMARK  Name = CHEMBL279230
REMARK  8 active torsions:
REMARK  status: ('A' for Active; 'I' for Inactive)
REMARK    1  A    between atoms: C_1  and  O_2
REMARK    2  A    between atoms: O_2  and  C_3
REMARK    3  A    between atoms: C_5  and  O_6
REMARK    4  A    between atoms: O_6  and  C_7
REMARK    5  A    between atoms: C_11  and  C_12
REMARK    6  A    between atoms: C_18  and  C_19
REMARK    7  A    between atoms: C_19  and  C_20
REMARK    8  A    between atoms: C_25  and  N_26
REMARK                            x       y       z     vdW  Elec       q    Type
REMARK                         _______ _______ _______ _____ _____    ______ ____
ROOT
ATOM      1  C   UNL     1      -4.681   2.198 133.227  0.00  0.00    +0.000 C 
ENDROOT
BRANCH   1   2
ATOM      2  C   UNL     1      -5.923   2.820 133.860  0.00  0.00    +0.000 C 
ATOM      3  O   UNL     1      -5.922   2.934 135.095  0.00  0.00    +0.000 OA
ATOM      4  N   UNL     1      -7.063   3.219 133.094  0.00  0.00    +0.000 N 
ATOM      5  C   UNL     1      -8.003   4.043 133.842  0.00  0.00    +0.000 C 
ATOM      6  C   UNL     1      -9.460   4.030 133.342  0.00  0.00    +0.000 C 
ATOM      7  C   UNL     1      -9.692   4.707 131.721  0.00  0.00    +0.000 C 
ATOM      8  C   UNL     1      -8.682   3.462 131.054  0.00  0.00    +0.000 C 
ATOM      9  C   UNL     1      -7.185   3.360 131.623  0.00  0.00    +0.000 C 
BRANCH   7  10
ATOM     10  N   UNL     1     -10.584   6.271 131.341  0.00  0.00    +0.000 N 
ATOM     11  C   UNL     1      -9.385   6.738 130.844  0.00  0.00    +0.000 C 
ATOM     12  O   UNL     1      -8.328   6.951 131.567  0.00  0.00    +0.000 OA
ATOM     13  O   UNL     1      -9.254   6.696 129.531  0.00  0.00    +0.000 OA
ATOM     14  C   UNL     1      -9.749   7.961 129.249  0.00  0.00    +0.000 C 
ATOM     15  C   UNL     1     -11.141   7.521 129.109  0.00  0.00    +0.000 A 
ATOM     16  C   UNL     1     -11.872   7.285 127.937  0.00  0.00    +0.000 A 
ATOM     17  C   UNL     1     -13.062   7.960 127.688  0.00  0.00    +0.000 A 
ATOM     18  C   UNL     1     -13.444   8.742 128.734  0.00  0.00    +0.000 A 
ATOM     19  C   UNL     1     -12.735   8.397 130.075  0.00  0.00    +0.000 A 
ATOM     20  C   UNL     1     -11.745   7.157 130.245  0.00  0.00    +0.000 A 
ENDBRANCH   7  10
ENDBRANCH   1   2
BRANCH   1  26
ATOM     21  C   UNL     1      -5.873  -0.194 132.857  0.00  0.00    +0.000 A 
ATOM     22  C   UNL     1      -5.727  -1.598 132.548  0.00  0.00    +0.000 A 
ATOM     23  C   UNL     1      -4.530  -2.079 132.091  0.00  0.00    +0.000 A 
ATOM     24  C   UNL     1      -3.654  -1.065 131.862  0.00  0.00    +0.000 A 
ATOM     25  C   UNL     1      -3.672   0.260 132.222  0.00  0.00    +0.000 A 
ATOM     26  C   UNL     1      -4.802   0.736 132.801  0.00  0.00    +0.000 A 
BRANCH  21  28
ATOM     27  C   UNL     1      -8.162  -0.195 132.341  0.00  0.00    +0.000 C 
ATOM     28  O   UNL     1      -7.134   0.119 133.262  0.00  0.00    +0.000 OA
ENDBRANCH  21  28
BRANCH  23  29
ATOM     29  O   UNL     1      -4.251  -3.394 131.870  0.00  0.00    +0.000 OA
BRANCH  29  30
ATOM     30  C   UNL     1      -4.506  -4.090 130.600  0.00  0.00    +0.000 C 
ATOM     31  C   UNL     1      -3.996  -3.414 129.312  0.00  0.00    +0.000 C 
ATOM     32  C   UNL     1      -4.921  -2.346 128.789  0.00  0.00    +0.000 C 
ATOM     33  N   UNL     1      -6.364  -2.825 128.777  0.00  0.00    +0.000 N 
ATOM     34  C   UNL     1      -7.245  -2.509 127.757  0.00  0.00    +0.000 C 
ATOM     35  C   UNL     1      -6.736  -1.745 126.561  0.00  0.00    +0.000 C 
ATOM     36  O   UNL     1      -8.421  -2.878 127.773  0.00  0.00    +0.000 OA
ATOM     37  C   UNL     1      -6.941  -3.625 129.956  0.00  0.00    +0.000 C 
ATOM     38  C   UNL     1      -5.937  -4.650 130.442  0.00  0.00    +0.000 C 
ENDBRANCH  29  30
ENDBRANCH  23  29
ENDBRANCH   1  26
TORSDOF 6
ENDMDL
MODEL 9
REMARK VINA RESULT:      -9.2      2.979      3.830
REMARK  Name = CHEMBL279230
REMARK  8 active torsions:
REMARK  status: ('A' for Active; 'I' for Inactive)
REMARK    1  A    between atoms: C_1  and  O_2
REMARK    2  A    between atoms: O_2  and  C_3
REMARK    3  A    between atoms: C_5  and  O_6
REMARK    4  A    between atoms: O_6  and  C_7
REMARK    5  A    between atoms: C_11  and  C_12
REMARK    6  A    between atoms: C_18  and  C_19
REMARK    7  A    between atoms: C_19  and  C_20
REMARK    8  A    between atoms: C_25  and  N_26
REMARK                            x       y       z     vdW  Elec       q    Type
REMARK                         _______ _______ _______ _____ _____    ______ ____
ROOT
ATOM      1  C   UNL     1      -3.917   6.043 128.285  0.00  0.00    +0.000 C 
ENDROOT
BRANCH   1   2
ATOM      2  C   UNL     1      -3.875   4.829 127.362  0.00  0.00    +0.000 C 
ATOM      3  O   UNL     1      -2.755   4.360 127.108  0.00  0.00    +0.000 OA
ATOM      4  N   UNL     1      -5.049   4.269 126.768  0.00  0.00    +0.000 N 
ATOM      5  C   UNL     1      -4.827   2.961 126.167  0.00  0.00    +0.000 C 
ATOM      6  C   UNL     1      -5.804   2.557 125.046  0.00  0.00    +0.000 C 
ATOM      7  C   UNL     1      -7.486   2.364 125.566  0.00  0.00    +0.000 C 
ATOM      8  C   UNL     1      -7.543   4.041 126.012  0.00  0.00    +0.000 C 
ATOM      9  C   UNL     1      -6.470   4.541 127.095  0.00  0.00    +0.000 C 
BRANCH   7  10
ATOM     10  N   UNL     1      -8.402   0.769 125.630  0.00  0.00    +0.000 N 
ATOM     11  C   UNL     1      -8.889   1.093 124.381  0.00  0.00    +0.000 C 
ATOM     12  O   UNL     1      -9.681   2.093 124.142  0.00  0.00    +0.000 OA
ATOM     13  O   UNL     1      -8.287   0.507 123.362  0.00  0.00    +0.000 OA
ATOM     14  C   UNL     1      -9.100  -0.614 123.278  0.00  0.00    +0.000 C 
ATOM     15  C   UNL     1      -8.293  -1.422 124.200  0.00  0.00    +0.000 A 
ATOM     16  C   UNL     1      -7.362  -2.426 123.901  0.00  0.00    +0.000 A 
ATOM     17  C   UNL     1      -7.505  -3.709 124.415  0.00  0.00    +0.000 A 
ATOM     18  C   UNL     1      -8.547  -3.807 125.286  0.00  0.00    +0.000 A 
ATOM     19  C   UNL     1      -9.056  -2.438 125.821  0.00  0.00    +0.000 A 
ATOM     20  C   UNL     1      -8.345  -1.050 125.484  0.00  0.00    +0.000 A 
ENDBRANCH   7  10
ENDBRANCH   1   2
BRANCH   1  26
ATOM     21  C   UNL     1      -4.544   4.600 130.476  0.00  0.00    +0.000 A 
ATOM     22  C   UNL     1      -5.171   4.561 131.777  0.00  0.00    +0.000 A 
ATOM     23  C   UNL     1      -5.572   5.722 132.380  0.00  0.00    +0.000 A 
ATOM     24  C   UNL     1      -5.168   6.806 131.664  0.00  0.00    +0.000 A 
ATOM     25  C   UNL     1      -4.672   6.929 130.390  0.00  0.00    +0.000 A 
ATOM     26  C   UNL     1      -4.389   5.788 129.716  0.00  0.00    +0.000 A 
BRANCH  21  28
ATOM     27  C   UNL     1      -4.112   2.364 131.042  0.00  0.00    +0.000 C 
ATOM     28  O   UNL     1      -4.176   3.362 130.042  0.00  0.00    +0.000 OA
ENDBRANCH  21  28
BRANCH  23  29
ATOM     29  O   UNL     1      -6.264   5.795 133.551  0.00  0.00    +0.000 OA
BRANCH  29  30
ATOM     30  C   UNL     1      -7.720   5.619 133.662  0.00  0.00    +0.000 C 
ATOM     31  C   UNL     1      -8.226   4.280 134.235  0.00  0.00    +0.000 C 
ATOM     32  C   UNL     1      -8.277   3.173 133.215  0.00  0.00    +0.000 C 
ATOM     33  N   UNL     1      -8.926   3.644 131.923  0.00  0.00    +0.000 N 
ATOM     34  C   UNL     1      -9.779   2.845 131.183  0.00  0.00    +0.000 C 
ATOM     35  C   UNL     1     -10.163   1.490 131.722  0.00  0.00    +0.000 C 
ATOM     36  O   UNL     1     -10.274   3.227 130.121  0.00  0.00    +0.000 OA
ATOM     37  C   UNL     1      -8.592   5.023 131.329  0.00  0.00    +0.000 C 
ATOM     38  C   UNL     1      -8.525   6.069 132.423  0.00  0.00    +0.000 C 
ENDBRANCH  29  30
ENDBRANCH  23  29
ENDBRANCH   1  26
TORSDOF 6
ENDMDL
