MODEL 1
REMARK VINA RESULT:      -9.2      0.000      0.000
REMARK  Name = CHEMBL282577
REMARK  2 active torsions:
REMARK  status: ('A' for Active; 'I' for Inactive)
REMARK    1  A    between atoms: C_2  and  C_3
REMARK    2  A    between atoms: C_15  and  N_16
REMARK                            x       y       z     vdW  Elec       q    Type
REMARK                         _______ _______ _______ _____ _____    ______ ____
ROOT
ATOM      1  O   UNL     1      -7.730   1.288 124.050  0.00  0.00    +0.000 OA
ATOM      2  C   UNL     1      -7.323   2.435 123.903  0.00  0.00    +0.000 C 
ATOM      3  N   UNL     1      -6.547   3.117 124.825  0.00  0.00    +0.000 N 
ATOM      4  C   UNL     1      -6.996   4.406 125.345  0.00  0.00    +0.000 C 
ATOM      5  C   UNL     1      -5.794   5.310 125.522  0.00  0.00    +0.000 C 
ATOM      6  C   UNL     1      -4.727   4.641 126.418  0.00  0.00    +0.000 C 
ATOM      7  C   UNL     1      -4.375   3.236 125.900  0.00  0.00    +0.000 C 
ATOM      8  C   UNL     1      -5.611   2.379 125.662  0.00  0.00    +0.000 C 
ENDROOT
BRANCH   6   9
ATOM      9  N   UNL     1      -5.053   4.735 127.875  0.00  0.00    +0.000 N 
ATOM     10  C   UNL     1      -6.203   4.204 128.463  0.00  0.00    +0.000 C 
ATOM     11  O   UNL     1      -6.711   3.109 128.267  0.00  0.00    +0.000 OA
ATOM     12  O   UNL     1      -6.839   5.074 129.286  0.00  0.00    +0.000 OA
ATOM     13  C   UNL     1      -6.061   5.342 130.433  0.00  0.00    +0.000 C 
ATOM     14  C   UNL     1      -4.660   5.707 130.059  0.00  0.00    +0.000 A 
ATOM     15  C   UNL     1      -3.835   6.307 131.012  0.00  0.00    +0.000 A 
ATOM     16  C   UNL     1      -2.523   6.623 130.689  0.00  0.00    +0.000 A 
ATOM     17  C   UNL     1      -2.029   6.328 129.422  0.00  0.00    +0.000 A 
ATOM     18  C   UNL     1      -2.848   5.726 128.467  0.00  0.00    +0.000 A 
ATOM     19  C   UNL     1      -4.176   5.416 128.771  0.00  0.00    +0.000 A 
ENDBRANCH   6   9
BRANCH   2  20
ATOM     20  C   UNL     1      -7.472   3.111 122.583  0.00  0.00    +0.000 A 
ATOM     21  C   UNL     1      -8.694   3.067 121.914  0.00  0.00    +0.000 A 
ATOM     22  C   UNL     1      -8.815   3.613 120.628  0.00  0.00    +0.000 A 
ATOM     23  C   UNL     1      -7.684   4.162 119.993  0.00  0.00    +0.000 A 
ATOM     24  C   UNL     1      -7.455   4.724 118.708  0.00  0.00    +0.000 A 
ATOM     25  C   UNL     1      -6.122   5.052 118.624  0.00  0.00    +0.000 A 
ATOM     26  N   UNL     1      -5.539   4.745 119.825  0.00  0.00    +0.000 N 
ATOM     27  C   UNL     1      -6.468   4.185 120.677  0.00  0.00    +0.000 A 
ATOM     28  C   UNL     1      -6.332   3.678 121.978  0.00  0.00    +0.000 A 
ATOM     29  H   UNL     1      -4.563   4.885 120.048  0.00  0.00    +0.000 HD
ENDBRANCH   2  20
TORSDOF 2
ENDMDL
MODEL 2
REMARK VINA RESULT:      -9.0      6.880      8.667
REMARK  Name = CHEMBL282577
REMARK  2 active torsions:
REMARK  status: ('A' for Active; 'I' for Inactive)
REMARK    1  A    between atoms: C_2  and  C_3
REMARK    2  A    between atoms: C_15  and  N_16
REMARK                            x       y       z     vdW  Elec       q    Type
REMARK                         _______ _______ _______ _____ _____    ______ ____
ROOT
ATOM      1  O   UNL     1      -8.024   1.594 133.315  0.00  0.00    +0.000 OA
ATOM      2  C   UNL     1      -8.115   1.832 132.117  0.00  0.00    +0.000 C 
ATOM      3  N   UNL     1      -8.475   3.058 131.583  0.00  0.00    +0.000 N 
ATOM      4  C   UNL     1      -9.612   3.151 130.670  0.00  0.00    +0.000 C 
ATOM      5  C   UNL     1      -9.299   4.174 129.599  0.00  0.00    +0.000 C 
ATOM      6  C   UNL     1      -8.922   5.535 130.227  0.00  0.00    +0.000 C 
ATOM      7  C   UNL     1      -7.805   5.369 131.271  0.00  0.00    +0.000 C 
ATOM      8  C   UNL     1      -8.118   4.282 132.290  0.00  0.00    +0.000 C 
ENDROOT
BRANCH   6   9
ATOM      9  N   UNL     1     -10.117   6.318 130.671  0.00  0.00    +0.000 N 
ATOM     10  C   UNL     1     -10.607   6.338 131.979  0.00  0.00    +0.000 C 
ATOM     11  O   UNL     1      -9.971   6.433 133.019  0.00  0.00    +0.000 OA
ATOM     12  O   UNL     1     -11.947   6.149 132.055  0.00  0.00    +0.000 OA
ATOM     13  C   UNL     1     -12.643   7.245 131.502  0.00  0.00    +0.000 C 
ATOM     14  C   UNL     1     -12.111   7.590 130.147  0.00  0.00    +0.000 A 
ATOM     15  C   UNL     1     -12.859   8.423 129.313  0.00  0.00    +0.000 A 
ATOM     16  C   UNL     1     -12.365   8.776 128.065  0.00  0.00    +0.000 A 
ATOM     17  C   UNL     1     -11.119   8.311 127.655  0.00  0.00    +0.000 A 
ATOM     18  C   UNL     1     -10.366   7.481 128.485  0.00  0.00    +0.000 A 
ATOM     19  C   UNL     1     -10.857   7.103 129.737  0.00  0.00    +0.000 A 
ENDBRANCH   6   9
BRANCH   2  20
ATOM     20  C   UNL     1      -7.621   0.836 131.124  0.00  0.00    +0.000 A 
ATOM     21  C   UNL     1      -6.740   1.234 130.119  0.00  0.00    +0.000 A 
ATOM     22  C   UNL     1      -6.349   0.329 129.122  0.00  0.00    +0.000 A 
ATOM     23  C   UNL     1      -6.890  -0.971 129.109  0.00  0.00    +0.000 A 
ATOM     24  C   UNL     1      -6.757  -2.082 128.232  0.00  0.00    +0.000 A 
ATOM     25  C   UNL     1      -7.572  -3.087 128.699  0.00  0.00    +0.000 A 
ATOM     26  N   UNL     1      -8.167  -2.642 129.851  0.00  0.00    +0.000 N 
ATOM     27  C   UNL     1      -7.779  -1.345 130.117  0.00  0.00    +0.000 A 
ATOM     28  C   UNL     1      -8.156  -0.468 131.146  0.00  0.00    +0.000 A 
ATOM     29  H   UNL     1      -8.816  -3.177 130.412  0.00  0.00    +0.000 HD
ENDBRANCH   2  20
TORSDOF 2
ENDMDL
MODEL 3
REMARK VINA RESULT:      -8.9      4.735      6.224
REMARK  Name = CHEMBL282577
REMARK  2 active torsions:
REMARK  status: ('A' for Active; 'I' for Inactive)
REMARK    1  A    between atoms: C_2  and  C_3
REMARK    2  A    between atoms: C_15  and  N_16
REMARK                            x       y       z     vdW  Elec       q    Type
REMARK                         _______ _______ _______ _____ _____    ______ ____
ROOT
ATOM      1  O   UNL     1      -9.332   1.953 125.424  0.00  0.00    +0.000 OA
ATOM      2  C   UNL     1      -8.157   1.609 125.376  0.00  0.00    +0.000 C 
ATOM      3  N   UNL     1      -7.669   0.407 125.860  0.00  0.00    +0.000 N 
ATOM      4  C   UNL     1      -6.592   0.401 126.848  0.00  0.00    +0.000 C 
ATOM      5  C   UNL     1      -5.670  -0.765 126.561  0.00  0.00    +0.000 C 
ATOM      6  C   UNL     1      -6.455  -2.095 126.523  0.00  0.00    +0.000 C 
ATOM      7  C   UNL     1      -7.651  -2.001 125.562  0.00  0.00    +0.000 C 
ATOM      8  C   UNL     1      -8.517  -0.777 125.829  0.00  0.00    +0.000 C 
ENDROOT
BRANCH   6   9
ATOM      9  N   UNL     1      -6.757  -2.628 127.889  0.00  0.00    +0.000 N 
ATOM     10  C   UNL     1      -8.039  -2.931 128.352  0.00  0.00    +0.000 C 
ATOM     11  O   UNL     1      -8.933  -3.520 127.761  0.00  0.00    +0.000 OA
ATOM     12  O   UNL     1      -8.302  -2.423 129.582  0.00  0.00    +0.000 OA
ATOM     13  C   UNL     1      -7.514  -3.057 130.567  0.00  0.00    +0.000 C 
ATOM     14  C   UNL     1      -6.072  -3.081 130.168  0.00  0.00    +0.000 A 
ATOM     15  C   UNL     1      -5.104  -3.371 131.130  0.00  0.00    +0.000 A 
ATOM     16  C   UNL     1      -3.765  -3.427 130.768  0.00  0.00    +0.000 A 
ATOM     17  C   UNL     1      -3.394  -3.208 129.445  0.00  0.00    +0.000 A 
ATOM     18  C   UNL     1      -4.357  -2.920 128.480  0.00  0.00    +0.000 A 
ATOM     19  C   UNL     1      -5.708  -2.844 128.830  0.00  0.00    +0.000 A 
ENDBRANCH   6   9
BRANCH   2  20
ATOM     20  C   UNL     1      -7.184   2.405 124.575  0.00  0.00    +0.000 A 
ATOM     21  C   UNL     1      -6.520   3.482 125.160  0.00  0.00    +0.000 A 
ATOM     22  C   UNL     1      -5.680   4.298 124.388  0.00  0.00    +0.000 A 
ATOM     23  C   UNL     1      -5.549   4.056 123.007  0.00  0.00    +0.000 A 
ATOM     24  C   UNL     1      -4.849   4.711 121.957  0.00  0.00    +0.000 A 
ATOM     25  C   UNL     1      -5.132   4.048 120.786  0.00  0.00    +0.000 A 
ATOM     26  N   UNL     1      -5.949   2.991 121.090  0.00  0.00    +0.000 N 
ATOM     27  C   UNL     1      -6.232   2.980 122.440  0.00  0.00    +0.000 A 
ATOM     28  C   UNL     1      -7.048   2.129 123.199  0.00  0.00    +0.000 A 
ATOM     29  H   UNL     1      -6.312   2.328 120.419  0.00  0.00    +0.000 HD
ENDBRANCH   2  20
TORSDOF 2
ENDMDL
MODEL 4
REMARK VINA RESULT:      -8.9      3.487      5.767
REMARK  Name = CHEMBL282577
REMARK  2 active torsions:
REMARK  status: ('A' for Active; 'I' for Inactive)
REMARK    1  A    between atoms: C_2  and  C_3
REMARK    2  A    between atoms: C_15  and  N_16
REMARK                            x       y       z     vdW  Elec       q    Type
REMARK                         _______ _______ _______ _____ _____    ______ ____
ROOT
ATOM      1  O   UNL     1      -4.745   4.217 124.364  0.00  0.00    +0.000 OA
ATOM      2  C   UNL     1      -5.691   3.578 123.920  0.00  0.00    +0.000 C 
ATOM      3  N   UNL     1      -6.575   2.843 124.692  0.00  0.00    +0.000 N 
ATOM      4  C   UNL     1      -6.775   1.422 124.418  0.00  0.00    +0.000 C 
ATOM      5  C   UNL     1      -8.233   1.079 124.641  0.00  0.00    +0.000 C 
ATOM      6  C   UNL     1      -8.685   1.486 126.062  0.00  0.00    +0.000 C 
ATOM      7  C   UNL     1      -8.344   2.957 126.349  0.00  0.00    +0.000 C 
ATOM      8  C   UNL     1      -6.889   3.286 126.044  0.00  0.00    +0.000 C 
ENDROOT
BRANCH   6   9
ATOM      9  N   UNL     1      -8.261   0.503 127.108  0.00  0.00    +0.000 N 
ATOM     10  C   UNL     1      -7.692   0.852 128.334  0.00  0.00    +0.000 C 
ATOM     11  O   UNL     1      -8.037   1.741 129.098  0.00  0.00    +0.000 OA
ATOM     12  O   UNL     1      -6.578   0.138 128.635  0.00  0.00    +0.000 OA
ATOM     13  C   UNL     1      -6.898  -1.217 128.873  0.00  0.00    +0.000 C 
ATOM     14  C   UNL     1      -7.748  -1.769 127.773  0.00  0.00    +0.000 A 
ATOM     15  C   UNL     1      -7.902  -3.152 127.661  0.00  0.00    +0.000 A 
ATOM     16  C   UNL     1      -8.712  -3.678 126.664  0.00  0.00    +0.000 A 
ATOM     17  C   UNL     1      -9.379  -2.826 125.789  0.00  0.00    +0.000 A 
ATOM     18  C   UNL     1      -9.230  -1.444 125.898  0.00  0.00    +0.000 A 
ATOM     19  C   UNL     1      -8.406  -0.899 126.886  0.00  0.00    +0.000 A 
ENDBRANCH   6   9
BRANCH   2  20
ATOM     20  C   UNL     1      -6.083   3.731 122.489  0.00  0.00    +0.000 A 
ATOM     21  C   UNL     1      -5.142   4.160 121.554  0.00  0.00    +0.000 A 
ATOM     22  C   UNL     1      -5.526   4.404 120.227  0.00  0.00    +0.000 A 
ATOM     23  C   UNL     1      -6.876   4.261 119.854  0.00  0.00    +0.000 A 
ATOM     24  C   UNL     1      -7.589   4.482 118.644  0.00  0.00    +0.000 A 
ATOM     25  C   UNL     1      -8.918   4.221 118.885  0.00  0.00    +0.000 A 
ATOM     26  N   UNL     1      -9.034   3.813 120.189  0.00  0.00    +0.000 N 
ATOM     27  C   UNL     1      -7.803   3.842 120.809  0.00  0.00    +0.000 A 
ATOM     28  C   UNL     1      -7.435   3.558 122.132  0.00  0.00    +0.000 A 
ATOM     29  H   UNL     1      -9.901   3.551 120.638  0.00  0.00    +0.000 HD
ENDBRANCH   2  20
TORSDOF 2
ENDMDL
MODEL 5
REMARK VINA RESULT:      -8.8      7.299      8.727
REMARK  Name = CHEMBL282577
REMARK  2 active torsions:
REMARK  status: ('A' for Active; 'I' for Inactive)
REMARK    1  A    between atoms: C_2  and  C_3
REMARK    2  A    between atoms: C_15  and  N_16
REMARK                            x       y       z     vdW  Elec       q    Type
REMARK                         _______ _______ _______ _____ _____    ______ ____
ROOT
ATOM      1  O   UNL     1      -9.293   6.032 133.098  0.00  0.00    +0.000 OA
ATOM      2  C   UNL     1      -9.378   5.454 132.021  0.00  0.00    +0.000 C 
ATOM      3  N   UNL     1      -9.113   4.109 131.828  0.00  0.00    +0.000 N 
ATOM      4  C   UNL     1      -8.119   3.695 130.840  0.00  0.00    +0.000 C 
ATOM      5  C   UNL     1      -8.594   2.425 130.167  0.00  0.00    +0.000 C 
ATOM      6  C   UNL     1      -8.896   1.326 131.211  0.00  0.00    +0.000 C 
ATOM      7  C   UNL     1      -9.850   1.845 132.299  0.00  0.00    +0.000 C 
ATOM      8  C   UNL     1      -9.381   3.162 132.903  0.00  0.00    +0.000 C 
ENDROOT
BRANCH   6   9
ATOM      9  N   UNL     1      -7.659   0.641 131.703  0.00  0.00    +0.000 N 
ATOM     10  C   UNL     1      -6.833   1.134 132.715  0.00  0.00    +0.000 C 
ATOM     11  O   UNL     1      -7.165   1.627 133.783  0.00  0.00    +0.000 OA
ATOM     12  O   UNL     1      -5.516   1.109 132.395  0.00  0.00    +0.000 OA
ATOM     13  C   UNL     1      -5.045  -0.219 132.300  0.00  0.00    +0.000 C 
ATOM     14  C   UNL     1      -5.941  -1.045 131.432  0.00  0.00    +0.000 A 
ATOM     15  C   UNL     1      -5.485  -2.277 130.961  0.00  0.00    +0.000 A 
ATOM     16  C   UNL     1      -6.315  -3.068 130.180  0.00  0.00    +0.000 A 
ATOM     17  C   UNL     1      -7.604  -2.638 129.881  0.00  0.00    +0.000 A 
ATOM     18  C   UNL     1      -8.066  -1.409 130.351  0.00  0.00    +0.000 A 
ATOM     19  C   UNL     1      -7.237  -0.593 131.125  0.00  0.00    +0.000 A 
ENDBRANCH   6   9
BRANCH   2  20
ATOM     20  C   UNL     1      -9.995   6.147 130.854  0.00  0.00    +0.000 A 
ATOM     21  C   UNL     1      -9.332   7.214 130.249  0.00  0.00    +0.000 A 
ATOM     22  C   UNL     1      -9.950   7.936 129.218  0.00  0.00    +0.000 A 
ATOM     23  C   UNL     1     -11.263   7.610 128.827  0.00  0.00    +0.000 A 
ATOM     24  C   UNL     1     -12.174   8.164 127.888  0.00  0.00    +0.000 A 
ATOM     25  C   UNL     1     -13.350   7.455 127.973  0.00  0.00    +0.000 A 
ATOM     26  N   UNL     1     -13.175   6.465 128.905  0.00  0.00    +0.000 N 
ATOM     27  C   UNL     1     -11.912   6.546 129.454  0.00  0.00    +0.000 A 
ATOM     28  C   UNL     1     -11.301   5.787 130.463  0.00  0.00    +0.000 A 
ATOM     29  H   UNL     1     -13.877   5.788 129.169  0.00  0.00    +0.000 HD
ENDBRANCH   2  20
TORSDOF 2
ENDMDL
MODEL 6
REMARK VINA RESULT:      -8.7      6.165      7.652
REMARK  Name = CHEMBL282577
REMARK  2 active torsions:
REMARK  status: ('A' for Active; 'I' for Inactive)
REMARK    1  A    between atoms: C_2  and  C_3
REMARK    2  A    between atoms: C_15  and  N_16
REMARK                            x       y       z     vdW  Elec       q    Type
REMARK                         _______ _______ _______ _____ _____    ______ ____
ROOT
ATOM      1  O   UNL     1     -10.945   3.798 130.234  0.00  0.00    +0.000 OA
ATOM      2  C   UNL     1     -10.362   4.842 130.499  0.00  0.00    +0.000 C 
ATOM      3  N   UNL     1      -8.988   4.967 130.615  0.00  0.00    +0.000 N 
ATOM      4  C   UNL     1      -8.404   5.496 131.846  0.00  0.00    +0.000 C 
ATOM      5  C   UNL     1      -7.206   6.352 131.493  0.00  0.00    +0.000 C 
ATOM      6  C   UNL     1      -6.191   5.557 130.642  0.00  0.00    +0.000 C 
ATOM      7  C   UNL     1      -6.875   4.917 129.422  0.00  0.00    +0.000 C 
ATOM      8  C   UNL     1      -8.119   4.125 129.804  0.00  0.00    +0.000 C 
ENDROOT
BRANCH   6   9
ATOM      9  N   UNL     1      -5.337   4.643 131.463  0.00  0.00    +0.000 N 
ATOM     10  C   UNL     1      -5.791   3.469 132.067  0.00  0.00    +0.000 C 
ATOM     11  O   UNL     1      -6.513   2.607 131.588  0.00  0.00    +0.000 OA
ATOM     12  O   UNL     1      -5.421   3.353 133.366  0.00  0.00    +0.000 OA
ATOM     13  C   UNL     1      -4.025   3.179 133.479  0.00  0.00    +0.000 C 
ATOM     14  C   UNL     1      -3.289   4.210 132.683  0.00  0.00    +0.000 A 
ATOM     15  C   UNL     1      -1.927   4.404 132.914  0.00  0.00    +0.000 A 
ATOM     16  C   UNL     1      -1.224   5.336 132.162  0.00  0.00    +0.000 A 
ATOM     17  C   UNL     1      -1.876   6.062 131.171  0.00  0.00    +0.000 A 
ATOM     18  C   UNL     1      -3.237   5.870 130.934  0.00  0.00    +0.000 A 
ATOM     19  C   UNL     1      -3.962   4.948 131.693  0.00  0.00    +0.000 A 
ENDBRANCH   6   9
BRANCH   2  20
ATOM     20  C   UNL     1     -11.113   6.130 130.508  0.00  0.00    +0.000 A 
ATOM     21  C   UNL     1     -11.950   6.439 131.580  0.00  0.00    +0.000 A 
ATOM     22  C   UNL     1     -12.737   7.599 131.550  0.00  0.00    +0.000 A 
ATOM     23  C   UNL     1     -12.718   8.426 130.410  0.00  0.00    +0.000 A 
ATOM     24  C   UNL     1     -13.419   9.606 130.040  0.00  0.00    +0.000 A 
ATOM     25  C   UNL     1     -13.024   9.950 128.769  0.00  0.00    +0.000 A 
ATOM     26  N   UNL     1     -12.079   9.043 128.365  0.00  0.00    +0.000 N 
ATOM     27  C   UNL     1     -11.882   8.091 129.344  0.00  0.00    +0.000 A 
ATOM     28  C   UNL     1     -11.059   6.956 129.367  0.00  0.00    +0.000 A 
ATOM     29  H   UNL     1     -11.610   9.056 127.469  0.00  0.00    +0.000 HD
ENDBRANCH   2  20
TORSDOF 2
ENDMDL
MODEL 7
REMARK VINA RESULT:      -8.7      7.044      8.743
REMARK  Name = CHEMBL282577
REMARK  2 active torsions:
REMARK  status: ('A' for Active; 'I' for Inactive)
REMARK    1  A    between atoms: C_2  and  C_3
REMARK    2  A    between atoms: C_15  and  N_16
REMARK                            x       y       z     vdW  Elec       q    Type
REMARK                         _______ _______ _______ _____ _____    ______ ____
ROOT
ATOM      1  O   UNL     1      -8.872   6.157 133.591  0.00  0.00    +0.000 OA
ATOM      2  C   UNL     1      -9.209   5.679 132.515  0.00  0.00    +0.000 C 
ATOM      3  N   UNL     1      -8.920   4.389 132.103  0.00  0.00    +0.000 N 
ATOM      4  C   UNL     1      -8.209   4.166 130.847  0.00  0.00    +0.000 C 
ATOM      5  C   UNL     1      -8.766   2.926 130.180  0.00  0.00    +0.000 C 
ATOM      6  C   UNL     1      -8.700   1.710 131.130  0.00  0.00    +0.000 C 
ATOM      7  C   UNL     1      -9.354   2.032 132.485  0.00  0.00    +0.000 C 
ATOM      8  C   UNL     1      -8.824   3.324 133.093  0.00  0.00    +0.000 C 
ENDROOT
BRANCH   6   9
ATOM      9  N   UNL     1      -7.335   1.100 131.196  0.00  0.00    +0.000 N 
ATOM     10  C   UNL     1      -6.207   1.743 131.708  0.00  0.00    +0.000 C 
ATOM     11  O   UNL     1      -6.120   2.411 132.728  0.00  0.00    +0.000 OA
ATOM     12  O   UNL     1      -5.120   1.648 130.902  0.00  0.00    +0.000 OA
ATOM     13  C   UNL     1      -4.654   0.317 130.839  0.00  0.00    +0.000 C 
ATOM     14  C   UNL     1      -5.772  -0.630 130.537  0.00  0.00    +0.000 A 
ATOM     15  C   UNL     1      -5.471  -1.929 130.125  0.00  0.00    +0.000 A 
ATOM     16  C   UNL     1      -6.497  -2.828 129.870  0.00  0.00    +0.000 A 
ATOM     17  C   UNL     1      -7.822  -2.436 130.040  0.00  0.00    +0.000 A 
ATOM     18  C   UNL     1      -8.127  -1.141 130.455  0.00  0.00    +0.000 A 
ATOM     19  C   UNL     1      -7.107  -0.219 130.700  0.00  0.00    +0.000 A 
ENDBRANCH   6   9
BRANCH   2  20
ATOM     20  C   UNL     1     -10.165   6.418 131.641  0.00  0.00    +0.000 A 
ATOM     21  C   UNL     1     -11.529   6.394 131.928  0.00  0.00    +0.000 A 
ATOM     22  C   UNL     1     -12.444   7.002 131.057  0.00  0.00    +0.000 A 
ATOM     23  C   UNL     1     -11.986   7.593 129.864  0.00  0.00    +0.000 A 
ATOM     24  C   UNL     1     -12.635   8.220 128.766  0.00  0.00    +0.000 A 
ATOM     25  C   UNL     1     -11.670   8.566 127.849  0.00  0.00    +0.000 A 
ATOM     26  N   UNL     1     -10.453   8.206 128.365  0.00  0.00    +0.000 N 
ATOM     27  C   UNL     1     -10.618   7.595 129.591  0.00  0.00    +0.000 A 
ATOM     28  C   UNL     1      -9.680   7.026 130.466  0.00  0.00    +0.000 A 
ATOM     29  H   UNL     1      -9.564   8.346 127.905  0.00  0.00    +0.000 HD
ENDBRANCH   2  20
TORSDOF 2
ENDMDL
MODEL 8
REMARK VINA RESULT:      -8.3      3.304      4.756
REMARK  Name = CHEMBL282577
REMARK  2 active torsions:
REMARK  status: ('A' for Active; 'I' for Inactive)
REMARK    1  A    between atoms: C_2  and  C_3
REMARK    2  A    between atoms: C_15  and  N_16
REMARK                            x       y       z     vdW  Elec       q    Type
REMARK                         _______ _______ _______ _____ _____    ______ ____
ROOT
ATOM      1  O   UNL     1      -8.655   3.450 125.495  0.00  0.00    +0.000 OA
ATOM      2  C   UNL     1      -7.740   2.686 125.778  0.00  0.00    +0.000 C 
ATOM      3  N   UNL     1      -6.773   2.940 126.737  0.00  0.00    +0.000 N 
ATOM      4  C   UNL     1      -5.358   2.904 126.373  0.00  0.00    +0.000 C 
ATOM      5  C   UNL     1      -4.571   2.311 127.522  0.00  0.00    +0.000 C 
ATOM      6  C   UNL     1      -4.834   3.089 128.832  0.00  0.00    +0.000 C 
ATOM      7  C   UNL     1      -6.342   3.207 129.110  0.00  0.00    +0.000 C 
ATOM      8  C   UNL     1      -7.114   3.736 127.908  0.00  0.00    +0.000 C 
ENDROOT
BRANCH   6   9
ATOM      9  N   UNL     1      -4.055   4.365 128.913  0.00  0.00    +0.000 N 
ATOM     10  C   UNL     1      -4.018   5.332 127.907  0.00  0.00    +0.000 C 
ATOM     11  O   UNL     1      -4.950   5.769 127.248  0.00  0.00    +0.000 OA
ATOM     12  O   UNL     1      -2.763   5.753 127.610  0.00  0.00    +0.000 OA
ATOM     13  C   UNL     1      -2.206   6.476 128.687  0.00  0.00    +0.000 C 
ATOM     14  C   UNL     1      -2.353   5.724 129.972  0.00  0.00    +0.000 A 
ATOM     15  C   UNL     1      -1.599   6.115 131.080  0.00  0.00    +0.000 A 
ATOM     16  C   UNL     1      -1.746   5.447 132.287  0.00  0.00    +0.000 A 
ATOM     17  C   UNL     1      -2.656   4.400 132.394  0.00  0.00    +0.000 A 
ATOM     18  C   UNL     1      -3.415   4.007 131.291  0.00  0.00    +0.000 A 
ATOM     19  C   UNL     1      -3.266   4.659 130.065  0.00  0.00    +0.000 A 
ENDBRANCH   6   9
BRANCH   2  20
ATOM     20  C   UNL     1      -7.737   1.298 125.234  0.00  0.00    +0.000 A 
ATOM     21  C   UNL     1      -7.160   1.041 123.991  0.00  0.00    +0.000 A 
ATOM     22  C   UNL     1      -7.241  -0.239 123.426  0.00  0.00    +0.000 A 
ATOM     23  C   UNL     1      -7.952  -1.254 124.096  0.00  0.00    +0.000 A 
ATOM     24  C   UNL     1      -8.269  -2.603 123.780  0.00  0.00    +0.000 A 
ATOM     25  C   UNL     1      -9.043  -3.103 124.802  0.00  0.00    +0.000 A 
ATOM     26  N   UNL     1      -9.177  -2.119 125.746  0.00  0.00    +0.000 N 
ATOM     27  C   UNL     1      -8.532  -0.972 125.333  0.00  0.00    +0.000 A 
ATOM     28  C   UNL     1      -8.432   0.292 125.934  0.00  0.00    +0.000 A 
ATOM     29  H   UNL     1      -9.694  -2.211 126.609  0.00  0.00    +0.000 HD
ENDBRANCH   2  20
TORSDOF 2
ENDMDL
MODEL 9
REMARK VINA RESULT:      -8.2      3.273      8.262
REMARK  Name = CHEMBL282577
REMARK  2 active torsions:
REMARK  status: ('A' for Active; 'I' for Inactive)
REMARK    1  A    between atoms: C_2  and  C_3
REMARK    2  A    between atoms: C_15  and  N_16
REMARK                            x       y       z     vdW  Elec       q    Type
REMARK                         _______ _______ _______ _____ _____    ______ ____
ROOT
ATOM      1  O   UNL     1      -8.561   4.030 128.333  0.00  0.00    +0.000 OA
ATOM      2  C   UNL     1      -7.493   3.516 128.025  0.00  0.00    +0.000 C 
ATOM      3  N   UNL     1      -7.333   2.580 127.017  0.00  0.00    +0.000 N 
ATOM      4  C   UNL     1      -6.730   1.283 127.315  0.00  0.00    +0.000 C 
ATOM      5  C   UNL     1      -5.868   0.861 126.144  0.00  0.00    +0.000 C 
ATOM      6  C   UNL     1      -6.683   0.856 124.831  0.00  0.00    +0.000 C 
ATOM      7  C   UNL     1      -7.399   2.200 124.621  0.00  0.00    +0.000 C 
ATOM      8  C   UNL     1      -8.197   2.631 125.845  0.00  0.00    +0.000 C 
ENDROOT
BRANCH   6   9
ATOM      9  N   UNL     1      -7.536  -0.365 124.685  0.00  0.00    +0.000 N 
ATOM     10  C   UNL     1      -8.932  -0.358 124.691  0.00  0.00    +0.000 C 
ATOM     11  O   UNL     1      -9.684   0.417 124.118  0.00  0.00    +0.000 OA
ATOM     12  O   UNL     1      -9.473  -1.298 125.506  0.00  0.00    +0.000 OA
ATOM     13  C   UNL     1      -9.222  -2.597 125.013  0.00  0.00    +0.000 C 
ATOM     14  C   UNL     1      -7.774  -2.776 124.684  0.00  0.00    +0.000 A 
ATOM     15  C   UNL     1      -7.275  -4.065 124.489  0.00  0.00    +0.000 A 
ATOM     16  C   UNL     1      -5.940  -4.245 124.153  0.00  0.00    +0.000 A 
ATOM     17  C   UNL     1      -5.108  -3.141 123.998  0.00  0.00    +0.000 A 
ATOM     18  C   UNL     1      -5.602  -1.851 124.189  0.00  0.00    +0.000 A 
ATOM     19  C   UNL     1      -6.939  -1.653 124.544  0.00  0.00    +0.000 A 
ENDBRANCH   6   9
BRANCH   2  20
ATOM     20  C   UNL     1      -6.222   4.044 128.600  0.00  0.00    +0.000 A 
ATOM     21  C   UNL     1      -6.052   4.088 129.983  0.00  0.00    +0.000 A 
ATOM     22  C   UNL     1      -4.904   4.676 130.534  0.00  0.00    +0.000 A 
ATOM     23  C   UNL     1      -3.946   5.266 129.687  0.00  0.00    +0.000 A 
ATOM     24  C   UNL     1      -2.738   5.978 129.917  0.00  0.00    +0.000 A 
ATOM     25  C   UNL     1      -2.240   6.368 128.695  0.00  0.00    +0.000 A 
ATOM     26  N   UNL     1      -3.083   5.886 127.727  0.00  0.00    +0.000 N 
ATOM     27  C   UNL     1      -4.143   5.221 128.306  0.00  0.00    +0.000 A 
ATOM     28  C   UNL     1      -5.265   4.606 127.731  0.00  0.00    +0.000 A 
ATOM     29  H   UNL     1      -2.959   6.020 126.733  0.00  0.00    +0.000 HD
ENDBRANCH   2  20
TORSDOF 2
ENDMDL
