MODEL 1
REMARK VINA RESULT:     -11.4      0.000      0.000
REMARK  Name = CHEMBL2113206
REMARK  7 active torsions:
REMARK  status: ('A' for Active; 'I' for Inactive)
REMARK    1  A    between atoms: C_1  and  C_2
REMARK    2  A    between atoms: C_5  and  N_6
REMARK    3  A    between atoms: N_6  and  C_7
REMARK    4  A    between atoms: N_6  and  S_22
REMARK    5  A    between atoms: C_7  and  C_8
REMARK    6  A    between atoms: N_10  and  N_11
REMARK    7  A    between atoms: S_22  and  C_25
REMARK                            x       y       z     vdW  Elec       q    Type
REMARK                         _______ _______ _______ _____ _____    ______ ____
ROOT
ATOM      1  N   UNL     1      -7.775   2.581 124.683  0.00  0.00    +0.000 N 
ENDROOT
BRANCH   1   6
ATOM      2  C   UNL     1      -7.345   4.272 119.234  0.00  0.00    +0.000 C 
ATOM      3  C   UNL     1      -7.347   3.879 120.667  0.00  0.00    +0.000 A 
ATOM      4  C   UNL     1      -8.561   3.547 121.203  0.00  0.00    +0.000 A 
ATOM      5  C   UNL     1      -8.551   2.944 122.428  0.00  0.00    +0.000 A 
ATOM      6  C   UNL     1      -7.481   2.973 123.319  0.00  0.00    +0.000 A 
ATOM      7  C   UNL     1      -6.253   3.320 122.790  0.00  0.00    +0.000 A 
ATOM      8  C   UNL     1      -6.183   3.721 121.441  0.00  0.00    +0.000 A 
ENDBRANCH   1   6
BRANCH   1   9
ATOM      9  S   UNL     1      -8.047   0.802 125.019  0.00  0.00    +0.000 S 
ATOM     10  O   UNL     1      -9.473   0.599 124.819  0.00  0.00    +0.000 OA
ATOM     11  O   UNL     1      -7.117   0.063 124.179  0.00  0.00    +0.000 OA
BRANCH   9  12
ATOM     12  C   UNL     1      -7.754   0.072 126.761  0.00  0.00    +0.000 A 
ATOM     13  C   UNL     1      -7.212   0.892 127.744  0.00  0.00    +0.000 A 
ATOM     14  C   UNL     1      -6.977   0.340 129.029  0.00  0.00    +0.000 A 
ATOM     15  C   UNL     1      -7.280  -1.004 129.355  0.00  0.00    +0.000 A 
ATOM     16  C   UNL     1      -7.859  -1.844 128.421  0.00  0.00    +0.000 A 
ATOM     17  C   UNL     1      -8.273  -3.214 128.630  0.00  0.00    +0.000 A 
ATOM     18  C   UNL     1      -8.883  -3.969 127.633  0.00  0.00    +0.000 A 
ATOM     19  C   UNL     1      -9.109  -3.337 126.461  0.00  0.00    +0.000 A 
ATOM     20  C   UNL     1      -8.681  -2.043 126.337  0.00  0.00    +0.000 A 
ATOM     21  C   UNL     1      -8.054  -1.244 127.189  0.00  0.00    +0.000 A 
ENDBRANCH   9  12
ENDBRANCH   1   9
BRANCH   1  22
ATOM     22  C   UNL     1      -7.569   3.707 125.703  0.00  0.00    +0.000 C 
BRANCH  22  23
ATOM     23  C   UNL     1      -8.302   4.779 126.486  0.00  0.00    +0.000 C 
ATOM     24  O   UNL     1      -8.883   5.705 125.909  0.00  0.00    +0.000 OA
ATOM     25  N   UNL     1      -8.279   4.774 127.895  0.00  0.00    +0.000 N 
ATOM     26  H   UNL     1      -7.481   4.608 128.492  0.00  0.00    +0.000 HD
BRANCH  25  27
ATOM     27  N   UNL     1      -9.206   5.584 128.402  0.00  0.00    +0.000 NA
ATOM     28  C   UNL     1      -9.867   5.487 129.494  0.00  0.00    +0.000 C 
ATOM     29  C   UNL     1      -9.992   4.510 130.670  0.00  0.00    +0.000 C 
ATOM     30  O   UNL     1      -9.380   3.489 130.829  0.00  0.00    +0.000 OA
ATOM     31  N   UNL     1     -10.984   5.070 131.480  0.00  0.00    +0.000 N 
ATOM     32  C   UNL     1     -11.462   6.257 130.930  0.00  0.00    +0.000 A 
ATOM     33  C   UNL     1     -12.463   7.083 131.376  0.00  0.00    +0.000 A 
ATOM     34  C   UNL     1     -12.761   8.218 130.601  0.00  0.00    +0.000 A 
ATOM     35  C   UNL     1     -12.055   8.515 129.416  0.00  0.00    +0.000 A 
ATOM     36  C   UNL     1     -11.047   7.672 128.978  0.00  0.00    +0.000 A 
ATOM     37  C   UNL     1     -10.800   6.560 129.759  0.00  0.00    +0.000 A 
ATOM     38  H   UNL     1     -11.325   4.650 132.332  0.00  0.00    +0.000 HD
ENDBRANCH  25  27
ENDBRANCH  22  23
ENDBRANCH   1  22
TORSDOF 6
ENDMDL
MODEL 2
REMARK VINA RESULT:     -11.3      1.505      2.294
REMARK  Name = CHEMBL2113206
REMARK  7 active torsions:
REMARK  status: ('A' for Active; 'I' for Inactive)
REMARK    1  A    between atoms: C_1  and  C_2
REMARK    2  A    between atoms: C_5  and  N_6
REMARK    3  A    between atoms: N_6  and  C_7
REMARK    4  A    between atoms: N_6  and  S_22
REMARK    5  A    between atoms: C_7  and  C_8
REMARK    6  A    between atoms: N_10  and  N_11
REMARK    7  A    between atoms: S_22  and  C_25
REMARK                            x       y       z     vdW  Elec       q    Type
REMARK                         _______ _______ _______ _____ _____    ______ ____
ROOT
ATOM      1  N   UNL     1      -6.937   1.854 126.129  0.00  0.00    +0.000 N 
ENDROOT
BRANCH   1   6
ATOM      2  C   UNL     1      -8.730   3.472 120.943  0.00  0.00    +0.000 C 
ATOM      3  C   UNL     1      -8.176   3.133 122.279  0.00  0.00    +0.000 A 
ATOM      4  C   UNL     1      -8.993   2.417 123.110  0.00  0.00    +0.000 A 
ATOM      5  C   UNL     1      -8.420   1.881 124.228  0.00  0.00    +0.000 A 
ATOM      6  C   UNL     1      -7.209   2.293 124.776  0.00  0.00    +0.000 A 
ATOM      7  C   UNL     1      -6.382   3.029 123.948  0.00  0.00    +0.000 A 
ATOM      8  C   UNL     1      -6.852   3.400 122.673  0.00  0.00    +0.000 A 
ENDBRANCH   1   6
BRANCH   1   9
ATOM      9  S   UNL     1      -6.208   0.190 126.356  0.00  0.00    +0.000 S 
ATOM     10  O   UNL     1      -5.511  -0.084 125.108  0.00  0.00    +0.000 OA
ATOM     11  O   UNL     1      -5.434   0.228 127.587  0.00  0.00    +0.000 OA
BRANCH   9  12
ATOM     12  C   UNL     1      -7.316  -1.352 126.570  0.00  0.00    +0.000 A 
ATOM     13  C   UNL     1      -7.482  -1.881 127.844  0.00  0.00    +0.000 A 
ATOM     14  C   UNL     1      -8.289  -3.038 127.996  0.00  0.00    +0.000 A 
ATOM     15  C   UNL     1      -8.938  -3.669 126.907  0.00  0.00    +0.000 A 
ATOM     16  C   UNL     1      -8.836  -3.153 125.629  0.00  0.00    +0.000 A 
ATOM     17  C   UNL     1      -9.487  -3.656 124.440  0.00  0.00    +0.000 A 
ATOM     18  C   UNL     1      -9.349  -3.042 123.198  0.00  0.00    +0.000 A 
ATOM     19  C   UNL     1      -8.603  -1.918 123.168  0.00  0.00    +0.000 A 
ATOM     20  C   UNL     1      -8.011  -1.510 124.333  0.00  0.00    +0.000 A 
ATOM     21  C   UNL     1      -8.030  -2.030 125.552  0.00  0.00    +0.000 A 
ENDBRANCH   9  12
ENDBRANCH   1   9
BRANCH   1  22
ATOM     22  C   UNL     1      -7.076   2.966 127.176  0.00  0.00    +0.000 C 
BRANCH  22  23
ATOM     23  C   UNL     1      -7.861   4.220 127.511  0.00  0.00    +0.000 C 
ATOM     24  O   UNL     1      -8.266   4.976 126.620  0.00  0.00    +0.000 OA
ATOM     25  N   UNL     1      -8.088   4.581 128.854  0.00  0.00    +0.000 N 
ATOM     26  H   UNL     1      -7.421   4.560 129.612  0.00  0.00    +0.000 HD
BRANCH  25  27
ATOM     27  N   UNL     1      -9.032   5.514 128.957  0.00  0.00    +0.000 NA
ATOM     28  C   UNL     1      -9.926   5.676 129.859  0.00  0.00    +0.000 C 
ATOM     29  C   UNL     1     -10.392   4.978 131.142  0.00  0.00    +0.000 C 
ATOM     30  O   UNL     1      -9.920   3.993 131.641  0.00  0.00    +0.000 OA
ATOM     31  N   UNL     1     -11.488   5.733 131.567  0.00  0.00    +0.000 N 
ATOM     32  C   UNL     1     -11.728   6.793 130.696  0.00  0.00    +0.000 A 
ATOM     33  C   UNL     1     -12.730   7.731 130.720  0.00  0.00    +0.000 A 
ATOM     34  C   UNL     1     -12.750   8.685 129.687  0.00  0.00    +0.000 A 
ATOM     35  C   UNL     1     -11.775   8.696 128.666  0.00  0.00    +0.000 A 
ATOM     36  C   UNL     1     -10.770   7.743 128.655  0.00  0.00    +0.000 A 
ATOM     37  C   UNL     1     -10.799   6.815 129.677  0.00  0.00    +0.000 A 
ATOM     38  H   UNL     1     -12.045   5.518 132.382  0.00  0.00    +0.000 HD
ENDBRANCH  25  27
ENDBRANCH  22  23
ENDBRANCH   1  22
TORSDOF 6
ENDMDL
MODEL 3
REMARK VINA RESULT:     -11.2      3.334      9.041
REMARK  Name = CHEMBL2113206
REMARK  7 active torsions:
REMARK  status: ('A' for Active; 'I' for Inactive)
REMARK    1  A    between atoms: C_1  and  C_2
REMARK    2  A    between atoms: C_5  and  N_6
REMARK    3  A    between atoms: N_6  and  C_7
REMARK    4  A    between atoms: N_6  and  S_22
REMARK    5  A    between atoms: C_7  and  C_8
REMARK    6  A    between atoms: N_10  and  N_11
REMARK    7  A    between atoms: S_22  and  C_25
REMARK                            x       y       z     vdW  Elec       q    Type
REMARK                         _______ _______ _______ _____ _____    ______ ____
ROOT
ATOM      1  N   UNL     1      -8.468   4.319 129.893  0.00  0.00    +0.000 N 
ENDROOT
BRANCH   1   6
ATOM      2  C   UNL     1      -3.748   7.332 131.070  0.00  0.00    +0.000 C 
ATOM      3  C   UNL     1      -5.036   6.652 130.774  0.00  0.00    +0.000 A 
ATOM      4  C   UNL     1      -4.949   5.401 130.228  0.00  0.00    +0.000 A 
ATOM      5  C   UNL     1      -6.099   4.665 130.186  0.00  0.00    +0.000 A 
ATOM      6  C   UNL     1      -7.383   5.190 130.300  0.00  0.00    +0.000 A 
ATOM      7  C   UNL     1      -7.480   6.459 130.839  0.00  0.00    +0.000 A 
ATOM      8  C   UNL     1      -6.297   7.167 131.127  0.00  0.00    +0.000 A 
ENDBRANCH   1   6
BRANCH   1   9
ATOM      9  S   UNL     1     -10.056   4.458 130.791  0.00  0.00    +0.000 S 
ATOM     10  O   UNL     1     -10.894   3.410 130.231  0.00  0.00    +0.000 OA
ATOM     11  O   UNL     1      -9.748   4.414 132.212  0.00  0.00    +0.000 OA
BRANCH   9  12
ATOM     12  C   UNL     1     -11.153   6.014 130.620  0.00  0.00    +0.000 A 
ATOM     13  C   UNL     1     -11.902   6.425 131.717  0.00  0.00    +0.000 A 
ATOM     14  C   UNL     1     -12.731   7.568 131.578  0.00  0.00    +0.000 A 
ATOM     15  C   UNL     1     -12.820   8.311 130.377  0.00  0.00    +0.000 A 
ATOM     16  C   UNL     1     -12.061   7.964 129.274  0.00  0.00    +0.000 A 
ATOM     17  C   UNL     1     -12.007   8.662 128.009  0.00  0.00    +0.000 A 
ATOM     18  C   UNL     1     -11.181   8.252 126.966  0.00  0.00    +0.000 A 
ATOM     19  C   UNL     1     -10.392   7.185 127.214  0.00  0.00    +0.000 A 
ATOM     20  C   UNL     1     -10.507   6.573 128.433  0.00  0.00    +0.000 A 
ATOM     21  C   UNL     1     -11.282   6.838 129.476  0.00  0.00    +0.000 A 
ENDBRANCH   9  12
ENDBRANCH   1   9
BRANCH   1  22
ATOM     22  C   UNL     1      -8.194   3.569 128.584  0.00  0.00    +0.000 C 
BRANCH  22  23
ATOM     23  C   UNL     1      -7.875   3.775 127.115  0.00  0.00    +0.000 C 
ATOM     24  O   UNL     1      -8.065   4.868 126.569  0.00  0.00    +0.000 OA
ATOM     25  N   UNL     1      -7.415   2.701 126.328  0.00  0.00    +0.000 N 
ATOM     26  H   UNL     1      -7.769   1.755 126.320  0.00  0.00    +0.000 HD
BRANCH  25  27
ATOM     27  N   UNL     1      -6.904   3.124 125.174  0.00  0.00    +0.000 NA
ATOM     28  C   UNL     1      -7.409   3.099 123.998  0.00  0.00    +0.000 C 
ATOM     29  C   UNL     1      -8.693   2.608 123.318  0.00  0.00    +0.000 C 
ATOM     30  O   UNL     1      -9.635   2.083 123.847  0.00  0.00    +0.000 OA
ATOM     31  N   UNL     1      -8.497   2.892 121.964  0.00  0.00    +0.000 N 
ATOM     32  C   UNL     1      -7.256   3.491 121.757  0.00  0.00    +0.000 A 
ATOM     33  C   UNL     1      -6.659   3.874 120.583  0.00  0.00    +0.000 A 
ATOM     34  C   UNL     1      -5.373   4.437 120.664  0.00  0.00    +0.000 A 
ATOM     35  C   UNL     1      -4.717   4.619 121.900  0.00  0.00    +0.000 A 
ATOM     36  C   UNL     1      -5.332   4.227 123.077  0.00  0.00    +0.000 A 
ATOM     37  C   UNL     1      -6.586   3.662 122.951  0.00  0.00    +0.000 A 
ATOM     38  H   UNL     1      -9.157   2.664 121.235  0.00  0.00    +0.000 HD
ENDBRANCH  25  27
ENDBRANCH  22  23
ENDBRANCH   1  22
TORSDOF 6
ENDMDL
MODEL 4
REMARK VINA RESULT:     -11.2      1.757      2.058
REMARK  Name = CHEMBL2113206
REMARK  7 active torsions:
REMARK  status: ('A' for Active; 'I' for Inactive)
REMARK    1  A    between atoms: C_1  and  C_2
REMARK    2  A    between atoms: C_5  and  N_6
REMARK    3  A    between atoms: N_6  and  C_7
REMARK    4  A    between atoms: N_6  and  S_22
REMARK    5  A    between atoms: C_7  and  C_8
REMARK    6  A    between atoms: N_10  and  N_11
REMARK    7  A    between atoms: S_22  and  C_25
REMARK                            x       y       z     vdW  Elec       q    Type
REMARK                         _______ _______ _______ _____ _____    ______ ____
ROOT
ATOM      1  N   UNL     1      -8.077   2.645 124.282  0.00  0.00    +0.000 N 
ENDROOT
BRANCH   1   6
ATOM      2  C   UNL     1      -7.132   4.420 118.926  0.00  0.00    +0.000 C 
ATOM      3  C   UNL     1      -7.264   3.992 120.342  0.00  0.00    +0.000 A 
ATOM      4  C   UNL     1      -8.538   3.787 120.797  0.00  0.00    +0.000 A 
ATOM      5  C   UNL     1      -8.670   3.155 122.001  0.00  0.00    +0.000 A 
ATOM      6  C   UNL     1      -7.659   3.037 122.951  0.00  0.00    +0.000 A 
ATOM      7  C   UNL     1      -6.370   3.255 122.504  0.00  0.00    +0.000 A 
ATOM      8  C   UNL     1      -6.174   3.680 121.176  0.00  0.00    +0.000 A 
ENDBRANCH   1   6
BRANCH   1   9
ATOM      9  S   UNL     1      -8.606   0.911 124.534  0.00  0.00    +0.000 S 
ATOM     10  O   UNL     1      -9.748   0.997 125.431  0.00  0.00    +0.000 OA
ATOM     11  O   UNL     1      -8.802   0.330 123.215  0.00  0.00    +0.000 OA
BRANCH   9  12
ATOM     12  C   UNL     1      -7.469  -0.348 125.414  0.00  0.00    +0.000 A 
ATOM     13  C   UNL     1      -7.474  -0.393 126.803  0.00  0.00    +0.000 A 
ATOM     14  C   UNL     1      -6.613  -1.315 127.452  0.00  0.00    +0.000 A 
ATOM     15  C   UNL     1      -5.758  -2.195 126.746  0.00  0.00    +0.000 A 
ATOM     16  C   UNL     1      -5.750  -2.215 125.364  0.00  0.00    +0.000 A 
ATOM     17  C   UNL     1      -4.977  -3.096 124.517  0.00  0.00    +0.000 A 
ATOM     18  C   UNL     1      -5.066  -3.062 123.128  0.00  0.00    +0.000 A 
ATOM     19  C   UNL     1      -5.952  -2.186 122.608  0.00  0.00    +0.000 A 
ATOM     20  C   UNL     1      -6.641  -1.380 123.474  0.00  0.00    +0.000 A 
ATOM     21  C   UNL     1      -6.607  -1.288 124.796  0.00  0.00    +0.000 A 
ENDBRANCH   9  12
ENDBRANCH   1   9
BRANCH   1  22
ATOM     22  C   UNL     1      -7.775   3.698 125.355  0.00  0.00    +0.000 C 
BRANCH  22  23
ATOM     23  C   UNL     1      -8.426   4.737 126.248  0.00  0.00    +0.000 C 
ATOM     24  O   UNL     1      -8.999   5.722 125.767  0.00  0.00    +0.000 OA
ATOM     25  N   UNL     1      -8.332   4.632 127.650  0.00  0.00    +0.000 N 
ATOM     26  H   UNL     1      -7.513   4.396 128.191  0.00  0.00    +0.000 HD
BRANCH  25  27
ATOM     27  N   UNL     1      -9.201   5.436 128.260  0.00  0.00    +0.000 NA
ATOM     28  C   UNL     1      -9.786   5.300 129.390  0.00  0.00    +0.000 C 
ATOM     29  C   UNL     1      -9.853   4.269 130.524  0.00  0.00    +0.000 C 
ATOM     30  O   UNL     1      -9.256   3.229 130.591  0.00  0.00    +0.000 OA
ATOM     31  N   UNL     1     -10.770   4.810 131.428  0.00  0.00    +0.000 N 
ATOM     32  C   UNL     1     -11.256   6.033 130.971  0.00  0.00    +0.000 A 
ATOM     33  C   UNL     1     -12.203   6.857 131.526  0.00  0.00    +0.000 A 
ATOM     34  C   UNL     1     -12.526   8.035 130.829  0.00  0.00    +0.000 A 
ATOM     35  C   UNL     1     -11.898   8.374 129.612  0.00  0.00    +0.000 A 
ATOM     36  C   UNL     1     -10.944   7.533 129.064  0.00  0.00    +0.000 A 
ATOM     37  C   UNL     1     -10.671   6.379 129.771  0.00  0.00    +0.000 A 
ATOM     38  H   UNL     1     -11.061   4.356 132.282  0.00  0.00    +0.000 HD
ENDBRANCH  25  27
ENDBRANCH  22  23
ENDBRANCH   1  22
TORSDOF 6
ENDMDL
MODEL 5
REMARK VINA RESULT:     -10.9      1.044      2.136
REMARK  Name = CHEMBL2113206
REMARK  7 active torsions:
REMARK  status: ('A' for Active; 'I' for Inactive)
REMARK    1  A    between atoms: C_1  and  C_2
REMARK    2  A    between atoms: C_5  and  N_6
REMARK    3  A    between atoms: N_6  and  C_7
REMARK    4  A    between atoms: N_6  and  S_22
REMARK    5  A    between atoms: C_7  and  C_8
REMARK    6  A    between atoms: N_10  and  N_11
REMARK    7  A    between atoms: S_22  and  C_25
REMARK                            x       y       z     vdW  Elec       q    Type
REMARK                         _______ _______ _______ _____ _____    ______ ____
ROOT
ATOM      1  N   UNL     1      -7.309   1.663 125.080  0.00  0.00    +0.000 N 
ENDROOT
BRANCH   1   6
ATOM      2  C   UNL     1      -7.400   4.194 119.951  0.00  0.00    +0.000 C 
ATOM      3  C   UNL     1      -7.485   3.492 121.257  0.00  0.00    +0.000 A 
ATOM      4  C   UNL     1      -6.313   3.354 121.949  0.00  0.00    +0.000 A 
ATOM      5  C   UNL     1      -6.408   2.947 123.249  0.00  0.00    +0.000 A 
ATOM      6  C   UNL     1      -7.519   2.320 123.806  0.00  0.00    +0.000 A 
ATOM      7  C   UNL     1      -8.705   2.443 123.108  0.00  0.00    +0.000 A 
ATOM      8  C   UNL     1      -8.692   3.082 121.853  0.00  0.00    +0.000 A 
ENDBRANCH   1   6
BRANCH   1   9
ATOM      9  S   UNL     1      -6.574  -0.014 125.064  0.00  0.00    +0.000 S 
ATOM     10  O   UNL     1      -6.578  -0.409 123.664  0.00  0.00    +0.000 OA
ATOM     11  O   UNL     1      -5.298   0.073 125.756  0.00  0.00    +0.000 OA
BRANCH   9  12
ATOM     12  C   UNL     1      -7.449  -1.482 125.921  0.00  0.00    +0.000 A 
ATOM     13  C   UNL     1      -7.968  -2.501 125.131  0.00  0.00    +0.000 A 
ATOM     14  C   UNL     1      -8.635  -3.578 125.769  0.00  0.00    +0.000 A 
ATOM     15  C   UNL     1      -8.785  -3.662 127.174  0.00  0.00    +0.000 A 
ATOM     16  C   UNL     1      -8.249  -2.693 128.002  0.00  0.00    +0.000 A 
ATOM     17  C   UNL     1      -8.275  -2.681 129.448  0.00  0.00    +0.000 A 
ATOM     18  C   UNL     1      -7.672  -1.674 130.196  0.00  0.00    +0.000 A 
ATOM     19  C   UNL     1      -7.019  -0.721 129.497  0.00  0.00    +0.000 A 
ATOM     20  C   UNL     1      -7.046  -0.797 128.130  0.00  0.00    +0.000 A 
ATOM     21  C   UNL     1      -7.619  -1.671 127.314  0.00  0.00    +0.000 A 
ENDBRANCH   9  12
ENDBRANCH   1   9
BRANCH   1  22
ATOM     22  C   UNL     1      -7.511   2.586 126.288  0.00  0.00    +0.000 C 
BRANCH  22  23
ATOM     23  C   UNL     1      -8.171   3.879 126.724  0.00  0.00    +0.000 C 
ATOM     24  O   UNL     1      -8.787   4.585 125.917  0.00  0.00    +0.000 OA
ATOM     25  N   UNL     1      -8.040   4.334 128.052  0.00  0.00    +0.000 N 
ATOM     26  H   UNL     1      -7.200   4.346 128.612  0.00  0.00    +0.000 HD
BRANCH  25  27
ATOM     27  N   UNL     1      -8.918   5.296 128.328  0.00  0.00    +0.000 NA
ATOM     28  C   UNL     1      -9.741   5.397 129.303  0.00  0.00    +0.000 C 
ATOM     29  C   UNL     1     -10.166   4.575 130.527  0.00  0.00    +0.000 C 
ATOM     30  O   UNL     1      -9.723   3.514 130.874  0.00  0.00    +0.000 OA
ATOM     31  N   UNL     1     -11.184   5.331 131.113  0.00  0.00    +0.000 N 
ATOM     32  C   UNL     1     -11.415   6.499 130.389  0.00  0.00    +0.000 A 
ATOM     33  C   UNL     1     -12.355   7.478 130.592  0.00  0.00    +0.000 A 
ATOM     34  C   UNL     1     -12.383   8.548 129.681  0.00  0.00    +0.000 A 
ATOM     35  C   UNL     1     -11.476   8.630 128.602  0.00  0.00    +0.000 A 
ATOM     36  C   UNL     1     -10.534   7.634 128.410  0.00  0.00    +0.000 A 
ATOM     37  C   UNL     1     -10.553   6.593 129.317  0.00  0.00    +0.000 A 
ATOM     38  H   UNL     1     -11.700   5.049 131.934  0.00  0.00    +0.000 HD
ENDBRANCH  25  27
ENDBRANCH  22  23
ENDBRANCH   1  22
TORSDOF 6
ENDMDL
MODEL 6
REMARK VINA RESULT:     -10.8      3.952      4.910
REMARK  Name = CHEMBL2113206
REMARK  7 active torsions:
REMARK  status: ('A' for Active; 'I' for Inactive)
REMARK    1  A    between atoms: C_1  and  C_2
REMARK    2  A    between atoms: C_5  and  N_6
REMARK    3  A    between atoms: N_6  and  C_7
REMARK    4  A    between atoms: N_6  and  S_22
REMARK    5  A    between atoms: C_7  and  C_8
REMARK    6  A    between atoms: N_10  and  N_11
REMARK    7  A    between atoms: S_22  and  C_25
REMARK                            x       y       z     vdW  Elec       q    Type
REMARK                         _______ _______ _______ _____ _____    ______ ____
ROOT
ATOM      1  N   UNL     1      -8.680   2.628 123.470  0.00  0.00    +0.000 N 
ENDROOT
BRANCH   1   6
ATOM      2  C   UNL     1      -6.821   4.651 118.451  0.00  0.00    +0.000 C 
ATOM      3  C   UNL     1      -7.191   4.138 119.795  0.00  0.00    +0.000 A 
ATOM      4  C   UNL     1      -8.528   4.105 120.085  0.00  0.00    +0.000 A 
ATOM      5  C   UNL     1      -8.901   3.408 121.199  0.00  0.00    +0.000 A 
ATOM      6  C   UNL     1      -8.046   3.053 122.238  0.00  0.00    +0.000 A 
ATOM      7  C   UNL     1      -6.693   3.095 121.959  0.00  0.00    +0.000 A 
ATOM      8  C   UNL     1      -6.272   3.589 120.709  0.00  0.00    +0.000 A 
ENDBRANCH   1   6
BRANCH   1   9
ATOM      9  S   UNL     1      -9.657   1.080 123.436  0.00  0.00    +0.000 S 
ATOM     10  O   UNL     1     -10.527   1.164 124.599  0.00  0.00    +0.000 OA
ATOM     11  O   UNL     1     -10.266   0.989 122.119  0.00  0.00    +0.000 OA
BRANCH   9  12
ATOM     12  C   UNL     1      -8.815  -0.621 123.659  0.00  0.00    +0.000 A 
ATOM     13  C   UNL     1      -9.351  -1.721 122.999  0.00  0.00    +0.000 A 
ATOM     14  C   UNL     1      -8.736  -2.986 123.184  0.00  0.00    +0.000 A 
ATOM     15  C   UNL     1      -7.597  -3.173 124.003  0.00  0.00    +0.000 A 
ATOM     16  C   UNL     1      -7.004  -2.101 124.645  0.00  0.00    +0.000 A 
ATOM     17  C   UNL     1      -5.811  -2.134 125.460  0.00  0.00    +0.000 A 
ATOM     18  C   UNL     1      -5.269  -0.989 126.037  0.00  0.00    +0.000 A 
ATOM     19  C   UNL     1      -5.898   0.173 125.759  0.00  0.00    +0.000 A 
ATOM     20  C   UNL     1      -7.027   0.123 124.987  0.00  0.00    +0.000 A 
ATOM     21  C   UNL     1      -7.658  -0.901 124.427  0.00  0.00    +0.000 A 
ENDBRANCH   9  12
ENDBRANCH   1   9
BRANCH   1  22
ATOM     22  C   UNL     1      -8.226   3.424 124.699  0.00  0.00    +0.000 C 
BRANCH  22  23
ATOM     23  C   UNL     1      -7.014   3.749 125.550  0.00  0.00    +0.000 C 
ATOM     24  O   UNL     1      -5.868   3.604 125.109  0.00  0.00    +0.000 OA
ATOM     25  N   UNL     1      -7.172   4.164 126.888  0.00  0.00    +0.000 N 
ATOM     26  H   UNL     1      -7.795   3.772 127.578  0.00  0.00    +0.000 HD
BRANCH  25  27
ATOM     27  N   UNL     1      -6.049   4.691 127.372  0.00  0.00    +0.000 NA
ATOM     28  C   UNL     1      -5.444   4.454 128.475  0.00  0.00    +0.000 C 
ATOM     29  C   UNL     1      -5.643   3.582 129.721  0.00  0.00    +0.000 C 
ATOM     30  O   UNL     1      -6.543   2.813 129.929  0.00  0.00    +0.000 OA
ATOM     31  N   UNL     1      -4.565   3.907 130.546  0.00  0.00    +0.000 N 
ATOM     32  C   UNL     1      -3.750   4.864 129.944  0.00  0.00    +0.000 A 
ATOM     33  C   UNL     1      -2.630   5.488 130.434  0.00  0.00    +0.000 A 
ATOM     34  C   UNL     1      -2.010   6.446 129.612  0.00  0.00    +0.000 A 
ATOM     35  C   UNL     1      -2.503   6.753 128.325  0.00  0.00    +0.000 A 
ATOM     36  C   UNL     1      -3.634   6.115 127.845  0.00  0.00    +0.000 A 
ATOM     37  C   UNL     1      -4.222   5.195 128.691  0.00  0.00    +0.000 A 
ATOM     38  H   UNL     1      -4.416   3.520 131.467  0.00  0.00    +0.000 HD
ENDBRANCH  25  27
ENDBRANCH  22  23
ENDBRANCH   1  22
TORSDOF 6
ENDMDL
MODEL 7
REMARK VINA RESULT:     -10.7      2.438      4.595
REMARK  Name = CHEMBL2113206
REMARK  7 active torsions:
REMARK  status: ('A' for Active; 'I' for Inactive)
REMARK    1  A    between atoms: C_1  and  C_2
REMARK    2  A    between atoms: C_5  and  N_6
REMARK    3  A    between atoms: N_6  and  C_7
REMARK    4  A    between atoms: N_6  and  S_22
REMARK    5  A    between atoms: C_7  and  C_8
REMARK    6  A    between atoms: N_10  and  N_11
REMARK    7  A    between atoms: S_22  and  C_25
REMARK                            x       y       z     vdW  Elec       q    Type
REMARK                         _______ _______ _______ _____ _____    ______ ____
ROOT
ATOM      1  N   UNL     1      -7.040   1.791 126.511  0.00  0.00    +0.000 N 
ENDROOT
BRANCH   1   6
ATOM      2  C   UNL     1      -6.573  -3.195 129.278  0.00  0.00    +0.000 C 
ATOM      3  C   UNL     1      -6.573  -1.898 128.553  0.00  0.00    +0.000 A 
ATOM      4  C   UNL     1      -7.765  -1.511 128.004  0.00  0.00    +0.000 A 
ATOM      5  C   UNL     1      -7.852  -0.222 127.562  0.00  0.00    +0.000 A 
ATOM      6  C   UNL     1      -6.762   0.597 127.285  0.00  0.00    +0.000 A 
ATOM      7  C   UNL     1      -5.550   0.208 127.825  0.00  0.00    +0.000 A 
ATOM      8  C   UNL     1      -5.475  -1.020 128.509  0.00  0.00    +0.000 A 
ENDBRANCH   1   6
BRANCH   1   9
ATOM      9  S   UNL     1      -7.630   1.574 124.792  0.00  0.00    +0.000 S 
ATOM     10  O   UNL     1      -8.923   2.241 124.756  0.00  0.00    +0.000 OA
ATOM     11  O   UNL     1      -6.576   2.058 123.915  0.00  0.00    +0.000 OA
BRANCH   9  12
ATOM     12  C   UNL     1      -8.029  -0.161 124.098  0.00  0.00    +0.000 A 
ATOM     13  C   UNL     1      -9.243  -0.356 123.450  0.00  0.00    +0.000 A 
ATOM     14  C   UNL     1      -9.544  -1.651 122.955  0.00  0.00    +0.000 A 
ATOM     15  C   UNL     1      -8.659  -2.748 123.085  0.00  0.00    +0.000 A 
ATOM     16  C   UNL     1      -7.423  -2.590 123.685  0.00  0.00    +0.000 A 
ATOM     17  C   UNL     1      -6.399  -3.601 123.833  0.00  0.00    +0.000 A 
ATOM     18  C   UNL     1      -5.167  -3.334 124.423  0.00  0.00    +0.000 A 
ATOM     19  C   UNL     1      -4.958  -2.059 124.815  0.00  0.00    +0.000 A 
ATOM     20  C   UNL     1      -5.977  -1.161 124.648  0.00  0.00    +0.000 A 
ATOM     21  C   UNL     1      -7.197  -1.306 124.149  0.00  0.00    +0.000 A 
ENDBRANCH   9  12
ENDBRANCH   1   9
BRANCH   1  22
ATOM     22  C   UNL     1      -7.031   3.078 127.344  0.00  0.00    +0.000 C 
BRANCH  22  23
ATOM     23  C   UNL     1      -7.845   4.317 127.664  0.00  0.00    +0.000 C 
ATOM     24  O   UNL     1      -8.339   5.006 126.764  0.00  0.00    +0.000 OA
ATOM     25  N   UNL     1      -8.000   4.743 128.999  0.00  0.00    +0.000 N 
ATOM     26  H   UNL     1      -7.286   4.790 129.711  0.00  0.00    +0.000 HD
BRANCH  25  27
ATOM     27  N   UNL     1      -8.975   5.642 129.115  0.00  0.00    +0.000 NA
ATOM     28  C   UNL     1      -9.862   5.773 130.029  0.00  0.00    +0.000 C 
ATOM     29  C   UNL     1     -10.287   5.057 131.317  0.00  0.00    +0.000 C 
ATOM     30  O   UNL     1      -9.775   4.089 131.809  0.00  0.00    +0.000 OA
ATOM     31  N   UNL     1     -11.403   5.774 131.758  0.00  0.00    +0.000 N 
ATOM     32  C   UNL     1     -11.692   6.825 130.891  0.00  0.00    +0.000 A 
ATOM     33  C   UNL     1     -12.725   7.727 130.929  0.00  0.00    +0.000 A 
ATOM     34  C   UNL     1     -12.791   8.681 129.898  0.00  0.00    +0.000 A 
ATOM     35  C   UNL     1     -11.831   8.727 128.865  0.00  0.00    +0.000 A 
ATOM     36  C   UNL     1     -10.794   7.810 128.839  0.00  0.00    +0.000 A 
ATOM     37  C   UNL     1     -10.776   6.880 129.860  0.00  0.00    +0.000 A 
ATOM     38  H   UNL     1     -11.941   5.538 132.579  0.00  0.00    +0.000 HD
ENDBRANCH  25  27
ENDBRANCH  22  23
ENDBRANCH   1  22
TORSDOF 6
ENDMDL
MODEL 8
REMARK VINA RESULT:     -10.7      3.718      4.904
REMARK  Name = CHEMBL2113206
REMARK  7 active torsions:
REMARK  status: ('A' for Active; 'I' for Inactive)
REMARK    1  A    between atoms: C_1  and  C_2
REMARK    2  A    between atoms: C_5  and  N_6
REMARK    3  A    between atoms: N_6  and  C_7
REMARK    4  A    between atoms: N_6  and  S_22
REMARK    5  A    between atoms: C_7  and  C_8
REMARK    6  A    between atoms: N_10  and  N_11
REMARK    7  A    between atoms: S_22  and  C_25
REMARK                            x       y       z     vdW  Elec       q    Type
REMARK                         _______ _______ _______ _____ _____    ______ ____
ROOT
ATOM      1  N   UNL     1      -8.489   2.561 123.987  0.00  0.00    +0.000 N 
ENDROOT
BRANCH   1   6
ATOM      2  C   UNL     1      -7.109   4.504 118.786  0.00  0.00    +0.000 C 
ATOM      3  C   UNL     1      -7.355   4.025 120.171  0.00  0.00    +0.000 A 
ATOM      4  C   UNL     1      -8.664   3.864 120.533  0.00  0.00    +0.000 A 
ATOM      5  C   UNL     1      -8.904   3.191 121.696  0.00  0.00    +0.000 A 
ATOM      6  C   UNL     1      -7.966   2.986 122.704  0.00  0.00    +0.000 A 
ATOM      7  C   UNL     1      -6.641   3.160 122.352  0.00  0.00    +0.000 A 
ATOM      8  C   UNL     1      -6.338   3.628 121.059  0.00  0.00    +0.000 A 
ENDBRANCH   1   6
BRANCH   1   9
ATOM      9  S   UNL     1      -9.035   0.822 124.152  0.00  0.00    +0.000 S 
ATOM     10  O   UNL     1     -10.268   0.890 124.921  0.00  0.00    +0.000 OA
ATOM     11  O   UNL     1      -9.086   0.262 122.810  0.00  0.00    +0.000 OA
BRANCH   9  12
ATOM     12  C   UNL     1      -7.995  -0.450 125.128  0.00  0.00    +0.000 A 
ATOM     13  C   UNL     1      -8.226  -0.593 126.491  0.00  0.00    +0.000 A 
ATOM     14  C   UNL     1      -7.437  -1.522 127.216  0.00  0.00    +0.000 A 
ATOM     15  C   UNL     1      -6.433  -2.315 126.610  0.00  0.00    +0.000 A 
ATOM     16  C   UNL     1      -6.197  -2.237 125.250  0.00  0.00    +0.000 A 
ATOM     17  C   UNL     1      -5.251  -3.023 124.490  0.00  0.00    +0.000 A 
ATOM     18  C   UNL     1      -5.112  -2.895 123.111  0.00  0.00    +0.000 A 
ATOM     19  C   UNL     1      -5.944  -2.021 122.506  0.00  0.00    +0.000 A 
ATOM     20  C   UNL     1      -6.807  -1.307 123.293  0.00  0.00    +0.000 A 
ATOM     21  C   UNL     1      -6.996  -1.307 124.606  0.00  0.00    +0.000 A 
ENDBRANCH   9  12
ENDBRANCH   1   9
BRANCH   1  22
ATOM     22  C   UNL     1      -8.275   3.587 125.107  0.00  0.00    +0.000 C 
BRANCH  22  23
ATOM     23  C   UNL     1      -7.203   4.257 125.944  0.00  0.00    +0.000 C 
ATOM     24  O   UNL     1      -6.907   5.445 125.768  0.00  0.00    +0.000 OA
ATOM     25  N   UNL     1      -6.477   3.518 126.899  0.00  0.00    +0.000 N 
ATOM     26  H   UNL     1      -6.086   2.594 126.786  0.00  0.00    +0.000 HD
BRANCH  25  27
ATOM     27  N   UNL     1      -5.814   4.315 127.734  0.00  0.00    +0.000 NA
ATOM     28  C   UNL     1      -4.568   4.607 127.768  0.00  0.00    +0.000 C 
ATOM     29  C   UNL     1      -3.288   4.240 127.007  0.00  0.00    +0.000 C 
ATOM     30  O   UNL     1      -3.195   3.500 126.065  0.00  0.00    +0.000 OA
ATOM     31  N   UNL     1      -2.278   4.938 127.672  0.00  0.00    +0.000 N 
ATOM     32  C   UNL     1      -2.800   5.676 128.733  0.00  0.00    +0.000 A 
ATOM     33  C   UNL     1      -2.148   6.448 129.661  0.00  0.00    +0.000 A 
ATOM     34  C   UNL     1      -2.930   7.068 130.652  0.00  0.00    +0.000 A 
ATOM     35  C   UNL     1      -4.333   6.919 130.694  0.00  0.00    +0.000 A 
ATOM     36  C   UNL     1      -4.976   6.135 129.751  0.00  0.00    +0.000 A 
ATOM     37  C   UNL     1      -4.170   5.531 128.807  0.00  0.00    +0.000 A 
ATOM     38  H   UNL     1      -1.299   4.889 127.430  0.00  0.00    +0.000 HD
ENDBRANCH  25  27
ENDBRANCH  22  23
ENDBRANCH   1  22
TORSDOF 6
ENDMDL
MODEL 9
REMARK VINA RESULT:     -10.5      2.781      3.859
REMARK  Name = CHEMBL2113206
REMARK  7 active torsions:
REMARK  status: ('A' for Active; 'I' for Inactive)
REMARK    1  A    between atoms: C_1  and  C_2
REMARK    2  A    between atoms: C_5  and  N_6
REMARK    3  A    between atoms: N_6  and  C_7
REMARK    4  A    between atoms: N_6  and  S_22
REMARK    5  A    between atoms: C_7  and  C_8
REMARK    6  A    between atoms: N_10  and  N_11
REMARK    7  A    between atoms: S_22  and  C_25
REMARK                            x       y       z     vdW  Elec       q    Type
REMARK                         _______ _______ _______ _____ _____    ______ ____
ROOT
ATOM      1  N   UNL     1      -8.522   2.779 123.522  0.00  0.00    +0.000 N 
ENDROOT
BRANCH   1   6
ATOM      2  C   UNL     1      -6.899   4.598 118.346  0.00  0.00    +0.000 C 
ATOM      3  C   UNL     1      -7.207   4.144 119.726  0.00  0.00    +0.000 A 
ATOM      4  C   UNL     1      -8.532   4.076 120.061  0.00  0.00    +0.000 A 
ATOM      5  C   UNL     1      -8.843   3.427 121.221  0.00  0.00    +0.000 A 
ATOM      6  C   UNL     1      -7.943   3.161 122.249  0.00  0.00    +0.000 A 
ATOM      7  C   UNL     1      -6.602   3.240 121.924  0.00  0.00    +0.000 A 
ATOM      8  C   UNL     1      -6.239   3.681 120.637  0.00  0.00    +0.000 A 
ENDBRANCH   1   6
BRANCH   1   9
ATOM      9  S   UNL     1      -9.561   1.273 123.569  0.00  0.00    +0.000 S 
ATOM     10  O   UNL     1     -10.312   1.377 124.810  0.00  0.00    +0.000 OA
ATOM     11  O   UNL     1     -10.296   1.223 122.315  0.00  0.00    +0.000 OA
BRANCH   9  12
ATOM     12  C   UNL     1      -8.773  -0.464 123.695  0.00  0.00    +0.000 A 
ATOM     13  C   UNL     1      -9.356  -1.512 122.992  0.00  0.00    +0.000 A 
ATOM     14  C   UNL     1      -8.781  -2.804 123.106  0.00  0.00    +0.000 A 
ATOM     15  C   UNL     1      -7.635  -3.067 123.895  0.00  0.00    +0.000 A 
ATOM     16  C   UNL     1      -6.997  -2.048 124.576  0.00  0.00    +0.000 A 
ATOM     17  C   UNL     1      -5.792  -2.160 125.368  0.00  0.00    +0.000 A 
ATOM     18  C   UNL     1      -5.204  -1.062 125.989  0.00  0.00    +0.000 A 
ATOM     19  C   UNL     1      -5.797   0.132 125.779  0.00  0.00    +0.000 A 
ATOM     20  C   UNL     1      -6.940   0.156 125.025  0.00  0.00    +0.000 A 
ATOM     21  C   UNL     1      -7.614  -0.818 124.428  0.00  0.00    +0.000 A 
ENDBRANCH   9  12
ENDBRANCH   1   9
BRANCH   1  22
ATOM     22  C   UNL     1      -7.967   3.573 124.711  0.00  0.00    +0.000 C 
BRANCH  22  23
ATOM     23  C   UNL     1      -7.942   3.621 126.226  0.00  0.00    +0.000 C 
ATOM     24  O   UNL     1      -7.512   4.614 126.825  0.00  0.00    +0.000 OA
ATOM     25  N   UNL     1      -8.350   2.504 126.982  0.00  0.00    +0.000 N 
ATOM     26  H   UNL     1      -8.117   1.536 126.815  0.00  0.00    +0.000 HD
BRANCH  25  27
ATOM     27  N   UNL     1      -8.552   2.825 128.259  0.00  0.00    +0.000 NA
ATOM     28  C   UNL     1      -8.392   2.119 129.314  0.00  0.00    +0.000 C 
ATOM     29  C   UNL     1      -7.972   0.689 129.678  0.00  0.00    +0.000 C 
ATOM     30  O   UNL     1      -7.640  -0.181 128.920  0.00  0.00    +0.000 OA
ATOM     31  N   UNL     1      -8.090   0.638 131.069  0.00  0.00    +0.000 N 
ATOM     32  C   UNL     1      -8.526   1.861 131.575  0.00  0.00    +0.000 A 
ATOM     33  C   UNL     1      -8.818   2.214 132.869  0.00  0.00    +0.000 A 
ATOM     34  C   UNL     1      -9.271   3.525 133.096  0.00  0.00    +0.000 A 
ATOM     35  C   UNL     1      -9.411   4.457 132.045  0.00  0.00    +0.000 A 
ATOM     36  C   UNL     1      -9.113   4.086 130.745  0.00  0.00    +0.000 A 
ATOM     37  C   UNL     1      -8.689   2.784 130.563  0.00  0.00    +0.000 A 
ATOM     38  H   UNL     1      -7.909  -0.185 131.625  0.00  0.00    +0.000 HD
ENDBRANCH  25  27
ENDBRANCH  22  23
ENDBRANCH   1  22
TORSDOF 6
ENDMDL
